MODEL 1
REMARK VINA RESULT:    -8.275      0.000      0.000
REMARK INTER + INTRA:         -10.455
REMARK INTER:                  -9.968
REMARK INTRA:                  -0.488
REMARK UNBOUND:                -0.488
REMARK  Name = 
REMARK  4 active torsions:
REMARK  status: ('A' for Active; 'I' for Inactive)
REMARK    1  A    between atoms: C_2  and  C_4
REMARK    2  A    between atoms: N_8  and  C_9
REMARK    3  A    between atoms: C_9  and  C_10
REMARK    4  A    between atoms: C_21  and  N_22
REMARK                            x       y       z     vdW  Elec       q    Type
REMARK                         _______ _______ _______ _____ _____    ______ ____
ROOT
ATOM      1  C   UNL     1      46.527   2.898   7.431  0.00  0.00    +0.000 A 
ATOM      2  N   UNL     1      46.215   4.218   7.586  0.00  0.00    +0.000 NA
ATOM      3  C   UNL     1      45.347   4.475   8.598  0.00  0.00    +0.000 A 
ATOM      4  C   UNL     1      44.821   3.493   9.436  0.00  0.00    +0.000 A 
ATOM      5  N   UNL     1      43.867   3.728  10.431  0.00  0.00    +0.000 N 
ATOM      6  N   UNL     1      45.167   2.195   9.270  0.00  0.00    +0.000 NA
ATOM      7  C   UNL     1      46.019   1.891   8.262  0.00  0.00    +0.000 A 
ATOM      8  H   UNL     1      43.744   2.838  10.912  0.00  0.00    +0.000 HD
ENDROOT
BRANCH   1  10
ATOM      9  N   UNL     1      47.150   3.270   5.116  0.00  0.00    +0.000 N 
ATOM     10  C   UNL     1      47.397   2.560   6.264  0.00  0.00    +0.000 C 
ATOM     11  O   UNL     1      48.262   1.692   6.300  0.00  0.00    +0.000 OA
ATOM     12  H   UNL     1      47.679   3.065   4.282  0.00  0.00    +0.000 HD
ATOM     13  H   UNL     1      46.390   3.943   5.093  0.00  0.00    +0.000 HD
ENDBRANCH   1  10
BRANCH   5  14
ATOM     14  C   UNL     1      43.827   4.929  11.282  0.00  0.00    +0.000 C 
ATOM     15  C   UNL     1      42.577   5.055  12.148  0.00  0.00    +0.000 C 
ATOM     16  C   UNL     1      42.828   6.047  11.064  0.00  0.00    +0.000 C 
BRANCH  14  17
ATOM     17  C   UNL     1      45.172   5.259  11.927  0.00  0.00    +0.000 A 
ATOM     18  C   UNL     1      45.972   6.315  11.454  0.00  0.00    +0.000 A 
ATOM     19  C   UNL     1      47.168   6.670  12.085  0.00  0.00    +0.000 A 
ATOM     20  C   UNL     1      47.596   5.977  13.220  0.00  0.00    +0.000 A 
ATOM     21 CL   UNL     1      49.058   6.493  13.976  0.00  0.00    +0.000 Cl
ATOM     22  C   UNL     1      46.830   4.913  13.705  0.00  0.00    +0.000 A 
ATOM     23 CL   UNL     1      47.286   4.005  15.100  0.00  0.00    +0.000 Cl
ATOM     24  C   UNL     1      45.636   4.560  13.058  0.00  0.00    +0.000 A 
ENDBRANCH  14  17
ENDBRANCH   5  14
BRANCH   7  25
ATOM     25  N   UNL     1      46.430   0.561   8.212  0.00  0.00    +0.000 N 
ATOM     26  H   UNL     1      45.897   0.051   7.517  0.00  0.00    +0.000 HD
ATOM     27  H   UNL     1      47.442   0.466   8.127  0.00  0.00    +0.000 HD
ENDBRANCH   7  25
TORSDOF 4
ENDMDL
MODEL 2
REMARK VINA RESULT:    -7.499      4.485      6.674
REMARK INTER + INTRA:          -9.521
REMARK INTER:                  -9.101
REMARK INTRA:                  -0.421
REMARK UNBOUND:                -0.488
REMARK  Name = 
REMARK  4 active torsions:
REMARK  status: ('A' for Active; 'I' for Inactive)
REMARK    1  A    between atoms: C_2  and  C_4
REMARK    2  A    between atoms: N_8  and  C_9
REMARK    3  A    between atoms: C_9  and  C_10
REMARK    4  A    between atoms: C_21  and  N_22
REMARK                            x       y       z     vdW  Elec       q    Type
REMARK                         _______ _______ _______ _____ _____    ______ ____
ROOT
ATOM      1  C   UNL     1      47.929   6.262  14.007  0.00  0.00    +0.000 A 
ATOM      2  N   UNL     1      47.284   5.081  14.242  0.00  0.00    +0.000 NA
ATOM      3  C   UNL     1      46.335   4.766  13.323  0.00  0.00    +0.000 A 
ATOM      4  C   UNL     1      46.040   5.555  12.213  0.00  0.00    +0.000 A 
ATOM      5  N   UNL     1      45.014   5.288  11.300  0.00  0.00    +0.000 N 
ATOM      6  N   UNL     1      46.712   6.710  11.995  0.00  0.00    +0.000 NA
ATOM      7  C   UNL     1      47.657   7.071  12.896  0.00  0.00    +0.000 A 
ATOM      8  H   UNL     1      45.101   5.995  10.572  0.00  0.00    +0.000 HD
ENDROOT
BRANCH   1  10
ATOM      9  N   UNL     1      48.408   6.797  16.324  0.00  0.00    +0.000 N 
ATOM     10  C   UNL     1      48.907   6.696  15.049  0.00  0.00    +0.000 C 
ATOM     11  O   UNL     1      50.075   6.975  14.801  0.00  0.00    +0.000 OA
ATOM     12  H   UNL     1      49.008   7.121  17.067  0.00  0.00    +0.000 HD
ATOM     13  H   UNL     1      47.424   6.618  16.496  0.00  0.00    +0.000 HD
ENDBRANCH   1  10
BRANCH   5  14
ATOM     14  C   UNL     1      44.633   3.940  10.846  0.00  0.00    +0.000 C 
ATOM     15  C   UNL     1      43.160   3.596  11.042  0.00  0.00    +0.000 C 
ATOM     16  C   UNL     1      44.201   2.850  11.806  0.00  0.00    +0.000 C 
BRANCH  14  17
ATOM     17  C   UNL     1      45.283   3.540   9.523  0.00  0.00    +0.000 A 
ATOM     18  C   UNL     1      45.669   4.506   8.575  0.00  0.00    +0.000 A 
ATOM     19  C   UNL     1      46.330   4.155   7.395  0.00  0.00    +0.000 A 
ATOM     20  C   UNL     1      46.633   2.817   7.132  0.00  0.00    +0.000 A 
ATOM     21 CL   UNL     1      47.490   2.455   5.679  0.00  0.00    +0.000 Cl
ATOM     22  C   UNL     1      46.249   1.833   8.047  0.00  0.00    +0.000 A 
ATOM     23 CL   UNL     1      46.584   0.157   7.799  0.00  0.00    +0.000 Cl
ATOM     24  C   UNL     1      45.577   2.197   9.223  0.00  0.00    +0.000 A 
ENDBRANCH  14  17
ENDBRANCH   5  14
BRANCH   7  25
ATOM     25  N   UNL     1      48.395   8.204  12.562  0.00  0.00    +0.000 N 
ATOM     26  H   UNL     1      47.834   8.842  12.009  0.00  0.00    +0.000 HD
ATOM     27  H   UNL     1      48.852   8.627  13.369  0.00  0.00    +0.000 HD
ENDBRANCH   7  25
TORSDOF 4
ENDMDL
MODEL 3
REMARK VINA RESULT:    -6.620      4.843      6.845
REMARK INTER + INTRA:          -8.463
REMARK INTER:                  -8.870
REMARK INTRA:                   0.407
REMARK UNBOUND:                -0.488
REMARK  Name = 
REMARK  4 active torsions:
REMARK  status: ('A' for Active; 'I' for Inactive)
REMARK    1  A    between atoms: C_2  and  C_4
REMARK    2  A    between atoms: N_8  and  C_9
REMARK    3  A    between atoms: C_9  and  C_10
REMARK    4  A    between atoms: C_21  and  N_22
REMARK                            x       y       z     vdW  Elec       q    Type
REMARK                         _______ _______ _______ _____ _____    ______ ____
ROOT
ATOM      1  C   UNL     1      48.298   5.687  15.515  0.00  0.00    +0.000 A 
ATOM      2  N   UNL     1      48.076   6.206  14.272  0.00  0.00    +0.000 NA
ATOM      3  C   UNL     1      47.104   5.574  13.565  0.00  0.00    +0.000 A 
ATOM      4  C   UNL     1      46.366   4.497  14.053  0.00  0.00    +0.000 A 
ATOM      5  N   UNL     1      45.417   3.785  13.312  0.00  0.00    +0.000 N 
ATOM      6  N   UNL     1      46.595   4.019  15.299  0.00  0.00    +0.000 NA
ATOM      7  C   UNL     1      47.567   4.610  16.033  0.00  0.00    +0.000 A 
ATOM      8  H   UNL     1      45.005   3.117  13.961  0.00  0.00    +0.000 HD
ENDROOT
BRANCH   1  10
ATOM      9  N   UNL     1      49.277   7.605  16.631  0.00  0.00    +0.000 N 
ATOM     10  C   UNL     1      49.429   6.286  16.286  0.00  0.00    +0.000 C 
ATOM     11  O   UNL     1      50.447   5.667  16.577  0.00  0.00    +0.000 OA
ATOM     12  H   UNL     1      50.020   8.079  17.121  0.00  0.00    +0.000 HD
ATOM     13  H   UNL     1      48.452   8.114  16.328  0.00  0.00    +0.000 HD
ENDBRANCH   1  10
BRANCH   5  14
ATOM     14  C   UNL     1      44.494   4.391  12.338  0.00  0.00    +0.000 C 
ATOM     15  C   UNL     1      43.967   5.768  12.732  0.00  0.00    +0.000 C 
ATOM     16  C   UNL     1      43.025   4.615  12.640  0.00  0.00    +0.000 C 
BRANCH  14  17
ATOM     17  C   UNL     1      44.924   4.187  10.887  0.00  0.00    +0.000 A 
ATOM     18  C   UNL     1      45.357   5.265  10.093  0.00  0.00    +0.000 A 
ATOM     19  C   UNL     1      45.823   5.076   8.788  0.00  0.00    +0.000 A 
ATOM     20  C   UNL     1      45.876   3.792   8.241  0.00  0.00    +0.000 A 
ATOM     21 CL   UNL     1      46.502   3.623   6.643  0.00  0.00    +0.000 Cl
ATOM     22  C   UNL     1      45.439   2.703   9.000  0.00  0.00    +0.000 A 
ATOM     23 CL   UNL     1      45.472   1.084   8.400  0.00  0.00    +0.000 Cl
ATOM     24  C   UNL     1      44.965   2.906  10.305  0.00  0.00    +0.000 A 
ENDBRANCH  14  17
ENDBRANCH   5  14
BRANCH   7  25
ATOM     25  N   UNL     1      47.680   4.155  17.346  0.00  0.00    +0.000 N 
ATOM     26  H   UNL     1      48.550   3.652  17.473  0.00  0.00    +0.000 HD
ATOM     27  H   UNL     1      47.507   4.889  18.031  0.00  0.00    +0.000 HD
ENDBRANCH   7  25
TORSDOF 4
ENDMDL
MODEL 4
REMARK VINA RESULT:    -6.109      3.264      4.880
REMARK INTER + INTRA:          -7.846
REMARK INTER:                  -7.823
REMARK INTRA:                  -0.023
REMARK UNBOUND:                -0.488
REMARK  Name = 
REMARK  4 active torsions:
REMARK  status: ('A' for Active; 'I' for Inactive)
REMARK    1  A    between atoms: C_2  and  C_4
REMARK    2  A    between atoms: N_8  and  C_9
REMARK    3  A    between atoms: C_9  and  C_10
REMARK    4  A    between atoms: C_21  and  N_22
REMARK                            x       y       z     vdW  Elec       q    Type
REMARK                         _______ _______ _______ _____ _____    ______ ____
ROOT
ATOM      1  C   UNL     1      45.175   4.341  10.824  0.00  0.00    +0.000 A 
ATOM      2  N   UNL     1      45.743   5.540  10.499  0.00  0.00    +0.000 NA
ATOM      3  C   UNL     1      46.254   6.224  11.554  0.00  0.00    +0.000 A 
ATOM      4  C   UNL     1      46.232   5.754  12.867  0.00  0.00    +0.000 A 
ATOM      5  N   UNL     1      46.682   6.478  13.976  0.00  0.00    +0.000 N 
ATOM      6  N   UNL     1      45.681   4.552  13.154  0.00  0.00    +0.000 NA
ATOM      7  C   UNL     1      45.145   3.842  12.133  0.00  0.00    +0.000 A 
ATOM      8  H   UNL     1      46.604   5.844  14.769  0.00  0.00    +0.000 HD
ENDROOT
BRANCH   1  10
ATOM      9  N   UNL     1      44.006   4.386   8.699  0.00  0.00    +0.000 N 
ATOM     10  C   UNL     1      44.510   3.604   9.708  0.00  0.00    +0.000 C 
ATOM     11  O   UNL     1      44.385   2.384   9.687  0.00  0.00    +0.000 OA
ATOM     12  H   UNL     1      43.513   3.953   7.934  0.00  0.00    +0.000 HD
ATOM     13  H   UNL     1      44.069   5.397   8.766  0.00  0.00    +0.000 HD
ENDBRANCH   1  10
BRANCH   5  14
ATOM     14  C   UNL     1      47.859   7.364  13.972  0.00  0.00    +0.000 C 
ATOM     15  C   UNL     1      47.534   8.852  13.891  0.00  0.00    +0.000 C 
ATOM     16  C   UNL     1      48.252   8.189  12.763  0.00  0.00    +0.000 C 
BRANCH  14  17
ATOM     17  C   UNL     1      48.947   6.929  14.952  0.00  0.00    +0.000 A 
ATOM     18  C   UNL     1      50.261   7.421  14.853  0.00  0.00    +0.000 A 
ATOM     19  C   UNL     1      51.244   7.085  15.790  0.00  0.00    +0.000 A 
ATOM     20  C   UNL     1      50.933   6.248  16.864  0.00  0.00    +0.000 A 
ATOM     21 CL   UNL     1      52.179   5.910  18.007  0.00  0.00    +0.000 Cl
ATOM     22  C   UNL     1      49.640   5.732  16.981  0.00  0.00    +0.000 A 
ATOM     23 CL   UNL     1      49.173   4.691  18.277  0.00  0.00    +0.000 Cl
ATOM     24  C   UNL     1      48.665   6.068  16.030  0.00  0.00    +0.000 A 
ENDBRANCH  14  17
ENDBRANCH   5  14
BRANCH   7  25
ATOM     25  N   UNL     1      44.699   2.565  12.467  0.00  0.00    +0.000 N 
ATOM     26  H   UNL     1      44.771   2.414  13.466  0.00  0.00    +0.000 HD
ATOM     27  H   UNL     1      43.784   2.352  12.069  0.00  0.00    +0.000 HD
ENDBRANCH   7  25
TORSDOF 4
ENDMDL
MODEL 5
REMARK VINA RESULT:    -5.615      2.726      3.949
REMARK INTER + INTRA:          -7.251
REMARK INTER:                  -6.668
REMARK INTRA:                  -0.583
REMARK UNBOUND:                -0.488
REMARK  Name = 
REMARK  4 active torsions:
REMARK  status: ('A' for Active; 'I' for Inactive)
REMARK    1  A    between atoms: C_2  and  C_4
REMARK    2  A    between atoms: N_8  and  C_9
REMARK    3  A    between atoms: C_9  and  C_10
REMARK    4  A    between atoms: C_21  and  N_22
REMARK                            x       y       z     vdW  Elec       q    Type
REMARK                         _______ _______ _______ _____ _____    ______ ____
ROOT
ATOM      1  C   UNL     1      44.903   3.659  10.364  0.00  0.00    +0.000 A 
ATOM      2  N   UNL     1      45.158   4.797   9.653  0.00  0.00    +0.000 NA
ATOM      3  C   UNL     1      45.155   5.935  10.394  0.00  0.00    +0.000 A 
ATOM      4  C   UNL     1      44.934   5.963  11.770  0.00  0.00    +0.000 A 
ATOM      5  N   UNL     1      44.850   7.130  12.536  0.00  0.00    +0.000 N 
ATOM      6  N   UNL     1      44.706   4.815  12.450  0.00  0.00    +0.000 NA
ATOM      7  C   UNL     1      44.684   3.658  11.747  0.00  0.00    +0.000 A 
ATOM      8  H   UNL     1      44.759   6.821  13.502  0.00  0.00    +0.000 HD
ENDROOT
BRANCH   1  10
ATOM      9  N   UNL     1      45.855   2.125   8.743  0.00  0.00    +0.000 N 
ATOM     10  C   UNL     1      44.794   2.398   9.570  0.00  0.00    +0.000 C 
ATOM     11  O   UNL     1      43.819   1.656   9.617  0.00  0.00    +0.000 OA
ATOM     12  H   UNL     1      45.828   1.308   8.154  0.00  0.00    +0.000 HD
ATOM     13  H   UNL     1      46.625   2.784   8.677  0.00  0.00    +0.000 HD
ENDBRANCH   1  10
BRANCH   5  14
ATOM     14  C   UNL     1      45.675   8.331  12.320  0.00  0.00    +0.000 C 
ATOM     15  C   UNL     1      44.963   9.651  12.602  0.00  0.00    +0.000 C 
ATOM     16  C   UNL     1      45.389   9.324  11.211  0.00  0.00    +0.000 C 
BRANCH  14  17
ATOM     17  C   UNL     1      47.109   8.179  12.822  0.00  0.00    +0.000 A 
ATOM     18  C   UNL     1      48.165   7.876  11.942  0.00  0.00    +0.000 A 
ATOM     19  C   UNL     1      49.491   7.808  12.381  0.00  0.00    +0.000 A 
ATOM     20  C   UNL     1      49.799   8.052  13.721  0.00  0.00    +0.000 A 
ATOM     21 CL   UNL     1      51.459   7.995  14.188  0.00  0.00    +0.000 Cl
ATOM     22  C   UNL     1      48.770   8.340  14.622  0.00  0.00    +0.000 A 
ATOM     23 CL   UNL     1      49.065   8.653  16.294  0.00  0.00    +0.000 Cl
ATOM     24  C   UNL     1      47.443   8.396  14.172  0.00  0.00    +0.000 A 
ENDBRANCH  14  17
ENDBRANCH   5  14
BRANCH   7  25
ATOM     25  N   UNL     1      44.561   2.500  12.513  0.00  0.00    +0.000 N 
ATOM     26  H   UNL     1      44.669   1.677  11.931  0.00  0.00    +0.000 HD
ATOM     27  H   UNL     1      45.152   2.514  13.343  0.00  0.00    +0.000 HD
ENDBRANCH   7  25
TORSDOF 4
ENDMDL
MODEL 6
REMARK VINA RESULT:    -5.580      5.893      7.996
REMARK INTER + INTRA:          -7.209
REMARK INTER:                  -6.774
REMARK INTRA:                  -0.435
REMARK UNBOUND:                -0.488
REMARK  Name = 
REMARK  4 active torsions:
REMARK  status: ('A' for Active; 'I' for Inactive)
REMARK    1  A    between atoms: C_2  and  C_4
REMARK    2  A    between atoms: N_8  and  C_9
REMARK    3  A    between atoms: C_9  and  C_10
REMARK    4  A    between atoms: C_21  and  N_22
REMARK                            x       y       z     vdW  Elec       q    Type
REMARK                         _______ _______ _______ _____ _____    ______ ____
ROOT
ATOM      1  C   UNL     1      47.472   5.661  13.737  0.00  0.00    +0.000 A 
ATOM      2  N   UNL     1      48.243   6.501  14.489  0.00  0.00    +0.000 NA
ATOM      3  C   UNL     1      48.479   6.066  15.753  0.00  0.00    +0.000 A 
ATOM      4  C   UNL     1      48.003   4.857  16.258  0.00  0.00    +0.000 A 
ATOM      5  N   UNL     1      48.170   4.429  17.580  0.00  0.00    +0.000 N 
ATOM      6  N   UNL     1      47.260   4.035  15.481  0.00  0.00    +0.000 NA
ATOM      7  C   UNL     1      46.987   4.437  14.217  0.00  0.00    +0.000 A 
ATOM      8  H   UNL     1      47.783   3.488  17.616  0.00  0.00    +0.000 HD
ENDROOT
BRANCH   1  10
ATOM      9  N   UNL     1      47.937   7.098  11.839  0.00  0.00    +0.000 N 
ATOM     10  C   UNL     1      47.102   6.150  12.375  0.00  0.00    +0.000 C 
ATOM     11  O   UNL     1      46.108   5.765  11.769  0.00  0.00    +0.000 OA
ATOM     12  H   UNL     1      47.723   7.496  10.937  0.00  0.00    +0.000 HD
ATOM     13  H   UNL     1      48.721   7.444  12.383  0.00  0.00    +0.000 HD
ENDBRANCH   1  10
BRANCH   5  14
ATOM     14  C   UNL     1      49.383   4.658  18.384  0.00  0.00    +0.000 C 
ATOM     15  C   UNL     1      49.119   5.090  19.823  0.00  0.00    +0.000 C 
ATOM     16  C   UNL     1      49.784   6.033  18.878  0.00  0.00    +0.000 C 
BRANCH  14  17
ATOM     17  C   UNL     1      50.472   3.614  18.146  0.00  0.00    +0.000 A 
ATOM     18  C   UNL     1      50.181   2.375  17.545  0.00  0.00    +0.000 A 
ATOM     19  C   UNL     1      51.184   1.444  17.257  0.00  0.00    +0.000 A 
ATOM     20  C   UNL     1      52.517   1.734  17.558  0.00  0.00    +0.000 A 
ATOM     21 CL   UNL     1      53.710   0.561  17.137  0.00  0.00    +0.000 Cl
ATOM     22  C   UNL     1      52.836   2.949  18.170  0.00  0.00    +0.000 A 
ATOM     23 CL   UNL     1      54.456   3.385  18.574  0.00  0.00    +0.000 Cl
ATOM     24  C   UNL     1      51.819   3.871  18.462  0.00  0.00    +0.000 A 
ENDBRANCH  14  17
ENDBRANCH   5  14
BRANCH   7  25
ATOM     25  N   UNL     1      46.319   3.503  13.427  0.00  0.00    +0.000 N 
ATOM     26  H   UNL     1      46.788   2.606  13.468  0.00  0.00    +0.000 HD
ATOM     27  H   UNL     1      45.319   3.470  13.619  0.00  0.00    +0.000 HD
ENDBRANCH   7  25
TORSDOF 4
ENDMDL
MODEL 7
REMARK VINA RESULT:    -5.522      4.343      6.279
REMARK INTER + INTRA:          -7.140
REMARK INTER:                  -6.869
REMARK INTRA:                  -0.271
REMARK UNBOUND:                -0.488
REMARK  Name = 
REMARK  4 active torsions:
REMARK  status: ('A' for Active; 'I' for Inactive)
REMARK    1  A    between atoms: C_2  and  C_4
REMARK    2  A    between atoms: N_8  and  C_9
REMARK    3  A    between atoms: C_9  and  C_10
REMARK    4  A    between atoms: C_21  and  N_22
REMARK                            x       y       z     vdW  Elec       q    Type
REMARK                         _______ _______ _______ _____ _____    ______ ____
ROOT
ATOM      1  C   UNL     1      45.802   4.510  12.523  0.00  0.00    +0.000 A 
ATOM      2  N   UNL     1      45.598   5.673  11.838  0.00  0.00    +0.000 NA
ATOM      3  C   UNL     1      46.401   6.699  12.220  0.00  0.00    +0.000 A 
ATOM      4  C   UNL     1      47.374   6.594  13.213  0.00  0.00    +0.000 A 
ATOM      5  N   UNL     1      48.154   7.659  13.674  0.00  0.00    +0.000 N 
ATOM      6  N   UNL     1      47.567   5.420  13.860  0.00  0.00    +0.000 NA
ATOM      7  C   UNL     1      46.777   4.374  13.520  0.00  0.00    +0.000 A 
ATOM      8  H   UNL     1      48.813   7.252  14.337  0.00  0.00    +0.000 HD
ENDROOT
BRANCH   1  10
ATOM      9  N   UNL     1      45.003   2.845  10.951  0.00  0.00    +0.000 N 
ATOM     10  C   UNL     1      44.871   3.386  12.205  0.00  0.00    +0.000 C 
ATOM     11  O   UNL     1      44.019   2.977  12.987  0.00  0.00    +0.000 OA
ATOM     12  H   UNL     1      44.379   2.107  10.660  0.00  0.00    +0.000 HD
ATOM     13  H   UNL     1      45.675   3.239  10.300  0.00  0.00    +0.000 HD
ENDBRANCH   1  10
BRANCH   5  14
ATOM     14  C   UNL     1      48.683   8.736  12.822  0.00  0.00    +0.000 C 
ATOM     15  C   UNL     1      48.222  10.138  13.210  0.00  0.00    +0.000 C 
ATOM     16  C   UNL     1      47.797   9.556  11.904  0.00  0.00    +0.000 C 
BRANCH  14  17
ATOM     17  C   UNL     1      50.153   8.551  12.453  0.00  0.00    +0.000 A 
ATOM     18  C   UNL     1      51.180   8.823  13.376  0.00  0.00    +0.000 A 
ATOM     19  C   UNL     1      52.524   8.586  13.072  0.00  0.00    +0.000 A 
ATOM     20  C   UNL     1      52.879   8.058  11.828  0.00  0.00    +0.000 A 
ATOM     21 CL   UNL     1      54.550   7.748  11.533  0.00  0.00    +0.000 Cl
ATOM     22  C   UNL     1      51.883   7.793  10.884  0.00  0.00    +0.000 A 
ATOM     23 CL   UNL     1      52.236   7.141   9.325  0.00  0.00    +0.000 Cl
ATOM     24  C   UNL     1      50.539   8.044  11.198  0.00  0.00    +0.000 A 
ENDBRANCH  14  17
ENDBRANCH   5  14
BRANCH   7  25
ATOM     25  N   UNL     1      47.098   3.164  14.133  0.00  0.00    +0.000 N 
ATOM     26  H   UNL     1      47.999   3.228  14.592  0.00  0.00    +0.000 HD
ATOM     27  H   UNL     1      46.344   2.811  14.721  0.00  0.00    +0.000 HD
ENDBRANCH   7  25
TORSDOF 4
ENDMDL
MODEL 8
REMARK VINA RESULT:    -5.431      5.980      8.505
REMARK INTER + INTRA:          -7.030
REMARK INTER:                  -6.309
REMARK INTRA:                  -0.721
REMARK UNBOUND:                -0.488
REMARK  Name = 
REMARK  4 active torsions:
REMARK  status: ('A' for Active; 'I' for Inactive)
REMARK    1  A    between atoms: C_2  and  C_4
REMARK    2  A    between atoms: N_8  and  C_9
REMARK    3  A    between atoms: C_9  and  C_10
REMARK    4  A    between atoms: C_21  and  N_22
REMARK                            x       y       z     vdW  Elec       q    Type
REMARK                         _______ _______ _______ _____ _____    ______ ____
ROOT
ATOM      1  C   UNL     1      48.672   7.292  17.718  0.00  0.00    +0.000 A 
ATOM      2  N   UNL     1      48.484   8.415  16.963  0.00  0.00    +0.000 NA
ATOM      3  C   UNL     1      48.667   8.233  15.630  0.00  0.00    +0.000 A 
ATOM      4  C   UNL     1      48.999   7.009  15.053  0.00  0.00    +0.000 A 
ATOM      5  N   UNL     1      49.269   6.820  13.694  0.00  0.00    +0.000 N 
ATOM      6  N   UNL     1      49.158   5.908  15.826  0.00  0.00    +0.000 NA
ATOM      7  C   UNL     1      48.999   6.048  17.164  0.00  0.00    +0.000 A 
ATOM      8  H   UNL     1      49.403   5.817  13.576  0.00  0.00    +0.000 HD
ENDROOT
BRANCH   1  10
ATOM      9  N   UNL     1      47.524   8.227  19.639  0.00  0.00    +0.000 N 
ATOM     10  C   UNL     1      48.581   7.471  19.198  0.00  0.00    +0.000 C 
ATOM     11  O   UNL     1      49.401   7.007  19.983  0.00  0.00    +0.000 OA
ATOM     12  H   UNL     1      47.426   8.416  20.625  0.00  0.00    +0.000 HD
ATOM     13  H   UNL     1      46.891   8.650  18.968  0.00  0.00    +0.000 HD
ENDBRANCH   1  10
BRANCH   5  14
ATOM     14  C   UNL     1      48.563   7.508  12.600  0.00  0.00    +0.000 C 
ATOM     15  C   UNL     1      49.411   7.766  11.359  0.00  0.00    +0.000 C 
ATOM     16  C   UNL     1      48.914   8.917  12.166  0.00  0.00    +0.000 C 
BRANCH  14  17
ATOM     17  C   UNL     1      47.136   7.006  12.390  0.00  0.00    +0.000 A 
ATOM     18  C   UNL     1      46.101   7.880  12.008  0.00  0.00    +0.000 A 
ATOM     19  C   UNL     1      44.809   7.417  11.742  0.00  0.00    +0.000 A 
ATOM     20  C   UNL     1      44.516   6.055  11.845  0.00  0.00    +0.000 A 
ATOM     21 CL   UNL     1      42.914   5.544  11.461  0.00  0.00    +0.000 Cl
ATOM     22  C   UNL     1      45.520   5.164  12.238  0.00  0.00    +0.000 A 
ATOM     23 CL   UNL     1      45.243   3.467  12.390  0.00  0.00    +0.000 Cl
ATOM     24  C   UNL     1      46.810   5.642  12.511  0.00  0.00    +0.000 A 
ENDBRANCH  14  17
ENDBRANCH   5  14
BRANCH   7  25
ATOM     25  N   UNL     1      49.058   4.863  17.895  0.00  0.00    +0.000 N 
ATOM     26  H   UNL     1      48.236   4.767  18.480  0.00  0.00    +0.000 HD
ATOM     27  H   UNL     1      49.264   4.052  17.313  0.00  0.00    +0.000 HD
ENDBRANCH   7  25
TORSDOF 4
ENDMDL
