MODEL 1
REMARK VINA RESULT:    -7.868      0.000      0.000
REMARK INTER + INTRA:         -12.045
REMARK INTER:                 -10.857
REMARK INTRA:                  -1.188
REMARK UNBOUND:                -1.188
REMARK  Name = 
REMARK  7 active torsions:
REMARK  status: ('A' for Active; 'I' for Inactive)
REMARK    1  A    between atoms: C_2  and  C_20
REMARK    2  A    between atoms: N_3  and  C_4
REMARK    3  A    between atoms: C_4  and  C_5
REMARK    4  A    between atoms: C_8  and  C_9
REMARK    5  A    between atoms: C_9  and  C_10
REMARK    6  A    between atoms: C_10  and  O_11
REMARK    7  A    between atoms: C_10  and  C_12
REMARK                            x       y       z     vdW  Elec       q    Type
REMARK                         _______ _______ _______ _____ _____    ______ ____
ROOT
ATOM      1  C   UNL     1      47.053   8.555  13.270  0.00  0.00    +0.000 C 
ENDROOT
BRANCH   1   2
ATOM      2  C   UNL     1      46.299   7.486  12.505  0.00  0.00    +0.000 A 
ATOM      3  N   UNL     1      45.059   7.180  12.919  0.00  0.00    +0.000 NA
ATOM      4  C   UNL     1      44.406   6.219  12.233  0.00  0.00    +0.000 A 
ATOM      5  C   UNL     1      44.941   5.531  11.162  0.00  0.00    +0.000 A 
ATOM      6  C   UNL     1      46.240   5.890  10.856  0.00  0.00    +0.000 A 
ATOM      7  N   UNL     1      46.944   6.838  11.510  0.00  0.00    +0.000 NA
BRANCH   5   8
ATOM      8  C   UNL     1      44.208   4.503  10.337  0.00  0.00    +0.000 C 
BRANCH   8   9
ATOM      9  C   UNL     1      44.800   3.083  10.333  0.00  0.00    +0.000 C 
BRANCH   9  10
ATOM     10  C   UNL     1      45.477   2.781   9.006  0.00  0.00    +0.000 A 
ATOM     11  N   UNL     1      45.596   3.776   8.105  0.00  0.00    +0.000 NA
ATOM     12  C   UNL     1      46.263   3.479   6.972  0.00  0.00    +0.000 A 
ATOM     13  C   UNL     1      46.798   2.241   6.705  0.00  0.00    +0.000 A 
ATOM     14  C   UNL     1      46.607   1.289   7.679  0.00  0.00    +0.000 A 
ATOM     15  N   UNL     1      45.953   1.526   8.833  0.00  0.00    +0.000 NA
ENDBRANCH   9  10
BRANCH   9  16
ATOM     16  O   UNL     1      43.735   2.143  10.575  0.00  0.00    +0.000 OA
ATOM     17  H   UNL     1      43.354   2.398  11.440  0.00  0.00    +0.000 HD
ENDBRANCH   9  16
ENDBRANCH   8   9
ENDBRANCH   5   8
ENDBRANCH   1   2
BRANCH   1  20
ATOM     18  O   UNL     1      49.434   7.054  13.768  0.00  0.00    +0.000 OA
ATOM     19  C   UNL     1      48.639   7.277  14.668  0.00  0.00    +0.000 C 
ATOM     20  N   UNL     1      47.517   8.060  14.547  0.00  0.00    +0.000 N 
ATOM     21  H   UNL     1      46.814   8.013  15.268  0.00  0.00    +0.000 HD
BRANCH  19  22
ATOM     22  C   UNL     1      48.648   6.568  15.945  0.00  0.00    +0.000 A 
ATOM     23  C   UNL     1      49.221   7.098  17.085  0.00  0.00    +0.000 A 
ATOM     24  S   UNL     1      49.570   5.875  18.239  0.00  0.00    +0.000 S 
ATOM     25  C   UNL     1      48.841   4.674  17.271  0.00  0.00    +0.000 A 
ATOM     26  N   UNL     1      48.904   3.350  17.574  0.00  0.00    +0.000 NA
ATOM     27  C   UNL     1      48.258   2.587  16.754  0.00  0.00    +0.000 A 
ATOM     28  N   UNL     1      47.509   3.029  15.689  0.00  0.00    +0.000 N 
ATOM     29  C   UNL     1      47.385   4.358  15.368  0.00  0.00    +0.000 A 
ATOM     30  O   UNL     1      46.621   4.751  14.496  0.00  0.00    +0.000 OA
ATOM     31  C   UNL     1      48.217   5.228  16.175  0.00  0.00    +0.000 A 
ATOM     32  H   UNL     1      46.947   2.392  15.145  0.00  0.00    +0.000 HD
ENDBRANCH  19  22
ENDBRANCH   1  20
TORSDOF 7
ENDMDL
MODEL 2
REMARK VINA RESULT:    -7.666      2.093      3.503
REMARK INTER + INTRA:         -11.767
REMARK INTER:                 -10.857
REMARK INTRA:                  -0.911
REMARK UNBOUND:                -1.188
REMARK  Name = 
REMARK  7 active torsions:
REMARK  status: ('A' for Active; 'I' for Inactive)
REMARK    1  A    between atoms: C_2  and  C_20
REMARK    2  A    between atoms: N_3  and  C_4
REMARK    3  A    between atoms: C_4  and  C_5
REMARK    4  A    between atoms: C_8  and  C_9
REMARK    5  A    between atoms: C_9  and  C_10
REMARK    6  A    between atoms: C_10  and  O_11
REMARK    7  A    between atoms: C_10  and  C_12
REMARK                            x       y       z     vdW  Elec       q    Type
REMARK                         _______ _______ _______ _____ _____    ______ ____
ROOT
ATOM      1  C   UNL     1      47.262   4.296  15.743  0.00  0.00    +0.000 C 
ENDROOT
BRANCH   1   2
ATOM      2  C   UNL     1      46.780   4.593  14.338  0.00  0.00    +0.000 A 
ATOM      3  N   UNL     1      47.090   5.789  13.811  0.00  0.00    +0.000 NA
ATOM      4  C   UNL     1      46.642   6.040  12.564  0.00  0.00    +0.000 A 
ATOM      5  C   UNL     1      45.879   5.162  11.821  0.00  0.00    +0.000 A 
ATOM      6  C   UNL     1      45.575   3.986  12.481  0.00  0.00    +0.000 A 
ATOM      7  N   UNL     1      45.990   3.682  13.730  0.00  0.00    +0.000 NA
BRANCH   5   8
ATOM      8  C   UNL     1      45.425   5.392  10.401  0.00  0.00    +0.000 C 
BRANCH   8   9
ATOM      9  C   UNL     1      44.606   4.261   9.755  0.00  0.00    +0.000 C 
BRANCH   9  10
ATOM     10  C   UNL     1      45.441   3.502   8.735  0.00  0.00    +0.000 A 
ATOM     11  N   UNL     1      46.050   4.200   7.756  0.00  0.00    +0.000 NA
ATOM     12  C   UNL     1      46.833   3.493   6.917  0.00  0.00    +0.000 A 
ATOM     13  C   UNL     1      47.017   2.134   7.011  0.00  0.00    +0.000 A 
ATOM     14  C   UNL     1      46.338   1.512   8.032  0.00  0.00    +0.000 A 
ATOM     15  N   UNL     1      45.544   2.164   8.904  0.00  0.00    +0.000 NA
ENDBRANCH   9  10
BRANCH   9  16
ATOM     16  O   UNL     1      43.449   4.840   9.121  0.00  0.00    +0.000 OA
ATOM     17  H   UNL     1      42.880   4.081   8.877  0.00  0.00    +0.000 HD
ENDBRANCH   9  16
ENDBRANCH   8   9
ENDBRANCH   5   8
ENDBRANCH   1   2
BRANCH   1  20
ATOM     18  O   UNL     1      49.937   4.581  16.708  0.00  0.00    +0.000 OA
ATOM     19  C   UNL     1      49.121   5.476  16.864  0.00  0.00    +0.000 C 
ATOM     20  N   UNL     1      47.843   5.468  16.361  0.00  0.00    +0.000 N 
ATOM     21  H   UNL     1      47.178   6.137  16.716  0.00  0.00    +0.000 HD
BRANCH  19  22
ATOM     22  C   UNL     1      49.311   6.588  17.792  0.00  0.00    +0.000 A 
ATOM     23  C   UNL     1      49.775   6.408  19.081  0.00  0.00    +0.000 A 
ATOM     24  S   UNL     1      49.384   7.749  20.081  0.00  0.00    +0.000 S 
ATOM     25  C   UNL     1      48.719   8.609  18.766  0.00  0.00    +0.000 A 
ATOM     26  N   UNL     1      48.058   9.787  18.919  0.00  0.00    +0.000 NA
ATOM     27  C   UNL     1      47.660  10.320  17.810  0.00  0.00    +0.000 A 
ATOM     28  N   UNL     1      47.909   9.812  16.557  0.00  0.00    +0.000 N 
ATOM     29  C   UNL     1      48.606   8.647  16.352  0.00  0.00    +0.000 A 
ATOM     30  O   UNL     1      48.928   8.267  15.234  0.00  0.00    +0.000 OA
ATOM     31  C   UNL     1      48.935   7.947  17.578  0.00  0.00    +0.000 A 
ATOM     32  H   UNL     1      47.658  10.326  15.726  0.00  0.00    +0.000 HD
ENDBRANCH  19  22
ENDBRANCH   1  20
TORSDOF 7
ENDMDL
MODEL 3
REMARK VINA RESULT:    -7.168      2.006      2.518
REMARK INTER + INTRA:         -11.080
REMARK INTER:                 -10.747
REMARK INTRA:                  -0.333
REMARK UNBOUND:                -1.188
REMARK  Name = 
REMARK  7 active torsions:
REMARK  status: ('A' for Active; 'I' for Inactive)
REMARK    1  A    between atoms: C_2  and  C_20
REMARK    2  A    between atoms: N_3  and  C_4
REMARK    3  A    between atoms: C_4  and  C_5
REMARK    4  A    between atoms: C_8  and  C_9
REMARK    5  A    between atoms: C_9  and  C_10
REMARK    6  A    between atoms: C_10  and  O_11
REMARK    7  A    between atoms: C_10  and  C_12
REMARK                            x       y       z     vdW  Elec       q    Type
REMARK                         _______ _______ _______ _____ _____    ______ ____
ROOT
ATOM      1  C   UNL     1      48.566   6.813  13.739  0.00  0.00    +0.000 C 
ENDROOT
BRANCH   1   2
ATOM      2  C   UNL     1      47.394   5.999  13.232  0.00  0.00    +0.000 A 
ATOM      3  N   UNL     1      46.469   6.630  12.489  0.00  0.00    +0.000 NA
ATOM      4  C   UNL     1      45.427   5.892  12.056  0.00  0.00    +0.000 A 
ATOM      5  C   UNL     1      45.250   4.554  12.345  0.00  0.00    +0.000 A 
ATOM      6  C   UNL     1      46.232   4.021  13.160  0.00  0.00    +0.000 A 
ATOM      7  N   UNL     1      47.293   4.712  13.628  0.00  0.00    +0.000 NA
BRANCH   5   8
ATOM      8  C   UNL     1      44.131   3.691  11.817  0.00  0.00    +0.000 C 
BRANCH   8   9
ATOM      9  C   UNL     1      43.686   3.962  10.369  0.00  0.00    +0.000 C 
BRANCH   9  10
ATOM     10  C   UNL     1      44.737   3.481   9.381  0.00  0.00    +0.000 A 
ATOM     11  N   UNL     1      45.028   2.166   9.342  0.00  0.00    +0.000 NA
ATOM     12  C   UNL     1      45.915   1.779   8.404  0.00  0.00    +0.000 A 
ATOM     13  C   UNL     1      46.521   2.645   7.524  0.00  0.00    +0.000 A 
ATOM     14  C   UNL     1      46.170   3.968   7.657  0.00  0.00    +0.000 A 
ATOM     15  N   UNL     1      45.288   4.416   8.572  0.00  0.00    +0.000 NA
ENDBRANCH   9  10
BRANCH   9  16
ATOM     16  O   UNL     1      43.467   5.378  10.215  0.00  0.00    +0.000 OA
ATOM     17  H   UNL     1      43.342   5.519   9.254  0.00  0.00    +0.000 HD
ENDBRANCH   9  16
ENDBRANCH   8   9
ENDBRANCH   5   8
ENDBRANCH   1   2
BRANCH   1  20
ATOM     18  O   UNL     1      50.316   6.215  15.918  0.00  0.00    +0.000 OA
ATOM     19  C   UNL     1      49.251   6.781  16.112  0.00  0.00    +0.000 C 
ATOM     20  N   UNL     1      48.388   7.188  15.125  0.00  0.00    +0.000 N 
ATOM     21  H   UNL     1      47.447   7.447  15.380  0.00  0.00    +0.000 HD
BRANCH  19  22
ATOM     22  C   UNL     1      48.637   6.913  17.432  0.00  0.00    +0.000 A 
ATOM     23  C   UNL     1      48.307   8.138  17.978  0.00  0.00    +0.000 A 
ATOM     24  S   UNL     1      48.132   8.037  19.684  0.00  0.00    +0.000 S 
ATOM     25  C   UNL     1      48.366   6.348  19.666  0.00  0.00    +0.000 A 
ATOM     26  N   UNL     1      48.490   5.613  20.803  0.00  0.00    +0.000 NA
ATOM     27  C   UNL     1      48.619   4.342  20.601  0.00  0.00    +0.000 A 
ATOM     28  N   UNL     1      48.580   3.730  19.370  0.00  0.00    +0.000 N 
ATOM     29  C   UNL     1      48.417   4.428  18.198  0.00  0.00    +0.000 A 
ATOM     30  O   UNL     1      48.261   3.868  17.121  0.00  0.00    +0.000 OA
ATOM     31  C   UNL     1      48.422   5.866  18.377  0.00  0.00    +0.000 A 
ATOM     32  H   UNL     1      48.586   2.725  19.285  0.00  0.00    +0.000 HD
ENDBRANCH  19  22
ENDBRANCH   1  20
TORSDOF 7
ENDMDL
MODEL 4
REMARK VINA RESULT:    -7.044      2.092      3.726
REMARK INTER + INTRA:         -10.909
REMARK INTER:                 -10.437
REMARK INTRA:                  -0.471
REMARK UNBOUND:                -1.188
REMARK  Name = 
REMARK  7 active torsions:
REMARK  status: ('A' for Active; 'I' for Inactive)
REMARK    1  A    between atoms: C_2  and  C_20
REMARK    2  A    between atoms: N_3  and  C_4
REMARK    3  A    between atoms: C_4  and  C_5
REMARK    4  A    between atoms: C_8  and  C_9
REMARK    5  A    between atoms: C_9  and  C_10
REMARK    6  A    between atoms: C_10  and  O_11
REMARK    7  A    between atoms: C_10  and  C_12
REMARK                            x       y       z     vdW  Elec       q    Type
REMARK                         _______ _______ _______ _____ _____    ______ ____
ROOT
ATOM      1  C   UNL     1      46.759   4.784  15.069  0.00  0.00    +0.000 C 
ENDROOT
BRANCH   1   2
ATOM      2  C   UNL     1      46.049   4.527  13.755  0.00  0.00    +0.000 A 
ATOM      3  N   UNL     1      46.178   3.310  13.203  0.00  0.00    +0.000 NA
ATOM      4  C   UNL     1      45.549   3.103  12.028  0.00  0.00    +0.000 A 
ATOM      5  C   UNL     1      44.811   4.062  11.364  0.00  0.00    +0.000 A 
ATOM      6  C   UNL     1      44.789   5.292  11.995  0.00  0.00    +0.000 A 
ATOM      7  N   UNL     1      45.405   5.558  13.167  0.00  0.00    +0.000 NA
BRANCH   5   8
ATOM      8  C   UNL     1      44.043   3.836  10.085  0.00  0.00    +0.000 C 
BRANCH   8   9
ATOM      9  C   UNL     1      44.678   4.393   8.800  0.00  0.00    +0.000 C 
BRANCH   9  10
ATOM     10  C   UNL     1      45.590   3.360   8.155  0.00  0.00    +0.000 A 
ATOM     11  N   UNL     1      46.457   3.771   7.209  0.00  0.00    +0.000 NA
ATOM     12  C   UNL     1      47.291   2.834   6.717  0.00  0.00    +0.000 A 
ATOM     13  C   UNL     1      47.282   1.519   7.119  0.00  0.00    +0.000 A 
ATOM     14  C   UNL     1      46.348   1.197   8.074  0.00  0.00    +0.000 A 
ATOM     15  N   UNL     1      45.490   2.089   8.607  0.00  0.00    +0.000 NA
ENDBRANCH   9  10
BRANCH   9  16
ATOM     16  O   UNL     1      45.425   5.578   9.135  0.00  0.00    +0.000 OA
ATOM     17  H   UNL     1      44.860   6.073   9.763  0.00  0.00    +0.000 HD
ENDBRANCH   9  16
ENDBRANCH   8   9
ENDBRANCH   5   8
ENDBRANCH   1   2
BRANCH   1  20
ATOM     18  O   UNL     1      49.198   5.167  16.508  0.00  0.00    +0.000 OA
ATOM     19  C   UNL     1      48.767   6.040  15.769  0.00  0.00    +0.000 C 
ATOM     20  N   UNL     1      47.656   5.914  14.972  0.00  0.00    +0.000 N 
ATOM     21  H   UNL     1      47.254   6.745  14.567  0.00  0.00    +0.000 HD
BRANCH  19  22
ATOM     22  C   UNL     1      49.244   7.420  15.789  0.00  0.00    +0.000 A 
ATOM     23  C   UNL     1      49.620   8.060  16.954  0.00  0.00    +0.000 A 
ATOM     24  S   UNL     1      49.601   9.767  16.767  0.00  0.00    +0.000 S 
ATOM     25  C   UNL     1      49.221   9.639  15.109  0.00  0.00    +0.000 A 
ATOM     26  N   UNL     1      48.910  10.718  14.342  0.00  0.00    +0.000 NA
ATOM     27  C   UNL     1      48.691  10.439  13.098  0.00  0.00    +0.000 A 
ATOM     28  N   UNL     1      48.809   9.189  12.537  0.00  0.00    +0.000 N 
ATOM     29  C   UNL     1      49.159   8.078  13.264  0.00  0.00    +0.000 A 
ATOM     30  O   UNL     1      49.380   6.996  12.737  0.00  0.00    +0.000 OA
ATOM     31  C   UNL     1      49.262   8.328  14.688  0.00  0.00    +0.000 A 
ATOM     32  H   UNL     1      48.723   9.053  11.542  0.00  0.00    +0.000 HD
ENDBRANCH  19  22
ENDBRANCH   1  20
TORSDOF 7
ENDMDL
MODEL 5
REMARK VINA RESULT:    -7.013      2.078      2.610
REMARK INTER + INTRA:         -10.866
REMARK INTER:                 -10.637
REMARK INTRA:                  -0.230
REMARK UNBOUND:                -1.188
REMARK  Name = 
REMARK  7 active torsions:
REMARK  status: ('A' for Active; 'I' for Inactive)
REMARK    1  A    between atoms: C_2  and  C_20
REMARK    2  A    between atoms: N_3  and  C_4
REMARK    3  A    between atoms: C_4  and  C_5
REMARK    4  A    between atoms: C_8  and  C_9
REMARK    5  A    between atoms: C_9  and  C_10
REMARK    6  A    between atoms: C_10  and  O_11
REMARK    7  A    between atoms: C_10  and  C_12
REMARK                            x       y       z     vdW  Elec       q    Type
REMARK                         _______ _______ _______ _____ _____    ______ ____
ROOT
ATOM      1  C   UNL     1      48.167   6.442  14.558  0.00  0.00    +0.000 C 
ENDROOT
BRANCH   1   2
ATOM      2  C   UNL     1      47.083   5.682  13.821  0.00  0.00    +0.000 A 
ATOM      3  N   UNL     1      47.241   4.357  13.670  0.00  0.00    +0.000 NA
ATOM      4  C   UNL     1      46.272   3.699  13.002  0.00  0.00    +0.000 A 
ATOM      5  C   UNL     1      45.158   4.304  12.455  0.00  0.00    +0.000 A 
ATOM      6  C   UNL     1      45.125   5.676  12.623  0.00  0.00    +0.000 A 
ATOM      7  N   UNL     1      46.068   6.388  13.277  0.00  0.00    +0.000 NA
BRANCH   5   8
ATOM      8  C   UNL     1      44.028   3.582  11.764  0.00  0.00    +0.000 C 
BRANCH   8   9
ATOM      9  C   UNL     1      43.712   4.029  10.326  0.00  0.00    +0.000 C 
BRANCH   9  10
ATOM     10  C   UNL     1      44.751   3.497   9.352  0.00  0.00    +0.000 A 
ATOM     11  N   UNL     1      45.050   2.183   9.386  0.00  0.00    +0.000 NA
ATOM     12  C   UNL     1      45.926   1.747   8.459  0.00  0.00    +0.000 A 
ATOM     13  C   UNL     1      46.514   2.563   7.522  0.00  0.00    +0.000 A 
ATOM     14  C   UNL     1      46.158   3.890   7.583  0.00  0.00    +0.000 A 
ATOM     15  N   UNL     1      45.286   4.385   8.483  0.00  0.00    +0.000 NA
ENDBRANCH   9  10
BRANCH   9  16
ATOM     16  O   UNL     1      43.685   5.469  10.290  0.00  0.00    +0.000 OA
ATOM     17  H   UNL     1      44.532   5.734   9.876  0.00  0.00    +0.000 HD
ENDBRANCH   9  16
ENDBRANCH   8   9
ENDBRANCH   5   8
ENDBRANCH   1   2
BRANCH   1  20
ATOM     18  O   UNL     1      48.476   7.279  17.273  0.00  0.00    +0.000 OA
ATOM     19  C   UNL     1      48.886   6.188  16.908  0.00  0.00    +0.000 C 
ATOM     20  N   UNL     1      48.706   5.663  15.652  0.00  0.00    +0.000 N 
ATOM     21  H   UNL     1      49.257   4.865  15.377  0.00  0.00    +0.000 HD
BRANCH  19  22
ATOM     22  C   UNL     1      49.816   5.374  17.687  0.00  0.00    +0.000 A 
ATOM     23  C   UNL     1      50.765   5.927  18.525  0.00  0.00    +0.000 A 
ATOM     24  S   UNL     1      52.028   4.814  18.863  0.00  0.00    +0.000 S 
ATOM     25  C   UNL     1      51.240   3.570  18.002  0.00  0.00    +0.000 A 
ATOM     26  N   UNL     1      51.824   2.368  17.752  0.00  0.00    +0.000 NA
ATOM     27  C   UNL     1      51.064   1.530  17.125  0.00  0.00    +0.000 A 
ATOM     28  N   UNL     1      49.756   1.762  16.772  0.00  0.00    +0.000 N 
ATOM     29  C   UNL     1      49.113   2.946  17.039  0.00  0.00    +0.000 A 
ATOM     30  O   UNL     1      47.917   3.100  16.833  0.00  0.00    +0.000 OA
ATOM     31  C   UNL     1      49.980   3.960  17.605  0.00  0.00    +0.000 A 
ATOM     32  H   UNL     1      49.185   1.033  16.373  0.00  0.00    +0.000 HD
ENDBRANCH  19  22
ENDBRANCH   1  20
TORSDOF 7
ENDMDL
MODEL 6
REMARK VINA RESULT:    -6.980      1.964      2.635
REMARK INTER + INTRA:         -10.820
REMARK INTER:                  -9.938
REMARK INTRA:                  -0.882
REMARK UNBOUND:                -1.188
REMARK  Name = 
REMARK  7 active torsions:
REMARK  status: ('A' for Active; 'I' for Inactive)
REMARK    1  A    between atoms: C_2  and  C_20
REMARK    2  A    between atoms: N_3  and  C_4
REMARK    3  A    between atoms: C_4  and  C_5
REMARK    4  A    between atoms: C_8  and  C_9
REMARK    5  A    between atoms: C_9  and  C_10
REMARK    6  A    between atoms: C_10  and  O_11
REMARK    7  A    between atoms: C_10  and  C_12
REMARK                            x       y       z     vdW  Elec       q    Type
REMARK                         _______ _______ _______ _____ _____    ______ ____
ROOT
ATOM      1  C   UNL     1      47.753   7.805  13.637  0.00  0.00    +0.000 C 
ENDROOT
BRANCH   1   2
ATOM      2  C   UNL     1      46.839   6.923  12.811  0.00  0.00    +0.000 A 
ATOM      3  N   UNL     1      46.083   7.514  11.871  0.00  0.00    +0.000 NA
ATOM      4  C   UNL     1      45.268   6.715  11.153  0.00  0.00    +0.000 A 
ATOM      5  C   UNL     1      45.154   5.352  11.341  0.00  0.00    +0.000 A 
ATOM      6  C   UNL     1      45.936   4.859  12.369  0.00  0.00    +0.000 A 
ATOM      7  N   UNL     1      46.765   5.611  13.124  0.00  0.00    +0.000 NA
BRANCH   5   8
ATOM      8  C   UNL     1      44.301   4.428  10.507  0.00  0.00    +0.000 C 
BRANCH   8   9
ATOM      9  C   UNL     1      44.801   2.980  10.366  0.00  0.00    +0.000 C 
BRANCH   9  10
ATOM     10  C   UNL     1      45.502   2.775   9.033  0.00  0.00    +0.000 A 
ATOM     11  N   UNL     1      45.682   3.844   8.231  0.00  0.00    +0.000 NA
ATOM     12  C   UNL     1      46.368   3.626   7.092  0.00  0.00    +0.000 A 
ATOM     13  C   UNL     1      46.864   2.398   6.724  0.00  0.00    +0.000 A 
ATOM     14  C   UNL     1      46.613   1.369   7.600  0.00  0.00    +0.000 A 
ATOM     15  N   UNL     1      45.936   1.524   8.755  0.00  0.00    +0.000 NA
ENDBRANCH   9  10
BRANCH   9  16
ATOM     16  O   UNL     1      43.670   2.093  10.476  0.00  0.00    +0.000 OA
ATOM     17  H   UNL     1      43.919   1.291   9.972  0.00  0.00    +0.000 HD
ENDBRANCH   9  16
ENDBRANCH   8   9
ENDBRANCH   5   8
ENDBRANCH   1   2
BRANCH   1  20
ATOM     18  O   UNL     1      50.085   6.817  14.961  0.00  0.00    +0.000 OA
ATOM     19  C   UNL     1      49.000   6.806  15.521  0.00  0.00    +0.000 C 
ATOM     20  N   UNL     1      47.844   7.337  15.003  0.00  0.00    +0.000 N 
ATOM     21  H   UNL     1      46.965   7.093  15.430  0.00  0.00    +0.000 HD
BRANCH  19  22
ATOM     22  C   UNL     1      48.724   6.032  16.729  0.00  0.00    +0.000 A 
ATOM     23  C   UNL     1      48.401   4.689  16.693  0.00  0.00    +0.000 A 
ATOM     24  S   UNL     1      47.614   4.195  18.138  0.00  0.00    +0.000 S 
ATOM     25  C   UNL     1      47.826   5.732  18.847  0.00  0.00    +0.000 A 
ATOM     26  N   UNL     1      47.264   6.074  20.037  0.00  0.00    +0.000 NA
ATOM     27  C   UNL     1      47.567   7.264  20.443  0.00  0.00    +0.000 A 
ATOM     28  N   UNL     1      48.425   8.124  19.798  0.00  0.00    +0.000 N 
ATOM     29  C   UNL     1      49.046   7.806  18.616  0.00  0.00    +0.000 A 
ATOM     30  O   UNL     1      49.899   8.524  18.112  0.00  0.00    +0.000 OA
ATOM     31  C   UNL     1      48.611   6.541  18.056  0.00  0.00    +0.000 A 
ATOM     32  H   UNL     1      48.698   9.000  20.216  0.00  0.00    +0.000 HD
ENDBRANCH  19  22
ENDBRANCH   1  20
TORSDOF 7
ENDMDL
MODEL 7
REMARK VINA RESULT:    -6.859      3.313      8.375
REMARK INTER + INTRA:         -10.653
REMARK INTER:                  -9.833
REMARK INTRA:                  -0.819
REMARK UNBOUND:                -1.188
REMARK  Name = 
REMARK  7 active torsions:
REMARK  status: ('A' for Active; 'I' for Inactive)
REMARK    1  A    between atoms: C_2  and  C_20
REMARK    2  A    between atoms: N_3  and  C_4
REMARK    3  A    between atoms: C_4  and  C_5
REMARK    4  A    between atoms: C_8  and  C_9
REMARK    5  A    between atoms: C_9  and  C_10
REMARK    6  A    between atoms: C_10  and  O_11
REMARK    7  A    between atoms: C_10  and  C_12
REMARK                            x       y       z     vdW  Elec       q    Type
REMARK                         _______ _______ _______ _____ _____    ______ ____
ROOT
ATOM      1  C   UNL     1      47.501   6.512  13.363  0.00  0.00    +0.000 C 
ENDROOT
BRANCH   1   2
ATOM      2  C   UNL     1      47.923   5.844  14.656  0.00  0.00    +0.000 A 
ATOM      3  N   UNL     1      47.304   4.704  15.002  0.00  0.00    +0.000 NA
ATOM      4  C   UNL     1      47.685   4.130  16.161  0.00  0.00    +0.000 A 
ATOM      5  C   UNL     1      48.643   4.651  17.007  0.00  0.00    +0.000 A 
ATOM      6  C   UNL     1      49.176   5.853  16.580  0.00  0.00    +0.000 A 
ATOM      7  N   UNL     1      48.829   6.477  15.434  0.00  0.00    +0.000 NA
BRANCH   5   8
ATOM      8  C   UNL     1      49.135   3.994  18.273  0.00  0.00    +0.000 C 
BRANCH   8   9
ATOM      9  C   UNL     1      50.574   4.328  18.701  0.00  0.00    +0.000 C 
BRANCH   9  10
ATOM     10  C   UNL     1      51.528   3.207  18.315  0.00  0.00    +0.000 A 
ATOM     11  N   UNL     1      52.804   3.275  18.742  0.00  0.00    +0.000 NA
ATOM     12  C   UNL     1      53.593   2.227  18.433  0.00  0.00    +0.000 A 
ATOM     13  C   UNL     1      53.163   1.136  17.715  0.00  0.00    +0.000 A 
ATOM     14  C   UNL     1      51.850   1.171  17.310  0.00  0.00    +0.000 A 
ATOM     15  N   UNL     1      51.012   2.188  17.590  0.00  0.00    +0.000 NA
ENDBRANCH   9  10
BRANCH   9  16
ATOM     16  O   UNL     1      50.592   4.529  20.128  0.00  0.00    +0.000 OA
ATOM     17  H   UNL     1      51.267   5.220  20.284  0.00  0.00    +0.000 HD
ENDBRANCH   9  16
ENDBRANCH   8   9
ENDBRANCH   5   8
ENDBRANCH   1   2
BRANCH   1  20
ATOM     18  O   UNL     1      45.574   7.229  11.378  0.00  0.00    +0.000 OA
ATOM     19  C   UNL     1      45.772   6.056  11.659  0.00  0.00    +0.000 C 
ATOM     20  N   UNL     1      46.735   5.611  12.530  0.00  0.00    +0.000 N 
ATOM     21  H   UNL     1      46.684   4.660  12.863  0.00  0.00    +0.000 HD
BRANCH  19  22
ATOM     22  C   UNL     1      44.871   4.972  11.274  0.00  0.00    +0.000 A 
ATOM     23  C   UNL     1      43.877   4.501  12.110  0.00  0.00    +0.000 A 
ATOM     24  S   UNL     1      43.364   2.928  11.649  0.00  0.00    +0.000 S 
ATOM     25  C   UNL     1      44.371   2.940  10.273  0.00  0.00    +0.000 A 
ATOM     26  N   UNL     1      44.551   1.846   9.486  0.00  0.00    +0.000 NA
ATOM     27  C   UNL     1      45.313   2.049   8.461  0.00  0.00    +0.000 A 
ATOM     28  N   UNL     1      45.869   3.259   8.119  0.00  0.00    +0.000 N 
ATOM     29  C   UNL     1      45.682   4.399   8.861  0.00  0.00    +0.000 A 
ATOM     30  O   UNL     1      46.077   5.495   8.485  0.00  0.00    +0.000 OA
ATOM     31  C   UNL     1      44.959   4.173  10.096  0.00  0.00    +0.000 A 
ATOM     32  H   UNL     1      46.373   3.376   7.253  0.00  0.00    +0.000 HD
ENDBRANCH  19  22
ENDBRANCH   1  20
TORSDOF 7
ENDMDL
MODEL 8
REMARK VINA RESULT:    -6.721      2.224      2.923
REMARK INTER + INTRA:         -10.463
REMARK INTER:                  -9.632
REMARK INTRA:                  -0.831
REMARK UNBOUND:                -1.188
REMARK  Name = 
REMARK  7 active torsions:
REMARK  status: ('A' for Active; 'I' for Inactive)
REMARK    1  A    between atoms: C_2  and  C_20
REMARK    2  A    between atoms: N_3  and  C_4
REMARK    3  A    between atoms: C_4  and  C_5
REMARK    4  A    between atoms: C_8  and  C_9
REMARK    5  A    between atoms: C_9  and  C_10
REMARK    6  A    between atoms: C_10  and  O_11
REMARK    7  A    between atoms: C_10  and  C_12
REMARK                            x       y       z     vdW  Elec       q    Type
REMARK                         _______ _______ _______ _____ _____    ______ ____
ROOT
ATOM      1  C   UNL     1      48.947   7.766  15.781  0.00  0.00    +0.000 C 
ENDROOT
BRANCH   1   2
ATOM      2  C   UNL     1      48.220   7.417  14.498  0.00  0.00    +0.000 A 
ATOM      3  N   UNL     1      47.505   8.384  13.901  0.00  0.00    +0.000 NA
ATOM      4  C   UNL     1      46.856   8.052  12.767  0.00  0.00    +0.000 A 
ATOM      5  C   UNL     1      46.869   6.790  12.207  0.00  0.00    +0.000 A 
ATOM      6  C   UNL     1      47.591   5.861  12.932  0.00  0.00    +0.000 A 
ATOM      7  N   UNL     1      48.254   6.134  14.076  0.00  0.00    +0.000 NA
BRANCH   5   8
ATOM      8  C   UNL     1      46.208   6.412  10.905  0.00  0.00    +0.000 C 
BRANCH   8   9
ATOM      9  C   UNL     1      45.114   5.333  10.983  0.00  0.00    +0.000 C 
BRANCH   9  10
ATOM     10  C   UNL     1      45.258   4.332   9.847  0.00  0.00    +0.000 A 
ATOM     11  N   UNL     1      45.741   4.765   8.667  0.00  0.00    +0.000 NA
ATOM     12  C   UNL     1      45.915   3.829   7.713  0.00  0.00    +0.000 A 
ATOM     13  C   UNL     1      45.618   2.498   7.889  0.00  0.00    +0.000 A 
ATOM     14  C   UNL     1      45.113   2.160   9.122  0.00  0.00    +0.000 A 
ATOM     15  N   UNL     1      44.920   3.049  10.116  0.00  0.00    +0.000 NA
ENDBRANCH   9  10
BRANCH   9  16
ATOM     16  O   UNL     1      43.828   5.980  10.917  0.00  0.00    +0.000 OA
ATOM     17  H   UNL     1      43.176   5.287  11.149  0.00  0.00    +0.000 HD
ENDBRANCH   9  16
ENDBRANCH   8   9
ENDBRANCH   5   8
ENDBRANCH   1   2
BRANCH   1  20
ATOM     18  O   UNL     1      48.018   6.337  18.075  0.00  0.00    +0.000 OA
ATOM     19  C   UNL     1      49.069   6.030  17.534  0.00  0.00    +0.000 C 
ATOM     20  N   UNL     1      49.552   6.597  16.380  0.00  0.00    +0.000 N 
ATOM     21  H   UNL     1      50.515   6.438  16.129  0.00  0.00    +0.000 HD
BRANCH  19  22
ATOM     22  C   UNL     1      50.072   5.167  18.153  0.00  0.00    +0.000 A 
ATOM     23  C   UNL     1      51.066   5.657  18.979  0.00  0.00    +0.000 A 
ATOM     24  S   UNL     1      52.376   4.554  19.105  0.00  0.00    +0.000 S 
ATOM     25  C   UNL     1      51.559   3.386  18.169  0.00  0.00    +0.000 A 
ATOM     26  N   UNL     1      52.152   2.236  17.749  0.00  0.00    +0.000 NA
ATOM     27  C   UNL     1      51.369   1.447  17.088  0.00  0.00    +0.000 A 
ATOM     28  N   UNL     1      50.033   1.674  16.854  0.00  0.00    +0.000 N 
ATOM     29  C   UNL     1      49.383   2.801  17.293  0.00  0.00    +0.000 A 
ATOM     30  O   UNL     1      48.172   2.939  17.188  0.00  0.00    +0.000 OA
ATOM     31  C   UNL     1      50.264   3.775  17.905  0.00  0.00    +0.000 A 
ATOM     32  H   UNL     1      49.453   0.974  16.418  0.00  0.00    +0.000 HD
ENDBRANCH  19  22
ENDBRANCH   1  20
TORSDOF 7
ENDMDL
MODEL 9
REMARK VINA RESULT:    -6.690      3.167      8.815
REMARK INTER + INTRA:         -10.421
REMARK INTER:                  -9.541
REMARK INTRA:                  -0.879
REMARK UNBOUND:                -1.188
REMARK  Name = 
REMARK  7 active torsions:
REMARK  status: ('A' for Active; 'I' for Inactive)
REMARK    1  A    between atoms: C_2  and  C_20
REMARK    2  A    between atoms: N_3  and  C_4
REMARK    3  A    between atoms: C_4  and  C_5
REMARK    4  A    between atoms: C_8  and  C_9
REMARK    5  A    between atoms: C_9  and  C_10
REMARK    6  A    between atoms: C_10  and  O_11
REMARK    7  A    between atoms: C_10  and  C_12
REMARK                            x       y       z     vdW  Elec       q    Type
REMARK                         _______ _______ _______ _____ _____    ______ ____
ROOT
ATOM      1  C   UNL     1      47.574   6.602  13.091  0.00  0.00    +0.000 C 
ENDROOT
BRANCH   1   2
ATOM      2  C   UNL     1      47.951   5.957  14.409  0.00  0.00    +0.000 A 
ATOM      3  N   UNL     1      47.287   4.848  14.774  0.00  0.00    +0.000 NA
ATOM      4  C   UNL     1      47.627   4.293  15.955  0.00  0.00    +0.000 A 
ATOM      5  C   UNL     1      48.589   4.805  16.803  0.00  0.00    +0.000 A 
ATOM      6  C   UNL     1      49.170   5.975  16.354  0.00  0.00    +0.000 A 
ATOM      7  N   UNL     1      48.865   6.579  15.185  0.00  0.00    +0.000 NA
BRANCH   5   8
ATOM      8  C   UNL     1      49.035   4.166  18.095  0.00  0.00    +0.000 C 
BRANCH   8   9
ATOM      9  C   UNL     1      48.135   4.402  19.320  0.00  0.00    +0.000 C 
BRANCH   9  10
ATOM     10  C   UNL     1      48.414   5.761  19.944  0.00  0.00    +0.000 A 
ATOM     11  N   UNL     1      49.590   5.949  20.573  0.00  0.00    +0.000 NA
ATOM     12  C   UNL     1      49.820   7.188  21.050  0.00  0.00    +0.000 A 
ATOM     13  C   UNL     1      48.927   8.227  20.934  0.00  0.00    +0.000 A 
ATOM     14  C   UNL     1      47.749   7.928  20.291  0.00  0.00    +0.000 A 
ATOM     15  N   UNL     1      47.462   6.711  19.790  0.00  0.00    +0.000 NA
ENDBRANCH   9  10
BRANCH   9  16
ATOM     16  O   UNL     1      48.381   3.354  20.277  0.00  0.00    +0.000 OA
ATOM     17  H   UNL     1      48.143   2.522  19.819  0.00  0.00    +0.000 HD
ENDBRANCH   9  16
ENDBRANCH   8   9
ENDBRANCH   5   8
ENDBRANCH   1   2
BRANCH   1  20
ATOM     18  O   UNL     1      45.347   7.312  11.447  0.00  0.00    +0.000 OA
ATOM     19  C   UNL     1      45.673   6.143  11.582  0.00  0.00    +0.000 C 
ATOM     20  N   UNL     1      46.776   5.712  12.276  0.00  0.00    +0.000 N 
ATOM     21  H   UNL     1      46.846   4.735  12.517  0.00  0.00    +0.000 HD
BRANCH  19  22
ATOM     22  C   UNL     1      44.817   5.019  11.210  0.00  0.00    +0.000 A 
ATOM     23  C   UNL     1      43.805   4.553  12.027  0.00  0.00    +0.000 A 
ATOM     24  S   UNL     1      43.353   2.949  11.612  0.00  0.00    +0.000 S 
ATOM     25  C   UNL     1      44.409   2.936  10.273  0.00  0.00    +0.000 A 
ATOM     26  N   UNL     1      44.648   1.817   9.538  0.00  0.00    +0.000 NA
ATOM     27  C   UNL     1      45.443   2.002   8.534  0.00  0.00    +0.000 A 
ATOM     28  N   UNL     1      45.977   3.213   8.163  0.00  0.00    +0.000 N 
ATOM     29  C   UNL     1      45.732   4.376   8.852  0.00  0.00    +0.000 A 
ATOM     30  O   UNL     1      46.111   5.467   8.447  0.00  0.00    +0.000 OA
ATOM     31  C   UNL     1      44.970   4.177  10.068  0.00  0.00    +0.000 A 
ATOM     32  H   UNL     1      46.510   3.311   7.312  0.00  0.00    +0.000 HD
ENDBRANCH  19  22
ENDBRANCH   1  20
TORSDOF 7
ENDMDL
