MODEL 1
REMARK VINA RESULT:    -8.366      0.000      0.000
REMARK INTER + INTRA:         -13.130
REMARK INTER:                 -11.789
REMARK INTRA:                  -1.341
REMARK UNBOUND:                -1.341
REMARK  Name = 
REMARK  10 active torsions:
REMARK  status: ('A' for Active; 'I' for Inactive)
REMARK    1  A    between atoms: C_1  and  C_2
REMARK    2  A    between atoms: C_6  and  C_7
REMARK    3  A    between atoms: C_7  and  N_8
REMARK    4  A    between atoms: N_8  and  C_9
REMARK    5  A    between atoms: C_9  and  C_10
REMARK    6  A    between atoms: C_9  and  C_11
REMARK    7  A    between atoms: C_9  and  C_12
REMARK    8  A    between atoms: C_15  and  C_16
REMARK    9  A    between atoms: C_16  and  N_17
REMARK   10  A    between atoms: C_18  and  C_20
REMARK                            x       y       z     vdW  Elec       q    Type
REMARK                         _______ _______ _______ _____ _____    ______ ____
ROOT
ATOM      1  C   UNL     1      45.060   5.647  12.046  0.00  0.00    +0.000 A 
ATOM      2  C   UNL     1      45.798   6.629  11.384  0.00  0.00    +0.000 A 
ATOM      3  C   UNL     1      47.078   6.951  11.827  0.00  0.00    +0.000 A 
ATOM      4  C   UNL     1      47.580   6.347  12.975  0.00  0.00    +0.000 A 
ATOM      5  C   UNL     1      46.748   5.455  13.636  0.00  0.00    +0.000 A 
ATOM      6  N   UNL     1      45.527   5.080  13.190  0.00  0.00    +0.000 NA
ENDROOT
BRANCH   1   7
ATOM      7  C   UNL     1      43.690   5.154  11.532  0.00  0.00    +0.000 C 
ATOM      8  C   UNL     1      43.066   4.172  12.552  0.00  0.00    +0.000 C 
ATOM      9  C   UNL     1      42.760   6.386  11.444  0.00  0.00    +0.000 C 
BRANCH   7  10
ATOM     10  N   UNL     1      43.704   4.562  10.167  0.00  0.00    +0.000 NA
ATOM     11  H   UNL     1      42.746   4.546   9.813  0.00  0.00    +0.000 HD
BRANCH  10  12
ATOM     12  C   UNL     1      44.200   3.178  10.090  0.00  0.00    +0.000 C 
BRANCH  12  18
ATOM     13  C   UNL     1      46.874   0.041   7.564  0.00  0.00    +0.000 C 
ATOM     14  C   UNL     1      46.474   1.471   7.749  0.00  0.00    +0.000 A 
ATOM     15  C   UNL     1      47.021   2.488   6.978  0.00  0.00    +0.000 A 
ATOM     16  C   UNL     1      46.620   3.799   7.222  0.00  0.00    +0.000 A 
ATOM     17  C   UNL     1      45.690   4.052   8.226  0.00  0.00    +0.000 A 
ATOM     18  C   UNL     1      45.183   2.981   8.954  0.00  0.00    +0.000 A 
ATOM     19  N   UNL     1      45.565   1.701   8.720  0.00  0.00    +0.000 NA
ENDBRANCH  12  18
ENDBRANCH  10  12
ENDBRANCH   7  10
ENDBRANCH   1   7
BRANCH   4  20
ATOM     20  C   UNL     1      48.924   6.711  13.520  0.00  0.00    +0.000 C 
BRANCH  20  21
ATOM     21  N   UNL     1      48.886   6.751  14.959  0.00  0.00    +0.000 N 
ATOM     22  C   UNL     1      49.989   7.089  15.694  0.00  0.00    +0.000 C 
ATOM     23  O   UNL     1      51.044   7.424  15.161  0.00  0.00    +0.000 OA
ATOM     24  H   UNL     1      48.099   6.297  15.414  0.00  0.00    +0.000 HD
BRANCH  22  25
ATOM     25  C   UNL     1      49.829   7.086  17.152  0.00  0.00    +0.000 A 
ATOM     26  C   UNL     1      50.040   8.259  17.864  0.00  0.00    +0.000 A 
ATOM     27  S   UNL     1      49.771   8.099  19.539  0.00  0.00    +0.000 S 
ATOM     28  C   UNL     1      49.409   6.444  19.381  0.00  0.00    +0.000 A 
ATOM     29  N   UNL     1      49.104   5.688  20.469  0.00  0.00    +0.000 NA
ATOM     30  C   UNL     1      48.883   4.443  20.208  0.00  0.00    +0.000 A 
ATOM     31  N   UNL     1      48.930   3.886  18.955  0.00  0.00    +0.000 N 
ATOM     32  C   UNL     1      49.197   4.619  17.826  0.00  0.00    +0.000 A 
ATOM     33  O   UNL     1      49.185   4.103  16.710  0.00  0.00    +0.000 OA
ATOM     34  C   UNL     1      49.474   6.024  18.065  0.00  0.00    +0.000 A 
ATOM     35  H   UNL     1      48.734   2.906  18.819  0.00  0.00    +0.000 HD
ENDBRANCH  22  25
ENDBRANCH  20  21
ENDBRANCH   4  20
TORSDOF 7
ENDMDL
MODEL 2
REMARK VINA RESULT:    -8.136      1.738      2.386
REMARK INTER + INTRA:         -12.807
REMARK INTER:                 -11.766
REMARK INTRA:                  -1.040
REMARK UNBOUND:                -1.341
REMARK  Name = 
REMARK  10 active torsions:
REMARK  status: ('A' for Active; 'I' for Inactive)
REMARK    1  A    between atoms: C_1  and  C_2
REMARK    2  A    between atoms: C_6  and  C_7
REMARK    3  A    between atoms: C_7  and  N_8
REMARK    4  A    between atoms: N_8  and  C_9
REMARK    5  A    between atoms: C_9  and  C_10
REMARK    6  A    between atoms: C_9  and  C_11
REMARK    7  A    between atoms: C_9  and  C_12
REMARK    8  A    between atoms: C_15  and  C_16
REMARK    9  A    between atoms: C_16  and  N_17
REMARK   10  A    between atoms: C_18  and  C_20
REMARK                            x       y       z     vdW  Elec       q    Type
REMARK                         _______ _______ _______ _____ _____    ______ ____
ROOT
ATOM      1  C   UNL     1      44.801   5.252  12.088  0.00  0.00    +0.000 A 
ATOM      2  C   UNL     1      45.007   6.621  12.261  0.00  0.00    +0.000 A 
ATOM      3  C   UNL     1      46.169   7.075  12.879  0.00  0.00    +0.000 A 
ATOM      4  C   UNL     1      47.079   6.155  13.391  0.00  0.00    +0.000 A 
ATOM      5  C   UNL     1      46.757   4.811  13.270  0.00  0.00    +0.000 A 
ATOM      6  N   UNL     1      45.666   4.346  12.619  0.00  0.00    +0.000 NA
ENDROOT
BRANCH   1   7
ATOM      7  C   UNL     1      43.599   4.688  11.301  0.00  0.00    +0.000 C 
ATOM      8  C   UNL     1      43.293   3.244  11.764  0.00  0.00    +0.000 C 
ATOM      9  C   UNL     1      42.370   5.558  11.651  0.00  0.00    +0.000 C 
BRANCH   7  10
ATOM     10  N   UNL     1      43.728   4.753   9.819  0.00  0.00    +0.000 NA
ATOM     11  H   UNL     1      43.382   3.876   9.427  0.00  0.00    +0.000 HD
BRANCH  10  12
ATOM     12  C   UNL     1      45.102   4.921   9.319  0.00  0.00    +0.000 C 
BRANCH  12  18
ATOM     13  C   UNL     1      47.152   3.117   5.328  0.00  0.00    +0.000 C 
ATOM     14  C   UNL     1      46.585   2.820   6.681  0.00  0.00    +0.000 A 
ATOM     15  C   UNL     1      46.494   1.522   7.165  0.00  0.00    +0.000 A 
ATOM     16  C   UNL     1      45.932   1.318   8.422  0.00  0.00    +0.000 A 
ATOM     17  C   UNL     1      45.479   2.412   9.154  0.00  0.00    +0.000 A 
ATOM     18  C   UNL     1      45.609   3.683   8.604  0.00  0.00    +0.000 A 
ATOM     19  N   UNL     1      46.158   3.892   7.382  0.00  0.00    +0.000 NA
ENDBRANCH  12  18
ENDBRANCH  10  12
ENDBRANCH   7  10
ENDBRANCH   1   7
BRANCH   4  20
ATOM     20  C   UNL     1      48.308   6.601  14.118  0.00  0.00    +0.000 C 
BRANCH  20  21
ATOM     21  N   UNL     1      48.132   6.445  15.538  0.00  0.00    +0.000 N 
ATOM     22  C   UNL     1      49.199   6.254  16.373  0.00  0.00    +0.000 C 
ATOM     23  O   UNL     1      50.355   6.260  15.958  0.00  0.00    +0.000 OA
ATOM     24  H   UNL     1      47.193   6.244  15.870  0.00  0.00    +0.000 HD
BRANCH  22  25
ATOM     25  C   UNL     1      48.893   6.100  17.800  0.00  0.00    +0.000 A 
ATOM     26  C   UNL     1      49.143   4.886  18.424  0.00  0.00    +0.000 A 
ATOM     27  S   UNL     1      48.777   4.884  20.088  0.00  0.00    +0.000 S 
ATOM     28  C   UNL     1      48.225   6.493  20.026  0.00  0.00    +0.000 A 
ATOM     29  N   UNL     1      47.741   7.109  21.137  0.00  0.00    +0.000 NA
ATOM     30  C   UNL     1      47.327   8.316  20.940  0.00  0.00    +0.000 A 
ATOM     31  N   UNL     1      47.362   8.968  19.733  0.00  0.00    +0.000 N 
ATOM     32  C   UNL     1      47.875   8.396  18.594  0.00  0.00    +0.000 A 
ATOM     33  O   UNL     1      47.939   9.021  17.538  0.00  0.00    +0.000 OA
ATOM     34  C   UNL     1      48.337   7.030  18.757  0.00  0.00    +0.000 A 
ATOM     35  H   UNL     1      47.033   9.917  19.650  0.00  0.00    +0.000 HD
ENDBRANCH  22  25
ENDBRANCH  20  21
ENDBRANCH   4  20
TORSDOF 7
ENDMDL
MODEL 3
REMARK VINA RESULT:    -7.871      1.996      2.317
REMARK INTER + INTRA:         -12.433
REMARK INTER:                 -11.300
REMARK INTRA:                  -1.133
REMARK UNBOUND:                -1.341
REMARK  Name = 
REMARK  10 active torsions:
REMARK  status: ('A' for Active; 'I' for Inactive)
REMARK    1  A    between atoms: C_1  and  C_2
REMARK    2  A    between atoms: C_6  and  C_7
REMARK    3  A    between atoms: C_7  and  N_8
REMARK    4  A    between atoms: N_8  and  C_9
REMARK    5  A    between atoms: C_9  and  C_10
REMARK    6  A    between atoms: C_9  and  C_11
REMARK    7  A    between atoms: C_9  and  C_12
REMARK    8  A    between atoms: C_15  and  C_16
REMARK    9  A    between atoms: C_16  and  N_17
REMARK   10  A    between atoms: C_18  and  C_20
REMARK                            x       y       z     vdW  Elec       q    Type
REMARK                         _______ _______ _______ _____ _____    ______ ____
ROOT
ATOM      1  C   UNL     1      45.539   6.231  11.907  0.00  0.00    +0.000 A 
ATOM      2  C   UNL     1      44.967   7.477  12.163  0.00  0.00    +0.000 A 
ATOM      3  C   UNL     1      45.698   8.450  12.840  0.00  0.00    +0.000 A 
ATOM      4  C   UNL     1      46.965   8.143  13.326  0.00  0.00    +0.000 A 
ATOM      5  C   UNL     1      47.426   6.851  13.121  0.00  0.00    +0.000 A 
ATOM      6  N   UNL     1      46.761   5.910  12.412  0.00  0.00    +0.000 NA
ENDROOT
BRANCH   1   7
ATOM      7  C   UNL     1      44.833   5.155  11.054  0.00  0.00    +0.000 C 
ATOM      8  C   UNL     1      44.976   3.769  11.727  0.00  0.00    +0.000 C 
ATOM      9  C   UNL     1      43.328   5.505  11.024  0.00  0.00    +0.000 C 
BRANCH   7  10
ATOM     10  N   UNL     1      45.261   5.099   9.629  0.00  0.00    +0.000 NA
ATOM     11  H   UNL     1      45.122   6.022   9.215  0.00  0.00    +0.000 HD
BRANCH  10  12
ATOM     12  C   UNL     1      44.514   4.149   8.790  0.00  0.00    +0.000 C 
BRANCH  12  18
ATOM     13  C   UNL     1      47.391   3.024   5.070  0.00  0.00    +0.000 C 
ATOM     14  C   UNL     1      46.790   2.568   6.363  0.00  0.00    +0.000 A 
ATOM     15  C   UNL     1      47.011   1.291   6.861  0.00  0.00    +0.000 A 
ATOM     16  C   UNL     1      46.399   0.926   8.056  0.00  0.00    +0.000 A 
ATOM     17  C   UNL     1      45.586   1.845   8.715  0.00  0.00    +0.000 A 
ATOM     18  C   UNL     1      45.416   3.108   8.156  0.00  0.00    +0.000 A 
ATOM     19  N   UNL     1      46.011   3.472   6.994  0.00  0.00    +0.000 NA
ENDBRANCH  12  18
ENDBRANCH  10  12
ENDBRANCH   7  10
ENDBRANCH   1   7
BRANCH   4  20
ATOM     20  C   UNL     1      47.757   9.138  14.113  0.00  0.00    +0.000 C 
BRANCH  20  21
ATOM     21  N   UNL     1      47.516   8.966  15.522  0.00  0.00    +0.000 N 
ATOM     22  C   UNL     1      48.373   9.472  16.460  0.00  0.00    +0.000 C 
ATOM     23  O   UNL     1      49.356  10.140  16.147  0.00  0.00    +0.000 OA
ATOM     24  H   UNL     1      46.833   8.265  15.793  0.00  0.00    +0.000 HD
BRANCH  22  25
ATOM     25  C   UNL     1      48.026   9.225  17.864  0.00  0.00    +0.000 A 
ATOM     26  C   UNL     1      47.704  10.296  18.687  0.00  0.00    +0.000 A 
ATOM     27  S   UNL     1      47.282   9.838  20.272  0.00  0.00    +0.000 S 
ATOM     28  C   UNL     1      47.560   8.194  19.932  0.00  0.00    +0.000 A 
ATOM     29  N   UNL     1      47.400   7.245  20.892  0.00  0.00    +0.000 NA
ATOM     30  C   UNL     1      47.676   6.043  20.506  0.00  0.00    +0.000 A 
ATOM     31  N   UNL     1      48.091   5.704  19.243  0.00  0.00    +0.000 N 
ATOM     32  C   UNL     1      48.231   6.625  18.234  0.00  0.00    +0.000 A 
ATOM     33  O   UNL     1      48.557   6.286  17.099  0.00  0.00    +0.000 OA
ATOM     34  C   UNL     1      47.952   7.996  18.621  0.00  0.00    +0.000 A 
ATOM     35  H   UNL     1      48.279   4.742  19.003  0.00  0.00    +0.000 HD
ENDBRANCH  22  25
ENDBRANCH  20  21
ENDBRANCH   4  20
TORSDOF 7
ENDMDL
MODEL 4
REMARK VINA RESULT:    -7.584      1.975      2.191
REMARK INTER + INTRA:         -12.029
REMARK INTER:                 -11.076
REMARK INTRA:                  -0.953
REMARK UNBOUND:                -1.341
REMARK  Name = 
REMARK  10 active torsions:
REMARK  status: ('A' for Active; 'I' for Inactive)
REMARK    1  A    between atoms: C_1  and  C_2
REMARK    2  A    between atoms: C_6  and  C_7
REMARK    3  A    between atoms: C_7  and  N_8
REMARK    4  A    between atoms: N_8  and  C_9
REMARK    5  A    between atoms: C_9  and  C_10
REMARK    6  A    between atoms: C_9  and  C_11
REMARK    7  A    between atoms: C_9  and  C_12
REMARK    8  A    between atoms: C_15  and  C_16
REMARK    9  A    between atoms: C_16  and  N_17
REMARK   10  A    between atoms: C_18  and  C_20
REMARK                            x       y       z     vdW  Elec       q    Type
REMARK                         _______ _______ _______ _____ _____    ______ ____
ROOT
ATOM      1  C   UNL     1      45.399   5.039  12.568  0.00  0.00    +0.000 A 
ATOM      2  C   UNL     1      45.422   6.414  12.336  0.00  0.00    +0.000 A 
ATOM      3  C   UNL     1      46.390   7.204  12.950  0.00  0.00    +0.000 A 
ATOM      4  C   UNL     1      47.278   6.627  13.852  0.00  0.00    +0.000 A 
ATOM      5  C   UNL     1      47.129   5.271  14.108  0.00  0.00    +0.000 A 
ATOM      6  N   UNL     1      46.237   4.472  13.477  0.00  0.00    +0.000 NA
ENDROOT
BRANCH   1   7
ATOM      7  C   UNL     1      44.435   4.090  11.824  0.00  0.00    +0.000 C 
ATOM      8  C   UNL     1      43.659   3.220  12.841  0.00  0.00    +0.000 C 
ATOM      9  C   UNL     1      43.404   4.969  11.081  0.00  0.00    +0.000 C 
BRANCH   7  10
ATOM     10  N   UNL     1      45.068   3.242  10.776  0.00  0.00    +0.000 NA
ATOM     11  H   UNL     1      46.082   3.348  10.845  0.00  0.00    +0.000 HD
BRANCH  10  12
ATOM     12  C   UNL     1      44.706   3.585   9.392  0.00  0.00    +0.000 C 
BRANCH  12  18
ATOM     13  C   UNL     1      46.756  -0.424   7.628  0.00  0.00    +0.000 C 
ATOM     14  C   UNL     1      46.660   1.067   7.544  0.00  0.00    +0.000 A 
ATOM     15  C   UNL     1      47.441   1.800   6.660  0.00  0.00    +0.000 A 
ATOM     16  C   UNL     1      47.317   3.186   6.654  0.00  0.00    +0.000 A 
ATOM     17  C   UNL     1      46.423   3.796   7.528  0.00  0.00    +0.000 A 
ATOM     18  C   UNL     1      45.671   2.995   8.382  0.00  0.00    +0.000 A 
ATOM     19  N   UNL     1      45.782   1.644   8.392  0.00  0.00    +0.000 NA
ENDBRANCH  12  18
ENDBRANCH  10  12
ENDBRANCH   7  10
ENDBRANCH   1   7
BRANCH   4  20
ATOM     20  C   UNL     1      48.291   7.451  14.581  0.00  0.00    +0.000 C 
BRANCH  20  21
ATOM     21  N   UNL     1      49.288   6.603  15.180  0.00  0.00    +0.000 N 
ATOM     22  C   UNL     1      49.277   6.325  16.520  0.00  0.00    +0.000 C 
ATOM     23  O   UNL     1      48.390   6.741  17.261  0.00  0.00    +0.000 OA
ATOM     24  H   UNL     1      50.124   6.414  14.635  0.00  0.00    +0.000 HD
BRANCH  22  25
ATOM     25  C   UNL     1      50.350   5.455  17.016  0.00  0.00    +0.000 A 
ATOM     26  C   UNL     1      51.525   6.022  17.490  0.00  0.00    +0.000 A 
ATOM     27  S   UNL     1      52.649   4.882  18.070  0.00  0.00    +0.000 S 
ATOM     28  C   UNL     1      51.627   3.583  17.665  0.00  0.00    +0.000 A 
ATOM     29  N   UNL     1      52.009   2.298  17.886  0.00  0.00    +0.000 NA
ATOM     30  C   UNL     1      51.151   1.412  17.502  0.00  0.00    +0.000 A 
ATOM     31  N   UNL     1      49.940   1.696  16.924  0.00  0.00    +0.000 N 
ATOM     32  C   UNL     1      49.499   2.980  16.715  0.00  0.00    +0.000 A 
ATOM     33  O   UNL     1      48.388   3.206  16.240  0.00  0.00    +0.000 OA
ATOM     34  C   UNL     1      50.436   4.015  17.112  0.00  0.00    +0.000 A 
ATOM     35  H   UNL     1      49.309   0.956  16.657  0.00  0.00    +0.000 HD
ENDBRANCH  22  25
ENDBRANCH  20  21
ENDBRANCH   4  20
TORSDOF 7
ENDMDL
MODEL 5
REMARK VINA RESULT:    -7.359      3.381      8.859
REMARK INTER + INTRA:         -11.712
REMARK INTER:                 -10.077
REMARK INTRA:                  -1.635
REMARK UNBOUND:                -1.341
REMARK  Name = 
REMARK  10 active torsions:
REMARK  status: ('A' for Active; 'I' for Inactive)
REMARK    1  A    between atoms: C_1  and  C_2
REMARK    2  A    between atoms: C_6  and  C_7
REMARK    3  A    between atoms: C_7  and  N_8
REMARK    4  A    between atoms: N_8  and  C_9
REMARK    5  A    between atoms: C_9  and  C_10
REMARK    6  A    between atoms: C_9  and  C_11
REMARK    7  A    between atoms: C_9  and  C_12
REMARK    8  A    between atoms: C_15  and  C_16
REMARK    9  A    between atoms: C_16  and  N_17
REMARK   10  A    between atoms: C_18  and  C_20
REMARK                            x       y       z     vdW  Elec       q    Type
REMARK                         _______ _______ _______ _____ _____    ______ ____
ROOT
ATOM      1  C   UNL     1      49.775   7.920  14.674  0.00  0.00    +0.000 A 
ATOM      2  C   UNL     1      48.789   8.882  14.893  0.00  0.00    +0.000 A 
ATOM      3  C   UNL     1      47.643   8.892  14.102  0.00  0.00    +0.000 A 
ATOM      4  C   UNL     1      47.528   7.991  13.047  0.00  0.00    +0.000 A 
ATOM      5  C   UNL     1      48.595   7.131  12.830  0.00  0.00    +0.000 A 
ATOM      6  N   UNL     1      49.689   7.062  13.622  0.00  0.00    +0.000 NA
ENDROOT
BRANCH   1   7
ATOM      7  C   UNL     1      51.007   7.774  15.593  0.00  0.00    +0.000 C 
ATOM      8  C   UNL     1      52.286   8.207  14.837  0.00  0.00    +0.000 C 
ATOM      9  C   UNL     1      50.817   8.748  16.778  0.00  0.00    +0.000 C 
BRANCH   7  10
ATOM     10  N   UNL     1      51.184   6.428  16.203  0.00  0.00    +0.000 NA
ATOM     11  H   UNL     1      50.848   5.727  15.540  0.00  0.00    +0.000 HD
BRANCH  10  12
ATOM     12  C   UNL     1      50.441   6.207  17.454  0.00  0.00    +0.000 C 
BRANCH  12  18
ATOM     13  C   UNL     1      46.780   4.470  14.815  0.00  0.00    +0.000 C 
ATOM     14  C   UNL     1      47.616   4.307  16.046  0.00  0.00    +0.000 A 
ATOM     15  C   UNL     1      47.369   3.299  16.968  0.00  0.00    +0.000 A 
ATOM     16  C   UNL     1      48.171   3.223  18.103  0.00  0.00    +0.000 A 
ATOM     17  C   UNL     1      49.191   4.154  18.282  0.00  0.00    +0.000 A 
ATOM     18  C   UNL     1      49.380   5.133  17.312  0.00  0.00    +0.000 A 
ATOM     19  N   UNL     1      48.606   5.212  16.202  0.00  0.00    +0.000 NA
ENDBRANCH  12  18
ENDBRANCH  10  12
ENDBRANCH   7  10
ENDBRANCH   1   7
BRANCH   4  20
ATOM     20  C   UNL     1      46.343   8.011  12.135  0.00  0.00    +0.000 C 
BRANCH  20  21
ATOM     21  N   UNL     1      45.946   6.667  11.802  0.00  0.00    +0.000 N 
ATOM     22  C   UNL     1      44.653   6.366  11.472  0.00  0.00    +0.000 C 
ATOM     23  O   UNL     1      43.786   7.232  11.393  0.00  0.00    +0.000 OA
ATOM     24  H   UNL     1      46.589   5.920  12.049  0.00  0.00    +0.000 HD
BRANCH  22  25
ATOM     25  C   UNL     1      44.369   4.960  11.161  0.00  0.00    +0.000 A 
ATOM     26  C   UNL     1      43.570   4.219  12.021  0.00  0.00    +0.000 A 
ATOM     27  S   UNL     1      43.299   2.621  11.496  0.00  0.00    +0.000 S 
ATOM     28  C   UNL     1      44.278   2.847  10.122  0.00  0.00    +0.000 A 
ATOM     29  N   UNL     1      44.489   1.834   9.241  0.00  0.00    +0.000 NA
ATOM     30  C   UNL     1      45.278   2.133   8.263  0.00  0.00    +0.000 A 
ATOM     31  N   UNL     1      45.868   3.358   8.081  0.00  0.00    +0.000 N 
ATOM     32  C   UNL     1      45.654   4.418   8.927  0.00  0.00    +0.000 A 
ATOM     33  O   UNL     1      46.158   5.519   8.712  0.00  0.00    +0.000 OA
ATOM     34  C   UNL     1      44.789   4.129  10.056  0.00  0.00    +0.000 A 
ATOM     35  H   UNL     1      46.466   3.529   7.287  0.00  0.00    +0.000 HD
ENDBRANCH  22  25
ENDBRANCH  20  21
ENDBRANCH   4  20
TORSDOF 7
ENDMDL
MODEL 6
REMARK VINA RESULT:    -7.064      4.511      9.790
REMARK INTER + INTRA:         -11.295
REMARK INTER:                 -10.138
REMARK INTRA:                  -1.157
REMARK UNBOUND:                -1.341
REMARK  Name = 
REMARK  10 active torsions:
REMARK  status: ('A' for Active; 'I' for Inactive)
REMARK    1  A    between atoms: C_1  and  C_2
REMARK    2  A    between atoms: C_6  and  C_7
REMARK    3  A    between atoms: C_7  and  N_8
REMARK    4  A    between atoms: N_8  and  C_9
REMARK    5  A    between atoms: C_9  and  C_10
REMARK    6  A    between atoms: C_9  and  C_11
REMARK    7  A    between atoms: C_9  and  C_12
REMARK    8  A    between atoms: C_15  and  C_16
REMARK    9  A    between atoms: C_16  and  N_17
REMARK   10  A    between atoms: C_18  and  C_20
REMARK                            x       y       z     vdW  Elec       q    Type
REMARK                         _______ _______ _______ _____ _____    ______ ____
ROOT
ATOM      1  C   UNL     1      51.092   3.752  18.392  0.00  0.00    +0.000 A 
ATOM      2  C   UNL     1      50.762   2.683  17.559  0.00  0.00    +0.000 A 
ATOM      3  C   UNL     1      49.470   2.570  17.053  0.00  0.00    +0.000 A 
ATOM      4  C   UNL     1      48.496   3.483  17.448  0.00  0.00    +0.000 A 
ATOM      5  C   UNL     1      48.875   4.459  18.358  0.00  0.00    +0.000 A 
ATOM      6  N   UNL     1      50.138   4.625  18.813  0.00  0.00    +0.000 NA
ENDROOT
BRANCH   1   7
ATOM      7  C   UNL     1      52.534   4.004  18.883  0.00  0.00    +0.000 C 
ATOM      8  C   UNL     1      53.361   4.684  17.766  0.00  0.00    +0.000 C 
ATOM      9  C   UNL     1      52.451   4.994  20.068  0.00  0.00    +0.000 C 
BRANCH   7  10
ATOM     10  N   UNL     1      53.240   2.805  19.410  0.00  0.00    +0.000 NA
ATOM     11  H   UNL     1      53.394   2.936  20.411  0.00  0.00    +0.000 HD
BRANCH  10  12
ATOM     12  C   UNL     1      54.562   2.547  18.816  0.00  0.00    +0.000 C 
BRANCH  12  18
ATOM     13  C   UNL     1      53.921  -2.226  19.253  0.00  0.00    +0.000 C 
ATOM     14  C   UNL     1      54.334  -1.101  18.355  0.00  0.00    +0.000 A 
ATOM     15  C   UNL     1      54.789  -1.327  17.064  0.00  0.00    +0.000 A 
ATOM     16  C   UNL     1      55.179  -0.234  16.294  0.00  0.00    +0.000 A 
ATOM     17  C   UNL     1      55.104   1.045  16.838  0.00  0.00    +0.000 A 
ATOM     18  C   UNL     1      54.633   1.192  18.138  0.00  0.00    +0.000 A 
ATOM     19  N   UNL     1      54.248   0.134  18.893  0.00  0.00    +0.000 NA
ENDBRANCH  12  18
ENDBRANCH  10  12
ENDBRANCH   7  10
ENDBRANCH   1   7
BRANCH   4  20
ATOM     20  C   UNL     1      47.081   3.361  16.979  0.00  0.00    +0.000 C 
BRANCH  20  21
ATOM     21  N   UNL     1      46.800   4.354  15.976  0.00  0.00    +0.000 N 
ATOM     22  C   UNL     1      47.023   4.112  14.648  0.00  0.00    +0.000 C 
ATOM     23  O   UNL     1      47.422   3.022  14.246  0.00  0.00    +0.000 OA
ATOM     24  H   UNL     1      46.660   5.309  16.295  0.00  0.00    +0.000 HD
BRANCH  22  25
ATOM     25  C   UNL     1      46.705   5.205  13.722  0.00  0.00    +0.000 A 
ATOM     26  C   UNL     1      47.655   6.186  13.471  0.00  0.00    +0.000 A 
ATOM     27  S   UNL     1      47.148   7.355  12.341  0.00  0.00    +0.000 S 
ATOM     28  C   UNL     1      45.622   6.620  12.180  0.00  0.00    +0.000 A 
ATOM     29  N   UNL     1      44.675   7.149  11.359  0.00  0.00    +0.000 NA
ATOM     30  C   UNL     1      43.553   6.509  11.358  0.00  0.00    +0.000 A 
ATOM     31  N   UNL     1      43.295   5.382  12.096  0.00  0.00    +0.000 N 
ATOM     32  C   UNL     1      44.232   4.796  12.910  0.00  0.00    +0.000 A 
ATOM     33  O   UNL     1      43.988   3.759  13.523  0.00  0.00    +0.000 OA
ATOM     34  C   UNL     1      45.507   5.487  12.963  0.00  0.00    +0.000 A 
ATOM     35  H   UNL     1      42.398   4.923  12.040  0.00  0.00    +0.000 HD
ENDBRANCH  22  25
ENDBRANCH  20  21
ENDBRANCH   4  20
TORSDOF 7
ENDMDL
MODEL 7
REMARK VINA RESULT:    -6.496      3.807      9.233
REMARK INTER + INTRA:         -10.496
REMARK INTER:                  -8.941
REMARK INTRA:                  -1.555
REMARK UNBOUND:                -1.341
REMARK  Name = 
REMARK  10 active torsions:
REMARK  status: ('A' for Active; 'I' for Inactive)
REMARK    1  A    between atoms: C_1  and  C_2
REMARK    2  A    between atoms: C_6  and  C_7
REMARK    3  A    between atoms: C_7  and  N_8
REMARK    4  A    between atoms: N_8  and  C_9
REMARK    5  A    between atoms: C_9  and  C_10
REMARK    6  A    between atoms: C_9  and  C_11
REMARK    7  A    between atoms: C_9  and  C_12
REMARK    8  A    between atoms: C_15  and  C_16
REMARK    9  A    between atoms: C_16  and  N_17
REMARK   10  A    between atoms: C_18  and  C_20
REMARK                            x       y       z     vdW  Elec       q    Type
REMARK                         _______ _______ _______ _____ _____    ______ ____
ROOT
ATOM      1  C   UNL     1      51.277   4.525  17.680  0.00  0.00    +0.000 A 
ATOM      2  C   UNL     1      50.348   5.529  17.408  0.00  0.00    +0.000 A 
ATOM      3  C   UNL     1      49.029   5.192  17.114  0.00  0.00    +0.000 A 
ATOM      4  C   UNL     1      48.668   3.852  17.017  0.00  0.00    +0.000 A 
ATOM      5  C   UNL     1      49.670   2.911  17.202  0.00  0.00    +0.000 A 
ATOM      6  N   UNL     1      50.943   3.213  17.549  0.00  0.00    +0.000 NA
ENDROOT
BRANCH   1   7
ATOM      7  C   UNL     1      52.720   4.834  18.134  0.00  0.00    +0.000 C 
ATOM      8  C   UNL     1      52.697   5.718  19.404  0.00  0.00    +0.000 C 
ATOM      9  C   UNL     1      53.381   3.490  18.516  0.00  0.00    +0.000 C 
BRANCH   7  10
ATOM     10  N   UNL     1      53.597   5.431  17.090  0.00  0.00    +0.000 NA
ATOM     11  H   UNL     1      54.480   4.918  17.079  0.00  0.00    +0.000 HD
BRANCH  10  12
ATOM     12  C   UNL     1      53.940   6.847  17.297  0.00  0.00    +0.000 C 
BRANCH  12  18
ATOM     13  C   UNL     1      52.964   8.462  12.845  0.00  0.00    +0.000 C 
ATOM     14  C   UNL     1      52.639   8.554  14.303  0.00  0.00    +0.000 A 
ATOM     15  C   UNL     1      51.701   9.456  14.786  0.00  0.00    +0.000 A 
ATOM     16  C   UNL     1      51.468   9.504  16.158  0.00  0.00    +0.000 A 
ATOM     17  C   UNL     1      52.177   8.654  17.001  0.00  0.00    +0.000 A 
ATOM     18  C   UNL     1      53.098   7.774  16.443  0.00  0.00    +0.000 A 
ATOM     19  N   UNL     1      53.329   7.718  15.108  0.00  0.00    +0.000 NA
ENDBRANCH  12  18
ENDBRANCH  10  12
ENDBRANCH   7  10
ENDBRANCH   1   7
BRANCH   4  20
ATOM     20  C   UNL     1      47.278   3.447  16.642  0.00  0.00    +0.000 C 
BRANCH  20  21
ATOM     21  N   UNL     1      46.715   4.394  15.715  0.00  0.00    +0.000 N 
ATOM     22  C   UNL     1      46.747   4.177  14.364  0.00  0.00    +0.000 C 
ATOM     23  O   UNL     1      47.208   3.145  13.885  0.00  0.00    +0.000 OA
ATOM     24  H   UNL     1      46.512   5.324  16.069  0.00  0.00    +0.000 HD
BRANCH  22  25
ATOM     25  C   UNL     1      46.149   5.218  13.521  0.00  0.00    +0.000 A 
ATOM     26  C   UNL     1      46.851   6.392  13.284  0.00  0.00    +0.000 A 
ATOM     27  S   UNL     1      46.040   7.477  12.251  0.00  0.00    +0.000 S 
ATOM     28  C   UNL     1      44.699   6.438  12.119  0.00  0.00    +0.000 A 
ATOM     29  N   UNL     1      43.615   6.787  11.377  0.00  0.00    +0.000 NA
ATOM     30  C   UNL     1      42.657   5.921  11.391  0.00  0.00    +0.000 A 
ATOM     31  N   UNL     1      42.689   4.731  12.073  0.00  0.00    +0.000 N 
ATOM     32  C   UNL     1      43.777   4.323  12.805  0.00  0.00    +0.000 A 
ATOM     33  O   UNL     1      43.797   3.229  13.366  0.00  0.00    +0.000 OA
ATOM     34  C   UNL     1      44.876   5.271  12.839  0.00  0.00    +0.000 A 
ATOM     35  H   UNL     1      41.909   4.092  12.032  0.00  0.00    +0.000 HD
ENDBRANCH  22  25
ENDBRANCH  20  21
ENDBRANCH   4  20
TORSDOF 7
ENDMDL
MODEL 8
REMARK VINA RESULT:    -6.325      3.447      8.536
REMARK INTER + INTRA:         -10.254
REMARK INTER:                  -8.339
REMARK INTRA:                  -1.915
REMARK UNBOUND:                -1.341
REMARK  Name = 
REMARK  10 active torsions:
REMARK  status: ('A' for Active; 'I' for Inactive)
REMARK    1  A    between atoms: C_1  and  C_2
REMARK    2  A    between atoms: C_6  and  C_7
REMARK    3  A    between atoms: C_7  and  N_8
REMARK    4  A    between atoms: N_8  and  C_9
REMARK    5  A    between atoms: C_9  and  C_10
REMARK    6  A    between atoms: C_9  and  C_11
REMARK    7  A    between atoms: C_9  and  C_12
REMARK    8  A    between atoms: C_15  and  C_16
REMARK    9  A    between atoms: C_16  and  N_17
REMARK   10  A    between atoms: C_18  and  C_20
REMARK                            x       y       z     vdW  Elec       q    Type
REMARK                         _______ _______ _______ _____ _____    ______ ____
ROOT
ATOM      1  C   UNL     1      49.486   8.343  18.666  0.00  0.00    +0.000 A 
ATOM      2  C   UNL     1      48.241   8.927  18.434  0.00  0.00    +0.000 A 
ATOM      3  C   UNL     1      47.842   9.215  17.131  0.00  0.00    +0.000 A 
ATOM      4  C   UNL     1      48.724   8.991  16.078  0.00  0.00    +0.000 A 
ATOM      5  C   UNL     1      49.982   8.502  16.398  0.00  0.00    +0.000 A 
ATOM      6  N   UNL     1      50.368   8.156  17.648  0.00  0.00    +0.000 NA
ENDROOT
BRANCH   1   7
ATOM      7  C   UNL     1      49.935   7.883  20.070  0.00  0.00    +0.000 C 
ATOM      8  C   UNL     1      51.459   7.614  20.076  0.00  0.00    +0.000 C 
ATOM      9  C   UNL     1      49.666   9.051  21.046  0.00  0.00    +0.000 C 
BRANCH   7  10
ATOM     10  N   UNL     1      49.190   6.718  20.621  0.00  0.00    +0.000 NA
ATOM     11  H   UNL     1      49.205   6.780  21.640  0.00  0.00    +0.000 HD
BRANCH  10  12
ATOM     12  C   UNL     1      49.745   5.400  20.275  0.00  0.00    +0.000 C 
BRANCH  12  18
ATOM     13  C   UNL     1      49.794   2.008  16.830  0.00  0.00    +0.000 C 
ATOM     14  C   UNL     1      49.021   3.113  17.479  0.00  0.00    +0.000 A 
ATOM     15  C   UNL     1      47.771   3.501  17.016  0.00  0.00    +0.000 A 
ATOM     16  C   UNL     1      47.121   4.553  17.654  0.00  0.00    +0.000 A 
ATOM     17  C   UNL     1      47.738   5.185  18.729  0.00  0.00    +0.000 A 
ATOM     18  C   UNL     1      48.989   4.738  19.140  0.00  0.00    +0.000 A 
ATOM     19  N   UNL     1      49.628   3.711  18.527  0.00  0.00    +0.000 NA
ENDBRANCH  12  18
ENDBRANCH  10  12
ENDBRANCH   7  10
ENDBRANCH   1   7
BRANCH   4  20
ATOM     20  C   UNL     1      48.359   9.346  14.672  0.00  0.00    +0.000 C 
BRANCH  20  21
ATOM     21  N   UNL     1      47.357   8.442  14.171  0.00  0.00    +0.000 N 
ATOM     22  C   UNL     1      47.186   8.236  12.829  0.00  0.00    +0.000 C 
ATOM     23  O   UNL     1      47.912   8.771  11.995  0.00  0.00    +0.000 OA
ATOM     24  H   UNL     1      46.633   8.148  14.820  0.00  0.00    +0.000 HD
BRANCH  22  25
ATOM     25  C   UNL     1      46.127   7.298  12.441  0.00  0.00    +0.000 A 
ATOM     26  C   UNL     1      45.015   7.769  11.758  0.00  0.00    +0.000 A 
ATOM     27  S   UNL     1      43.901   6.549  11.341  0.00  0.00    +0.000 S 
ATOM     28  C   UNL     1      44.842   5.352  12.100  0.00  0.00    +0.000 A 
ATOM     29  N   UNL     1      44.435   4.055  12.127  0.00  0.00    +0.000 NA
ATOM     30  C   UNL     1      45.228   3.259  12.764  0.00  0.00    +0.000 A 
ATOM     31  N   UNL     1      46.399   3.642  13.369  0.00  0.00    +0.000 N 
ATOM     32  C   UNL     1      46.866   4.933  13.335  0.00  0.00    +0.000 A 
ATOM     33  O   UNL     1      47.942   5.237  13.844  0.00  0.00    +0.000 OA
ATOM     34  C   UNL     1      46.000   5.873  12.648  0.00  0.00    +0.000 A 
ATOM     35  H   UNL     1      46.980   2.965  13.841  0.00  0.00    +0.000 HD
ENDBRANCH  22  25
ENDBRANCH  20  21
ENDBRANCH   4  20
TORSDOF 7
ENDMDL
MODEL 9
REMARK VINA RESULT:    -6.285      6.109      8.599
REMARK INTER + INTRA:         -10.198
REMARK INTER:                  -9.085
REMARK INTRA:                  -1.113
REMARK UNBOUND:                -1.341
REMARK  Name = 
REMARK  10 active torsions:
REMARK  status: ('A' for Active; 'I' for Inactive)
REMARK    1  A    between atoms: C_1  and  C_2
REMARK    2  A    between atoms: C_6  and  C_7
REMARK    3  A    between atoms: C_7  and  N_8
REMARK    4  A    between atoms: N_8  and  C_9
REMARK    5  A    between atoms: C_9  and  C_10
REMARK    6  A    between atoms: C_9  and  C_11
REMARK    7  A    between atoms: C_9  and  C_12
REMARK    8  A    between atoms: C_15  and  C_16
REMARK    9  A    between atoms: C_16  and  N_17
REMARK   10  A    between atoms: C_18  and  C_20
REMARK                            x       y       z     vdW  Elec       q    Type
REMARK                         _______ _______ _______ _____ _____    ______ ____
ROOT
ATOM      1  C   UNL     1      49.695   3.589  17.421  0.00  0.00    +0.000 A 
ATOM      2  C   UNL     1      50.054   2.295  17.046  0.00  0.00    +0.000 A 
ATOM      3  C   UNL     1      51.296   1.786  17.415  0.00  0.00    +0.000 A 
ATOM      4  C   UNL     1      52.201   2.602  18.087  0.00  0.00    +0.000 A 
ATOM      5  C   UNL     1      51.810   3.909  18.337  0.00  0.00    +0.000 A 
ATOM      6  N   UNL     1      50.586   4.406  18.044  0.00  0.00    +0.000 NA
ENDROOT
BRANCH   1   7
ATOM      7  C   UNL     1      48.288   4.168  17.155  0.00  0.00    +0.000 C 
ATOM      8  C   UNL     1      47.209   3.108  17.482  0.00  0.00    +0.000 C 
ATOM      9  C   UNL     1      48.085   5.353  18.127  0.00  0.00    +0.000 C 
BRANCH   7  10
ATOM     10  N   UNL     1      48.084   4.728  15.791  0.00  0.00    +0.000 NA
ATOM     11  H   UNL     1      47.691   5.666  15.883  0.00  0.00    +0.000 HD
BRANCH  10  12
ATOM     12  C   UNL     1      47.156   3.970  14.936  0.00  0.00    +0.000 C 
BRANCH  12  18
ATOM     13  C   UNL     1      43.001   5.099  12.735  0.00  0.00    +0.000 C 
ATOM     14  C   UNL     1      44.466   5.384  12.854  0.00  0.00    +0.000 A 
ATOM     15  C   UNL     1      45.095   6.322  12.048  0.00  0.00    +0.000 A 
ATOM     16  C   UNL     1      46.465   6.517  12.196  0.00  0.00    +0.000 A 
ATOM     17  C   UNL     1      47.163   5.770  13.141  0.00  0.00    +0.000 A 
ATOM     18  C   UNL     1      46.462   4.851  13.916  0.00  0.00    +0.000 A 
ATOM     19  N   UNL     1      45.127   4.657  13.781  0.00  0.00    +0.000 NA
ENDBRANCH  12  18
ENDBRANCH  10  12
ENDBRANCH   7  10
ENDBRANCH   1   7
BRANCH   4  20
ATOM     20  C   UNL     1      53.569   2.115  18.445  0.00  0.00    +0.000 C 
BRANCH  20  21
ATOM     21  N   UNL     1      53.719   0.731  18.076  0.00  0.00    +0.000 N 
ATOM     22  C   UNL     1      54.431  -0.142  18.853  0.00  0.00    +0.000 C 
ATOM     23  O   UNL     1      54.928   0.200  19.923  0.00  0.00    +0.000 OA
ATOM     24  H   UNL     1      53.490   0.480  17.119  0.00  0.00    +0.000 HD
BRANCH  22  25
ATOM     25  C   UNL     1      54.521  -1.524  18.368  0.00  0.00    +0.000 A 
ATOM     26  C   UNL     1      54.208  -2.569  19.225  0.00  0.00    +0.000 A 
ATOM     27  S   UNL     1      54.319  -4.106  18.498  0.00  0.00    +0.000 S 
ATOM     28  C   UNL     1      54.836  -3.433  17.023  0.00  0.00    +0.000 A 
ATOM     29  N   UNL     1      55.133  -4.226  15.959  0.00  0.00    +0.000 NA
ATOM     30  C   UNL     1      55.544  -3.587  14.915  0.00  0.00    +0.000 A 
ATOM     31  N   UNL     1      55.676  -2.223  14.835  0.00  0.00    +0.000 N 
ATOM     32  C   UNL     1      55.354  -1.383  15.873  0.00  0.00    +0.000 A 
ATOM     33  O   UNL     1      55.436  -0.162  15.756  0.00  0.00    +0.000 OA
ATOM     34  C   UNL     1      54.905  -2.054  17.079  0.00  0.00    +0.000 A 
ATOM     35  H   UNL     1      55.992  -1.785  13.983  0.00  0.00    +0.000 HD
ENDBRANCH  22  25
ENDBRANCH  20  21
ENDBRANCH   4  20
TORSDOF 7
ENDMDL
