MODEL 1
REMARK VINA RESULT:    -6.828      0.000      0.000
REMARK INTER + INTRA:         -11.248
REMARK INTER:                 -10.221
REMARK INTRA:                  -1.027
REMARK UNBOUND:                -1.027
REMARK  Name = 
REMARK  11 active torsions:
REMARK  status: ('A' for Active; 'I' for Inactive)
REMARK    1  A    between atoms: C_1  and  C_2
REMARK    2  A    between atoms: C_2  and  C_3
REMARK    3  A    between atoms: C_2  and  N_4
REMARK    4  A    between atoms: C_2  and  C_23
REMARK    5  A    between atoms: N_4  and  C_5
REMARK    6  A    between atoms: C_5  and  C_6
REMARK    7  A    between atoms: C_9  and  C_10
REMARK    8  A    between atoms: C_10  and  O_12
REMARK    9  A    between atoms: C_14  and  N_15
REMARK   10  A    between atoms: N_15  and  C_16
REMARK   11  A    between atoms: C_16  and  C_17
REMARK                            x       y       z     vdW  Elec       q    Type
REMARK                         _______ _______ _______ _____ _____    ______ ____
ROOT
ATOM      1  C   UNL     1      46.398   6.266  11.363  0.00  0.00    +0.000 A 
ATOM      2  C   UNL     1      46.116   6.265  12.725  0.00  0.00    +0.000 A 
ATOM      3  N   UNL     1      45.198   5.487  13.322  0.00  0.00    +0.000 NA
ATOM      4  C   UNL     1      44.530   4.675  12.495  0.00  0.00    +0.000 A 
ATOM      5  N   UNL     1      44.702   4.591  11.163  0.00  0.00    +0.000 NA
ATOM      6  C   UNL     1      45.642   5.379  10.592  0.00  0.00    +0.000 A 
ENDROOT
BRANCH   4   7
ATOM      7  C   UNL     1      43.456   3.786  13.066  0.00  0.00    +0.000 C 
ATOM      8  O   UNL     1      43.339   2.586  12.894  0.00  0.00    +0.000 OA
BRANCH   7   9
ATOM      9  O   UNL     1      42.590   4.520  13.834  0.00  0.00    +0.000 OA
ATOM     10  H   UNL     1      41.861   4.881  13.278  0.00  0.00    +0.000 HD
ENDBRANCH   7   9
ENDBRANCH   4   7
BRANCH   6  11
ATOM     11  N   UNL     1      45.725   5.309   9.215  0.00  0.00    +0.000 N 
ATOM     12  H   UNL     1      46.163   6.061   8.698  0.00  0.00    +0.000 HD
BRANCH  11  13
ATOM     13  C   UNL     1      45.108   4.213   8.465  0.00  0.00    +0.000 C 
BRANCH  13  14
ATOM     14  C   UNL     1      46.044   3.139   7.941  0.00  0.00    +0.000 A 
ATOM     15  C   UNL     1      47.051   3.484   7.024  0.00  0.00    +0.000 A 
ATOM     16  C   UNL     1      47.848   2.486   6.471  0.00  0.00    +0.000 A 
ATOM     17  N   UNL     1      47.712   1.177   6.784  0.00  0.00    +0.000 NA
ATOM     18  C   UNL     1      46.794   0.867   7.715  0.00  0.00    +0.000 A 
ATOM     19  C   UNL     1      45.963   1.800   8.334  0.00  0.00    +0.000 A 
ENDBRANCH  13  14
ENDBRANCH  11  13
ENDBRANCH   6  11
BRANCH   1  20
ATOM     20  C   UNL     1      47.416   7.280  10.871  0.00  0.00    +0.000 C 
BRANCH  20  21
ATOM     21  N   UNL     1      47.625   8.394  11.802  0.00  0.00    +0.000 NA
ATOM     22  H   UNL     1      47.341   9.272  11.363  0.00  0.00    +0.000 HD
BRANCH  21  24
ATOM     23  C   UNL     1      50.056   7.745  11.514  0.00  0.00    +0.000 C 
ATOM     24  C   UNL     1      49.034   8.555  12.343  0.00  0.00    +0.000 C 
ATOM     25  C   UNL     1      49.368  10.051  12.111  0.00  0.00    +0.000 C 
BRANCH  24  26
ATOM     26  C   UNL     1      49.257   8.247  13.878  0.00  0.00    +0.000 C 
ATOM     27  F   UNL     1      48.086   8.256  14.559  0.00  0.00    +0.000 F 
ATOM     28  F   UNL     1      49.824   7.037  14.084  0.00  0.00    +0.000 F 
ATOM     29  F   UNL     1      50.058   9.160  14.477  0.00  0.00    +0.000 F 
ENDBRANCH  24  26
ENDBRANCH  21  24
ENDBRANCH  20  21
ENDBRANCH   1  20
TORSDOF 9
ENDMDL
MODEL 2
REMARK VINA RESULT:    -6.794      3.158      5.691
REMARK INTER + INTRA:         -11.197
REMARK INTER:                  -9.786
REMARK INTRA:                  -1.412
REMARK UNBOUND:                -1.027
REMARK  Name = 
REMARK  11 active torsions:
REMARK  status: ('A' for Active; 'I' for Inactive)
REMARK    1  A    between atoms: C_1  and  C_2
REMARK    2  A    between atoms: C_2  and  C_3
REMARK    3  A    between atoms: C_2  and  N_4
REMARK    4  A    between atoms: C_2  and  C_23
REMARK    5  A    between atoms: N_4  and  C_5
REMARK    6  A    between atoms: C_5  and  C_6
REMARK    7  A    between atoms: C_9  and  C_10
REMARK    8  A    between atoms: C_10  and  O_12
REMARK    9  A    between atoms: C_14  and  N_15
REMARK   10  A    between atoms: N_15  and  C_16
REMARK   11  A    between atoms: C_16  and  C_17
REMARK                            x       y       z     vdW  Elec       q    Type
REMARK                         _______ _______ _______ _____ _____    ______ ____
ROOT
ATOM      1  C   UNL     1      45.075   6.711  12.634  0.00  0.00    +0.000 A 
ATOM      2  C   UNL     1      44.215   6.528  11.556  0.00  0.00    +0.000 A 
ATOM      3  N   UNL     1      43.767   5.340  11.119  0.00  0.00    +0.000 NA
ATOM      4  C   UNL     1      44.219   4.285  11.807  0.00  0.00    +0.000 A 
ATOM      5  N   UNL     1      45.060   4.330  12.856  0.00  0.00    +0.000 NA
ATOM      6  C   UNL     1      45.485   5.542  13.280  0.00  0.00    +0.000 A 
ENDROOT
BRANCH   4   7
ATOM      7  C   UNL     1      43.798   2.905  11.372  0.00  0.00    +0.000 C 
ATOM      8  O   UNL     1      43.746   2.490  10.229  0.00  0.00    +0.000 OA
BRANCH   7   9
ATOM      9  O   UNL     1      43.468   2.143  12.462  0.00  0.00    +0.000 OA
ATOM     10  H   UNL     1      44.110   2.298  13.194  0.00  0.00    +0.000 HD
ENDBRANCH   7   9
ENDBRANCH   4   7
BRANCH   6  11
ATOM     11  N   UNL     1      46.405   5.527  14.310  0.00  0.00    +0.000 N 
ATOM     12  H   UNL     1      46.727   6.398  14.711  0.00  0.00    +0.000 HD
BRANCH  11  13
ATOM     13  C   UNL     1      47.006   4.278  14.781  0.00  0.00    +0.000 C 
BRANCH  13  14
ATOM     14  C   UNL     1      47.672   4.318  16.145  0.00  0.00    +0.000 A 
ATOM     15  C   UNL     1      48.433   5.440  16.513  0.00  0.00    +0.000 A 
ATOM     16  C   UNL     1      49.120   5.438  17.722  0.00  0.00    +0.000 A 
ATOM     17  N   UNL     1      49.084   4.399  18.588  0.00  0.00    +0.000 NA
ATOM     18  C   UNL     1      48.297   3.361  18.260  0.00  0.00    +0.000 A 
ATOM     19  C   UNL     1      47.560   3.283  17.078  0.00  0.00    +0.000 A 
ENDBRANCH  13  14
ENDBRANCH  11  13
ENDBRANCH   6  11
BRANCH   1  20
ATOM     20  C   UNL     1      45.530   8.132  12.919  0.00  0.00    +0.000 C 
BRANCH  20  21
ATOM     21  N   UNL     1      46.783   8.201  13.678  0.00  0.00    +0.000 NA
ATOM     22  H   UNL     1      46.679   8.846  14.464  0.00  0.00    +0.000 HD
BRANCH  21  24
ATOM     23  C   UNL     1      47.755   9.824  11.994  0.00  0.00    +0.000 C 
ATOM     24  C   UNL     1      48.019   8.592  12.888  0.00  0.00    +0.000 C 
ATOM     25  C   UNL     1      49.038   9.042  13.967  0.00  0.00    +0.000 C 
BRANCH  24  26
ATOM     26  C   UNL     1      48.707   7.464  12.020  0.00  0.00    +0.000 C 
ATOM     27  F   UNL     1      49.848   7.909  11.443  0.00  0.00    +0.000 F 
ATOM     28  F   UNL     1      49.034   6.376  12.754  0.00  0.00    +0.000 F 
ATOM     29  F   UNL     1      47.911   7.029  11.014  0.00  0.00    +0.000 F 
ENDBRANCH  24  26
ENDBRANCH  21  24
ENDBRANCH  20  21
ENDBRANCH   1  20
TORSDOF 9
ENDMDL
MODEL 3
REMARK VINA RESULT:    -6.627      3.551      5.822
REMARK INTER + INTRA:         -10.947
REMARK INTER:                  -9.663
REMARK INTRA:                  -1.284
REMARK UNBOUND:                -1.027
REMARK  Name = 
REMARK  11 active torsions:
REMARK  status: ('A' for Active; 'I' for Inactive)
REMARK    1  A    between atoms: C_1  and  C_2
REMARK    2  A    between atoms: C_2  and  C_3
REMARK    3  A    between atoms: C_2  and  N_4
REMARK    4  A    between atoms: C_2  and  C_23
REMARK    5  A    between atoms: N_4  and  C_5
REMARK    6  A    between atoms: C_5  and  C_6
REMARK    7  A    between atoms: C_9  and  C_10
REMARK    8  A    between atoms: C_10  and  O_12
REMARK    9  A    between atoms: C_14  and  N_15
REMARK   10  A    between atoms: N_15  and  C_16
REMARK   11  A    between atoms: C_16  and  C_17
REMARK                            x       y       z     vdW  Elec       q    Type
REMARK                         _______ _______ _______ _____ _____    ______ ____
ROOT
ATOM      1  C   UNL     1      46.510   4.846  13.734  0.00  0.00    +0.000 A 
ATOM      2  C   UNL     1      46.470   3.472  13.521  0.00  0.00    +0.000 A 
ATOM      3  N   UNL     1      45.645   2.847  12.665  0.00  0.00    +0.000 NA
ATOM      4  C   UNL     1      44.816   3.657  11.996  0.00  0.00    +0.000 A 
ATOM      5  N   UNL     1      44.751   4.995  12.121  0.00  0.00    +0.000 NA
ATOM      6  C   UNL     1      45.603   5.597  12.983  0.00  0.00    +0.000 A 
ENDROOT
BRANCH   4   7
ATOM      7  C   UNL     1      43.829   3.047  11.035  0.00  0.00    +0.000 C 
ATOM      8  O   UNL     1      43.763   3.250   9.837  0.00  0.00    +0.000 OA
BRANCH   7   9
ATOM      9  O   UNL     1      42.981   2.200  11.699  0.00  0.00    +0.000 OA
ATOM     10  H   UNL     1      42.051   2.351  11.409  0.00  0.00    +0.000 HD
ENDBRANCH   7   9
ENDBRANCH   4   7
BRANCH   6  11
ATOM     11  N   UNL     1      45.441   6.960  13.128  0.00  0.00    +0.000 N 
ATOM     12  H   UNL     1      44.791   7.320  13.815  0.00  0.00    +0.000 HD
BRANCH  11  13
ATOM     13  C   UNL     1      46.120   7.911  12.246  0.00  0.00    +0.000 C 
BRANCH  13  14
ATOM     14  C   UNL     1      47.601   8.132  12.498  0.00  0.00    +0.000 A 
ATOM     15  C   UNL     1      48.542   7.646  11.575  0.00  0.00    +0.000 A 
ATOM     16  C   UNL     1      49.900   7.764  11.852  0.00  0.00    +0.000 A 
ATOM     17  N   UNL     1      50.375   8.346  12.978  0.00  0.00    +0.000 NA
ATOM     18  C   UNL     1      49.468   8.871  13.819  0.00  0.00    +0.000 A 
ATOM     19  C   UNL     1      48.089   8.814  13.616  0.00  0.00    +0.000 A 
ENDBRANCH  13  14
ENDBRANCH  11  13
ENDBRANCH   6  11
BRANCH   1  20
ATOM     20  C   UNL     1      47.461   5.350  14.806  0.00  0.00    +0.000 C 
BRANCH  20  21
ATOM     21  N   UNL     1      47.124   4.876  16.152  0.00  0.00    +0.000 NA
ATOM     22  H   UNL     1      46.424   5.491  16.573  0.00  0.00    +0.000 HD
BRANCH  21  24
ATOM     23  C   UNL     1      49.428   5.716  16.783  0.00  0.00    +0.000 C 
ATOM     24  C   UNL     1      48.286   4.731  17.118  0.00  0.00    +0.000 C 
ATOM     25  C   UNL     1      47.709   5.177  18.486  0.00  0.00    +0.000 C 
BRANCH  24  26
ATOM     26  C   UNL     1      48.893   3.283  17.303  0.00  0.00    +0.000 C 
ATOM     27  F   UNL     1      48.469   2.712  18.455  0.00  0.00    +0.000 F 
ATOM     28  F   UNL     1      48.549   2.447  16.298  0.00  0.00    +0.000 F 
ATOM     29  F   UNL     1      50.247   3.293  17.354  0.00  0.00    +0.000 F 
ENDBRANCH  24  26
ENDBRANCH  21  24
ENDBRANCH  20  21
ENDBRANCH   1  20
TORSDOF 9
ENDMDL
MODEL 4
REMARK VINA RESULT:    -6.339      4.330      7.478
REMARK INTER + INTRA:         -10.516
REMARK INTER:                  -9.352
REMARK INTRA:                  -1.163
REMARK UNBOUND:                -1.027
REMARK  Name = 
REMARK  11 active torsions:
REMARK  status: ('A' for Active; 'I' for Inactive)
REMARK    1  A    between atoms: C_1  and  C_2
REMARK    2  A    between atoms: C_2  and  C_3
REMARK    3  A    between atoms: C_2  and  N_4
REMARK    4  A    between atoms: C_2  and  C_23
REMARK    5  A    between atoms: N_4  and  C_5
REMARK    6  A    between atoms: C_5  and  C_6
REMARK    7  A    between atoms: C_9  and  C_10
REMARK    8  A    between atoms: C_10  and  O_12
REMARK    9  A    between atoms: C_14  and  N_15
REMARK   10  A    between atoms: N_15  and  C_16
REMARK   11  A    between atoms: C_16  and  C_17
REMARK                            x       y       z     vdW  Elec       q    Type
REMARK                         _______ _______ _______ _____ _____    ______ ____
ROOT
ATOM      1  C   UNL     1      44.987   4.681  11.663  0.00  0.00    +0.000 A 
ATOM      2  C   UNL     1      44.675   5.779  10.868  0.00  0.00    +0.000 A 
ATOM      3  N   UNL     1      44.867   7.062  11.213  0.00  0.00    +0.000 NA
ATOM      4  C   UNL     1      45.400   7.240  12.429  0.00  0.00    +0.000 A 
ATOM      5  N   UNL     1      45.734   6.264  13.293  0.00  0.00    +0.000 NA
ATOM      6  C   UNL     1      45.538   4.981  12.911  0.00  0.00    +0.000 A 
ENDROOT
BRANCH   4   7
ATOM      7  C   UNL     1      45.624   8.646  12.921  0.00  0.00    +0.000 C 
ATOM      8  O   UNL     1      45.151   9.664  12.448  0.00  0.00    +0.000 OA
BRANCH   7   9
ATOM      9  O   UNL     1      46.458   8.643  14.008  0.00  0.00    +0.000 OA
ATOM     10  H   UNL     1      46.491   9.539  14.416  0.00  0.00    +0.000 HD
ENDBRANCH   7   9
ENDBRANCH   4   7
BRANCH   6  11
ATOM     11  N   UNL     1      45.826   4.024  13.864  0.00  0.00    +0.000 N 
ATOM     12  H   UNL     1      45.074   3.585  14.381  0.00  0.00    +0.000 HD
BRANCH  11  13
ATOM     13  C   UNL     1      47.206   3.686  14.219  0.00  0.00    +0.000 C 
BRANCH  13  14
ATOM     14  C   UNL     1      47.630   3.982  15.646  0.00  0.00    +0.000 A 
ATOM     15  C   UNL     1      47.770   2.926  16.562  0.00  0.00    +0.000 A 
ATOM     16  C   UNL     1      48.066   3.204  17.892  0.00  0.00    +0.000 A 
ATOM     17  N   UNL     1      48.243   4.461  18.360  0.00  0.00    +0.000 NA
ATOM     18  C   UNL     1      48.178   5.459  17.463  0.00  0.00    +0.000 A 
ATOM     19  C   UNL     1      47.903   5.273  16.107  0.00  0.00    +0.000 A 
ENDBRANCH  13  14
ENDBRANCH  11  13
ENDBRANCH   6  11
BRANCH   1  20
ATOM     20  C   UNL     1      44.616   3.311  11.122  0.00  0.00    +0.000 C 
BRANCH  20  21
ATOM     21  N   UNL     1      45.695   2.674  10.359  0.00  0.00    +0.000 NA
ATOM     22  H   UNL     1      46.546   3.236  10.422  0.00  0.00    +0.000 HD
BRANCH  21  24
ATOM     23  C   UNL     1      46.415   1.400   8.293  0.00  0.00    +0.000 C 
ATOM     24  C   UNL     1      45.402   2.398   8.896  0.00  0.00    +0.000 C 
ATOM     25  C   UNL     1      44.029   1.678   8.906  0.00  0.00    +0.000 C 
BRANCH  24  26
ATOM     26  C   UNL     1      45.280   3.649   7.936  0.00  0.00    +0.000 C 
ATOM     27  F   UNL     1      44.058   4.226   8.028  0.00  0.00    +0.000 F 
ATOM     28  F   UNL     1      46.191   4.607   8.220  0.00  0.00    +0.000 F 
ATOM     29  F   UNL     1      45.454   3.321   6.634  0.00  0.00    +0.000 F 
ENDBRANCH  24  26
ENDBRANCH  21  24
ENDBRANCH  20  21
ENDBRANCH   1  20
TORSDOF 9
ENDMDL
MODEL 5
REMARK VINA RESULT:    -6.324      3.474      5.888
REMARK INTER + INTRA:         -10.493
REMARK INTER:                  -8.828
REMARK INTRA:                  -1.665
REMARK UNBOUND:                -1.027
REMARK  Name = 
REMARK  11 active torsions:
REMARK  status: ('A' for Active; 'I' for Inactive)
REMARK    1  A    between atoms: C_1  and  C_2
REMARK    2  A    between atoms: C_2  and  C_3
REMARK    3  A    between atoms: C_2  and  N_4
REMARK    4  A    between atoms: C_2  and  C_23
REMARK    5  A    between atoms: N_4  and  C_5
REMARK    6  A    between atoms: C_5  and  C_6
REMARK    7  A    between atoms: C_9  and  C_10
REMARK    8  A    between atoms: C_10  and  O_12
REMARK    9  A    between atoms: C_14  and  N_15
REMARK   10  A    between atoms: N_15  and  C_16
REMARK   11  A    between atoms: C_16  and  C_17
REMARK                            x       y       z     vdW  Elec       q    Type
REMARK                         _______ _______ _______ _____ _____    ______ ____
ROOT
ATOM      1  C   UNL     1      46.845   6.114  12.733  0.00  0.00    +0.000 A 
ATOM      2  C   UNL     1      46.572   6.399  11.400  0.00  0.00    +0.000 A 
ATOM      3  N   UNL     1      45.583   5.847  10.678  0.00  0.00    +0.000 NA
ATOM      4  C   UNL     1      44.837   4.956  11.343  0.00  0.00    +0.000 A 
ATOM      5  N   UNL     1      45.006   4.587  12.626  0.00  0.00    +0.000 NA
ATOM      6  C   UNL     1      46.004   5.170  13.329  0.00  0.00    +0.000 A 
ENDROOT
BRANCH   4   7
ATOM      7  C   UNL     1      43.723   4.257  10.609  0.00  0.00    +0.000 C 
ATOM      8  O   UNL     1      42.992   3.391  11.055  0.00  0.00    +0.000 OA
BRANCH   7   9
ATOM      9  O   UNL     1      43.625   4.732   9.327  0.00  0.00    +0.000 OA
ATOM     10  H   UNL     1      43.955   5.660   9.281  0.00  0.00    +0.000 HD
ENDBRANCH   7   9
ENDBRANCH   4   7
BRANCH   6  11
ATOM     11  N   UNL     1      46.182   4.700  14.615  0.00  0.00    +0.000 N 
ATOM     12  H   UNL     1      45.677   5.126  15.382  0.00  0.00    +0.000 HD
BRANCH  11  13
ATOM     13  C   UNL     1      47.160   3.654  14.921  0.00  0.00    +0.000 C 
BRANCH  13  14
ATOM     14  C   UNL     1      47.757   3.670  16.316  0.00  0.00    +0.000 A 
ATOM     15  C   UNL     1      47.302   4.612  17.254  0.00  0.00    +0.000 A 
ATOM     16  C   UNL     1      47.914   4.691  18.501  0.00  0.00    +0.000 A 
ATOM     17  N   UNL     1      48.934   3.883  18.873  0.00  0.00    +0.000 NA
ATOM     18  C   UNL     1      49.313   2.939  17.996  0.00  0.00    +0.000 A 
ATOM     19  C   UNL     1      48.748   2.776  16.731  0.00  0.00    +0.000 A 
ENDBRANCH  13  14
ENDBRANCH  11  13
ENDBRANCH   6  11
BRANCH   1  20
ATOM     20  C   UNL     1      48.060   6.785  13.348  0.00  0.00    +0.000 C 
BRANCH  20  21
ATOM     21  N   UNL     1      47.835   7.257  14.718  0.00  0.00    +0.000 NA
ATOM     22  H   UNL     1      46.965   7.790  14.765  0.00  0.00    +0.000 HD
BRANCH  21  24
ATOM     23  C   UNL     1      49.783   8.803  14.242  0.00  0.00    +0.000 C 
ATOM     24  C   UNL     1      48.949   8.088  15.328  0.00  0.00    +0.000 C 
ATOM     25  C   UNL     1      48.211   9.200  16.118  0.00  0.00    +0.000 C 
BRANCH  24  26
ATOM     26  C   UNL     1      49.928   7.357  16.331  0.00  0.00    +0.000 C 
ATOM     27  F   UNL     1      50.028   6.036  16.052  0.00  0.00    +0.000 F 
ATOM     28  F   UNL     1      51.181   7.864  16.291  0.00  0.00    +0.000 F 
ATOM     29  F   UNL     1      49.513   7.448  17.617  0.00  0.00    +0.000 F 
ENDBRANCH  24  26
ENDBRANCH  21  24
ENDBRANCH  20  21
ENDBRANCH   1  20
TORSDOF 9
ENDMDL
MODEL 6
REMARK VINA RESULT:    -6.317      3.493      5.760
REMARK INTER + INTRA:         -10.483
REMARK INTER:                  -9.547
REMARK INTRA:                  -0.936
REMARK UNBOUND:                -1.027
REMARK  Name = 
REMARK  11 active torsions:
REMARK  status: ('A' for Active; 'I' for Inactive)
REMARK    1  A    between atoms: C_1  and  C_2
REMARK    2  A    between atoms: C_2  and  C_3
REMARK    3  A    between atoms: C_2  and  N_4
REMARK    4  A    between atoms: C_2  and  C_23
REMARK    5  A    between atoms: N_4  and  C_5
REMARK    6  A    between atoms: C_5  and  C_6
REMARK    7  A    between atoms: C_9  and  C_10
REMARK    8  A    between atoms: C_10  and  O_12
REMARK    9  A    between atoms: C_14  and  N_15
REMARK   10  A    between atoms: N_15  and  C_16
REMARK   11  A    between atoms: C_16  and  C_17
REMARK                            x       y       z     vdW  Elec       q    Type
REMARK                         _______ _______ _______ _____ _____    ______ ____
ROOT
ATOM      1  C   UNL     1      46.754   5.271  13.120  0.00  0.00    +0.000 A 
ATOM      2  C   UNL     1      45.974   5.784  12.089  0.00  0.00    +0.000 A 
ATOM      3  N   UNL     1      45.013   5.109  11.439  0.00  0.00    +0.000 NA
ATOM      4  C   UNL     1      44.838   3.847  11.852  0.00  0.00    +0.000 A 
ATOM      5  N   UNL     1      45.534   3.235  12.827  0.00  0.00    +0.000 NA
ATOM      6  C   UNL     1      46.488   3.945  13.471  0.00  0.00    +0.000 A 
ENDROOT
BRANCH   4   7
ATOM      7  C   UNL     1      43.804   2.997  11.161  0.00  0.00    +0.000 C 
ATOM      8  O   UNL     1      42.979   2.280  11.697  0.00  0.00    +0.000 OA
BRANCH   7   9
ATOM      9  O   UNL     1      43.907   3.134   9.802  0.00  0.00    +0.000 OA
ATOM     10  H   UNL     1      44.400   2.371   9.418  0.00  0.00    +0.000 HD
ENDBRANCH   7   9
ENDBRANCH   4   7
BRANCH   6  11
ATOM     11  N   UNL     1      47.223   3.246  14.408  0.00  0.00    +0.000 N 
ATOM     12  H   UNL     1      47.750   2.429  14.129  0.00  0.00    +0.000 HD
BRANCH  11  13
ATOM     13  C   UNL     1      47.188   3.601  15.829  0.00  0.00    +0.000 C 
BRANCH  13  14
ATOM     14  C   UNL     1      48.512   3.559  16.571  0.00  0.00    +0.000 A 
ATOM     15  C   UNL     1      49.070   4.751  17.062  0.00  0.00    +0.000 A 
ATOM     16  C   UNL     1      50.327   4.727  17.657  0.00  0.00    +0.000 A 
ATOM     17  N   UNL     1      51.050   3.593  17.806  0.00  0.00    +0.000 NA
ATOM     18  C   UNL     1      50.477   2.449  17.398  0.00  0.00    +0.000 A 
ATOM     19  C   UNL     1      49.216   2.375  16.805  0.00  0.00    +0.000 A 
ENDBRANCH  13  14
ENDBRANCH  11  13
ENDBRANCH   6  11
BRANCH   1  20
ATOM     20  C   UNL     1      47.846   6.171  13.671  0.00  0.00    +0.000 C 
BRANCH  20  21
ATOM     21  N   UNL     1      48.975   6.348  12.752  0.00  0.00    +0.000 NA
ATOM     22  H   UNL     1      49.721   5.690  12.986  0.00  0.00    +0.000 HD
BRANCH  21  24
ATOM     23  C   UNL     1      50.431   8.059  13.921  0.00  0.00    +0.000 C 
ATOM     24  C   UNL     1      49.564   7.745  12.682  0.00  0.00    +0.000 C 
ATOM     25  C   UNL     1      50.531   7.695  11.471  0.00  0.00    +0.000 C 
BRANCH  24  26
ATOM     26  C   UNL     1      48.557   8.941  12.442  0.00  0.00    +0.000 C 
ATOM     27  F   UNL     1      49.155   9.971  11.798  0.00  0.00    +0.000 F 
ATOM     28  F   UNL     1      47.491   8.575  11.696  0.00  0.00    +0.000 F 
ATOM     29  F   UNL     1      48.067   9.444  13.600  0.00  0.00    +0.000 F 
ENDBRANCH  24  26
ENDBRANCH  21  24
ENDBRANCH  20  21
ENDBRANCH   1  20
TORSDOF 9
ENDMDL
MODEL 7
REMARK VINA RESULT:    -6.243      3.914      5.527
REMARK INTER + INTRA:         -10.372
REMARK INTER:                  -8.895
REMARK INTRA:                  -1.477
REMARK UNBOUND:                -1.027
REMARK  Name = 
REMARK  11 active torsions:
REMARK  status: ('A' for Active; 'I' for Inactive)
REMARK    1  A    between atoms: C_1  and  C_2
REMARK    2  A    between atoms: C_2  and  C_3
REMARK    3  A    between atoms: C_2  and  N_4
REMARK    4  A    between atoms: C_2  and  C_23
REMARK    5  A    between atoms: N_4  and  C_5
REMARK    6  A    between atoms: C_5  and  C_6
REMARK    7  A    between atoms: C_9  and  C_10
REMARK    8  A    between atoms: C_10  and  O_12
REMARK    9  A    between atoms: C_14  and  N_15
REMARK   10  A    between atoms: N_15  and  C_16
REMARK   11  A    between atoms: C_16  and  C_17
REMARK                            x       y       z     vdW  Elec       q    Type
REMARK                         _______ _______ _______ _____ _____    ______ ____
ROOT
ATOM      1  C   UNL     1      48.695   6.452  15.674  0.00  0.00    +0.000 A 
ATOM      2  C   UNL     1      49.784   6.342  16.532  0.00  0.00    +0.000 A 
ATOM      3  N   UNL     1      50.130   5.232  17.203  0.00  0.00    +0.000 NA
ATOM      4  C   UNL     1      49.326   4.181  16.998  0.00  0.00    +0.000 A 
ATOM      5  N   UNL     1      48.239   4.164  16.204  0.00  0.00    +0.000 NA
ATOM      6  C   UNL     1      47.924   5.295  15.532  0.00  0.00    +0.000 A 
ENDROOT
BRANCH   4   7
ATOM      7  C   UNL     1      49.612   2.898  17.732  0.00  0.00    +0.000 C 
ATOM      8  O   UNL     1      50.306   1.977  17.340  0.00  0.00    +0.000 OA
BRANCH   7   9
ATOM      9  O   UNL     1      48.973   2.890  18.944  0.00  0.00    +0.000 OA
ATOM     10  H   UNL     1      48.938   1.974  19.306  0.00  0.00    +0.000 HD
ENDBRANCH   7   9
ENDBRANCH   4   7
BRANCH   6  11
ATOM     11  N   UNL     1      46.758   5.246  14.794  0.00  0.00    +0.000 N 
ATOM     12  H   UNL     1      46.003   5.888  15.000  0.00  0.00    +0.000 HD
BRANCH  11  13
ATOM     13  C   UNL     1      46.541   4.220  13.772  0.00  0.00    +0.000 C 
BRANCH  13  14
ATOM     14  C   UNL     1      45.322   4.395  12.884  0.00  0.00    +0.000 A 
ATOM     15  C   UNL     1      45.001   3.402  11.943  0.00  0.00    +0.000 A 
ATOM     16  C   UNL     1      43.941   3.605  11.065  0.00  0.00    +0.000 A 
ATOM     17  N   UNL     1      43.178   4.722  11.076  0.00  0.00    +0.000 NA
ATOM     18  C   UNL     1      43.448   5.633  12.026  0.00  0.00    +0.000 A 
ATOM     19  C   UNL     1      44.479   5.507  12.958  0.00  0.00    +0.000 A 
ENDBRANCH  13  14
ENDBRANCH  11  13
ENDBRANCH   6  11
BRANCH   1  20
ATOM     20  C   UNL     1      48.426   7.820  15.073  0.00  0.00    +0.000 C 
BRANCH  20  21
ATOM     21  N   UNL     1      47.193   7.876  14.281  0.00  0.00    +0.000 NA
ATOM     22  H   UNL     1      46.728   6.967  14.294  0.00  0.00    +0.000 HD
BRANCH  21  24
ATOM     23  C   UNL     1      46.016   8.846  12.259  0.00  0.00    +0.000 C 
ATOM     24  C   UNL     1      47.349   8.321  12.837  0.00  0.00    +0.000 C 
ATOM     25  C   UNL     1      48.306   9.538  12.910  0.00  0.00    +0.000 C 
BRANCH  24  26
ATOM     26  C   UNL     1      47.974   7.279  11.825  0.00  0.00    +0.000 C 
ATOM     27  F   UNL     1      48.676   6.319  12.473  0.00  0.00    +0.000 F 
ATOM     28  F   UNL     1      47.032   6.649  11.087  0.00  0.00    +0.000 F 
ATOM     29  F   UNL     1      48.831   7.858  10.951  0.00  0.00    +0.000 F 
ENDBRANCH  24  26
ENDBRANCH  21  24
ENDBRANCH  20  21
ENDBRANCH   1  20
TORSDOF 9
ENDMDL
MODEL 8
REMARK VINA RESULT:    -6.216      4.300      7.267
REMARK INTER + INTRA:         -10.332
REMARK INTER:                  -8.990
REMARK INTRA:                  -1.342
REMARK UNBOUND:                -1.027
REMARK  Name = 
REMARK  11 active torsions:
REMARK  status: ('A' for Active; 'I' for Inactive)
REMARK    1  A    between atoms: C_1  and  C_2
REMARK    2  A    between atoms: C_2  and  C_3
REMARK    3  A    between atoms: C_2  and  N_4
REMARK    4  A    between atoms: C_2  and  C_23
REMARK    5  A    between atoms: N_4  and  C_5
REMARK    6  A    between atoms: C_5  and  C_6
REMARK    7  A    between atoms: C_9  and  C_10
REMARK    8  A    between atoms: C_10  and  O_12
REMARK    9  A    between atoms: C_14  and  N_15
REMARK   10  A    between atoms: N_15  and  C_16
REMARK   11  A    between atoms: C_16  and  C_17
REMARK                            x       y       z     vdW  Elec       q    Type
REMARK                         _______ _______ _______ _____ _____    ______ ____
ROOT
ATOM      1  C   UNL     1      46.842   4.747  14.097  0.00  0.00    +0.000 A 
ATOM      2  C   UNL     1      47.154   4.128  15.303  0.00  0.00    +0.000 A 
ATOM      3  N   UNL     1      48.054   4.579  16.192  0.00  0.00    +0.000 NA
ATOM      4  C   UNL     1      48.672   5.711  15.837  0.00  0.00    +0.000 A 
ATOM      5  N   UNL     1      48.468   6.396  14.696  0.00  0.00    +0.000 NA
ATOM      6  C   UNL     1      47.547   5.923  13.826  0.00  0.00    +0.000 A 
ENDROOT
BRANCH   4   7
ATOM      7  C   UNL     1      49.723   6.279  16.754  0.00  0.00    +0.000 C 
ATOM      8  O   UNL     1      49.594   7.230  17.504  0.00  0.00    +0.000 OA
BRANCH   7   9
ATOM      9  O   UNL     1      50.889   5.569  16.640  0.00  0.00    +0.000 OA
ATOM     10  H   UNL     1      51.322   5.480  17.521  0.00  0.00    +0.000 HD
ENDBRANCH   7   9
ENDBRANCH   4   7
BRANCH   6  11
ATOM     11  N   UNL     1      47.432   6.619  12.639  0.00  0.00    +0.000 N 
ATOM     12  H   UNL     1      47.053   6.162  11.820  0.00  0.00    +0.000 HD
BRANCH  11  13
ATOM     13  C   UNL     1      47.935   7.988  12.503  0.00  0.00    +0.000 C 
BRANCH  13  14
ATOM     14  C   UNL     1      46.901   9.066  12.233  0.00  0.00    +0.000 A 
ATOM     15  C   UNL     1      47.323  10.376  11.950  0.00  0.00    +0.000 A 
ATOM     16  C   UNL     1      46.376  11.384  11.796  0.00  0.00    +0.000 A 
ATOM     17  N   UNL     1      45.044  11.166  11.893  0.00  0.00    +0.000 NA
ATOM     18  C   UNL     1      44.650   9.897  12.093  0.00  0.00    +0.000 A 
ATOM     19  C   UNL     1      45.525   8.821  12.242  0.00  0.00    +0.000 A 
ENDBRANCH  13  14
ENDBRANCH  11  13
ENDBRANCH   6  11
BRANCH   1  20
ATOM     20  C   UNL     1      45.854   4.033  13.192  0.00  0.00    +0.000 C 
BRANCH  20  21
ATOM     21  N   UNL     1      44.751   4.890  12.744  0.00  0.00    +0.000 NA
ATOM     22  H   UNL     1      44.122   5.086  13.525  0.00  0.00    +0.000 HD
BRANCH  21  24
ATOM     23  C   UNL     1      43.386   2.947  11.863  0.00  0.00    +0.000 C 
ATOM     24  C   UNL     1      43.930   4.365  11.580  0.00  0.00    +0.000 C 
ATOM     25  C   UNL     1      42.697   5.304  11.523  0.00  0.00    +0.000 C 
BRANCH  24  26
ATOM     26  C   UNL     1      44.610   4.379  10.153  0.00  0.00    +0.000 C 
ATOM     27  F   UNL     1      45.219   3.200   9.882  0.00  0.00    +0.000 F 
ATOM     28  F   UNL     1      43.720   4.601   9.160  0.00  0.00    +0.000 F 
ATOM     29  F   UNL     1      45.561   5.338  10.044  0.00  0.00    +0.000 F 
ENDBRANCH  24  26
ENDBRANCH  21  24
ENDBRANCH  20  21
ENDBRANCH   1  20
TORSDOF 9
ENDMDL
MODEL 9
REMARK VINA RESULT:    -6.208      4.459      7.076
REMARK INTER + INTRA:         -10.319
REMARK INTER:                  -9.209
REMARK INTRA:                  -1.110
REMARK UNBOUND:                -1.027
REMARK  Name = 
REMARK  11 active torsions:
REMARK  status: ('A' for Active; 'I' for Inactive)
REMARK    1  A    between atoms: C_1  and  C_2
REMARK    2  A    between atoms: C_2  and  C_3
REMARK    3  A    between atoms: C_2  and  N_4
REMARK    4  A    between atoms: C_2  and  C_23
REMARK    5  A    between atoms: N_4  and  C_5
REMARK    6  A    between atoms: C_5  and  C_6
REMARK    7  A    between atoms: C_9  and  C_10
REMARK    8  A    between atoms: C_10  and  O_12
REMARK    9  A    between atoms: C_14  and  N_15
REMARK   10  A    between atoms: N_15  and  C_16
REMARK   11  A    between atoms: C_16  and  C_17
REMARK                            x       y       z     vdW  Elec       q    Type
REMARK                         _______ _______ _______ _____ _____    ______ ____
ROOT
ATOM      1  C   UNL     1      46.950   5.068  14.163  0.00  0.00    +0.000 A 
ATOM      2  C   UNL     1      46.869   3.680  14.161  0.00  0.00    +0.000 A 
ATOM      3  N   UNL     1      47.525   2.867  15.004  0.00  0.00    +0.000 NA
ATOM      4  C   UNL     1      48.308   3.495  15.891  0.00  0.00    +0.000 A 
ATOM      5  N   UNL     1      48.479   4.826  15.986  0.00  0.00    +0.000 NA
ATOM      6  C   UNL     1      47.795   5.619  15.130  0.00  0.00    +0.000 A 
ENDROOT
BRANCH   4   7
ATOM      7  C   UNL     1      49.111   2.667  16.859  0.00  0.00    +0.000 C 
ATOM      8  O   UNL     1      49.176   2.821  18.065  0.00  0.00    +0.000 OA
BRANCH   7   9
ATOM      9  O   UNL     1      49.788   1.679  16.193  0.00  0.00    +0.000 OA
ATOM     10  H   UNL     1      50.430   1.238  16.797  0.00  0.00    +0.000 HD
ENDBRANCH   7   9
ENDBRANCH   4   7
BRANCH   6  11
ATOM     11  N   UNL     1      48.066   6.970  15.220  0.00  0.00    +0.000 N 
ATOM     12  H   UNL     1      47.306   7.638  15.218  0.00  0.00    +0.000 HD
BRANCH  11  13
ATOM     13  C   UNL     1      49.440   7.477  15.225  0.00  0.00    +0.000 C 
BRANCH  13  14
ATOM     14  C   UNL     1      50.051   7.793  13.872  0.00  0.00    +0.000 A 
ATOM     15  C   UNL     1      51.275   8.479  13.807  0.00  0.00    +0.000 A 
ATOM     16  C   UNL     1      51.788   8.852  12.568  0.00  0.00    +0.000 A 
ATOM     17  N   UNL     1      51.167   8.573  11.399  0.00  0.00    +0.000 NA
ATOM     18  C   UNL     1      50.034   7.855  11.469  0.00  0.00    +0.000 A 
ATOM     19  C   UNL     1      49.455   7.424  12.663  0.00  0.00    +0.000 A 
ENDBRANCH  13  14
ENDBRANCH  11  13
ENDBRANCH   6  11
BRANCH   1  20
ATOM     20  C   UNL     1      46.191   5.804  13.073  0.00  0.00    +0.000 C 
BRANCH  20  21
ATOM     21  N   UNL     1      44.799   5.364  12.933  0.00  0.00    +0.000 NA
ATOM     22  H   UNL     1      44.649   4.507  13.469  0.00  0.00    +0.000 HD
BRANCH  21  24
ATOM     23  C   UNL     1      42.995   5.902  11.240  0.00  0.00    +0.000 C 
ATOM     24  C   UNL     1      44.310   5.141  11.513  0.00  0.00    +0.000 C 
ATOM     25  C   UNL     1      45.395   5.803  10.624  0.00  0.00    +0.000 C 
BRANCH  24  26
ATOM     26  C   UNL     1      44.147   3.643  11.034  0.00  0.00    +0.000 C 
ATOM     27  F   UNL     1      43.130   3.024  11.679  0.00  0.00    +0.000 F 
ATOM     28  F   UNL     1      43.889   3.550   9.710  0.00  0.00    +0.000 F 
ATOM     29  F   UNL     1      45.257   2.902  11.267  0.00  0.00    +0.000 F 
ENDBRANCH  24  26
ENDBRANCH  21  24
ENDBRANCH  20  21
ENDBRANCH   1  20
TORSDOF 9
ENDMDL
