MODEL 1
REMARK VINA RESULT:    -7.736      0.000      0.000
REMARK INTER + INTRA:         -11.664
REMARK INTER:                 -10.675
REMARK INTRA:                  -0.989
REMARK UNBOUND:                -0.989
REMARK  Name = 
REMARK  7 active torsions:
REMARK  status: ('A' for Active; 'I' for Inactive)
REMARK    1  A    between atoms: N_1  and  C_2
REMARK    2  A    between atoms: C_2  and  C_3
REMARK    3  A    between atoms: C_7  and  C_8
REMARK    4  A    between atoms: C_8  and  C_9
REMARK    5  A    between atoms: C_9  and  C_10
REMARK    6  A    between atoms: C_10  and  C_11
REMARK    7  A    between atoms: C_14  and  C_15
REMARK                            x       y       z     vdW  Elec       q    Type
REMARK                         _______ _______ _______ _____ _____    ______ ____
ROOT
ATOM      1  C   UNL     1      43.394   5.078  10.520  0.00  0.00    +0.000 C 
ENDROOT
BRANCH   1   2
ATOM      2  C   UNL     1      43.547   5.753  11.883  0.00  0.00    +0.000 C 
BRANCH   2   7
ATOM      3  C   UNL     1      46.769   5.218  13.873  0.00  0.00    +0.000 A 
ATOM      4  C   UNL     1      47.677   5.961  13.106  0.00  0.00    +0.000 A 
ATOM      5  C   UNL     1      47.250   6.651  11.971  0.00  0.00    +0.000 A 
ATOM      6  C   UNL     1      45.912   6.593  11.579  0.00  0.00    +0.000 A 
ATOM      7  C   UNL     1      44.990   5.842  12.317  0.00  0.00    +0.000 A 
ATOM      8  C   UNL     1      45.426   5.171  13.470  0.00  0.00    +0.000 A 
BRANCH   3   9
ATOM      9  C   UNL     1      47.235   4.448  15.082  0.00  0.00    +0.000 C 
BRANCH   9  10
ATOM     10  N   UNL     1      47.608   3.077  14.748  0.00  0.00    +0.000 NA
ATOM     11  H   UNL     1      46.807   2.468  14.905  0.00  0.00    +0.000 HD
ATOM     12  H   UNL     1      48.335   2.771  15.393  0.00  0.00    +0.000 HD
ENDBRANCH   9  10
ENDBRANCH   3   9
ENDBRANCH   2   7
ENDBRANCH   1   2
BRANCH   1  13
ATOM     13  C   UNL     1      43.827   3.610  10.580  0.00  0.00    +0.000 C 
BRANCH  13  14
ATOM     14  C   UNL     1      44.835   3.304   9.504  0.00  0.00    +0.000 A 
ATOM     15  C   UNL     1      45.350   4.318   8.702  0.00  0.00    +0.000 A 
ATOM     16  C   UNL     1      46.231   3.981   7.674  0.00  0.00    +0.000 A 
ATOM     17  C   UNL     1      46.578   2.644   7.462  0.00  0.00    +0.000 A 
ATOM     18  C   UNL     1      46.022   1.704   8.316  0.00  0.00    +0.000 A 
ATOM     19  N   UNL     1      45.163   2.000   9.325  0.00  0.00    +0.000 NA
BRANCH  17  20
ATOM     20  C   UNL     1      47.497   2.305   6.349  0.00  0.00    +0.000 C 
ATOM     21  N   UNL     1      47.468   3.055   5.206  0.00  0.00    +0.000 N 
ATOM     22  O   UNL     1      48.283   1.370   6.442  0.00  0.00    +0.000 OA
ATOM     23  H   UNL     1      46.876   3.850   5.028  0.00  0.00    +0.000 HD
ATOM     24  H   UNL     1      48.125   2.792   4.480  0.00  0.00    +0.000 HD
ENDBRANCH  17  20
ENDBRANCH  13  14
ENDBRANCH   1  13
TORSDOF 7
ENDMDL
MODEL 2
REMARK VINA RESULT:    -7.663      1.764      2.355
REMARK INTER + INTRA:         -11.563
REMARK INTER:                 -10.749
REMARK INTRA:                  -0.814
REMARK UNBOUND:                -0.989
REMARK  Name = 
REMARK  7 active torsions:
REMARK  status: ('A' for Active; 'I' for Inactive)
REMARK    1  A    between atoms: N_1  and  C_2
REMARK    2  A    between atoms: C_2  and  C_3
REMARK    3  A    between atoms: C_7  and  C_8
REMARK    4  A    between atoms: C_8  and  C_9
REMARK    5  A    between atoms: C_9  and  C_10
REMARK    6  A    between atoms: C_10  and  C_11
REMARK    7  A    between atoms: C_14  and  C_15
REMARK                            x       y       z     vdW  Elec       q    Type
REMARK                         _______ _______ _______ _____ _____    ______ ____
ROOT
ATOM      1  C   UNL     1      43.262   3.971  11.367  0.00  0.00    +0.000 C 
ENDROOT
BRANCH   1   2
ATOM      2  C   UNL     1      43.385   4.835  12.621  0.00  0.00    +0.000 C 
BRANCH   2   7
ATOM      3  C   UNL     1      46.570   6.889  13.137  0.00  0.00    +0.000 A 
ATOM      4  C   UNL     1      47.466   5.888  13.535  0.00  0.00    +0.000 A 
ATOM      5  C   UNL     1      47.055   4.556  13.610  0.00  0.00    +0.000 A 
ATOM      6  C   UNL     1      45.738   4.212  13.305  0.00  0.00    +0.000 A 
ATOM      7  C   UNL     1      44.819   5.197  12.926  0.00  0.00    +0.000 A 
ATOM      8  C   UNL     1      45.249   6.529  12.830  0.00  0.00    +0.000 A 
BRANCH   3   9
ATOM      9  C   UNL     1      47.005   8.332  13.084  0.00  0.00    +0.000 C 
BRANCH   9  10
ATOM     10  N   UNL     1      46.966   8.964  14.399  0.00  0.00    +0.000 NA
ATOM     11  H   UNL     1      46.018   9.285  14.585  0.00  0.00    +0.000 HD
ATOM     12  H   UNL     1      47.553   9.796  14.377  0.00  0.00    +0.000 HD
ENDBRANCH   9  10
ENDBRANCH   3   9
ENDBRANCH   2   7
ENDBRANCH   1   2
BRANCH   1  13
ATOM     13  C   UNL     1      43.691   4.746  10.118  0.00  0.00    +0.000 C 
BRANCH  13  14
ATOM     14  C   UNL     1      44.620   3.922   9.267  0.00  0.00    +0.000 A 
ATOM     15  C   UNL     1      44.710   2.544   9.442  0.00  0.00    +0.000 A 
ATOM     16  C   UNL     1      45.632   1.827   8.677  0.00  0.00    +0.000 A 
ATOM     17  C   UNL     1      46.446   2.495   7.760  0.00  0.00    +0.000 A 
ATOM     18  C   UNL     1      46.281   3.867   7.648  0.00  0.00    +0.000 A 
ATOM     19  N   UNL     1      45.393   4.592   8.377  0.00  0.00    +0.000 NA
BRANCH  17  20
ATOM     20  C   UNL     1      47.436   1.719   6.975  0.00  0.00    +0.000 C 
ATOM     21  N   UNL     1      48.516   2.362   6.436  0.00  0.00    +0.000 N 
ATOM     22  O   UNL     1      47.304   0.511   6.809  0.00  0.00    +0.000 OA
ATOM     23  H   UNL     1      48.729   3.343   6.521  0.00  0.00    +0.000 HD
ATOM     24  H   UNL     1      49.170   1.786   5.920  0.00  0.00    +0.000 HD
ENDBRANCH  17  20
ENDBRANCH  13  14
ENDBRANCH   1  13
TORSDOF 7
ENDMDL
MODEL 3
REMARK VINA RESULT:    -7.422      2.668      6.140
REMARK INTER + INTRA:         -11.231
REMARK INTER:                 -10.267
REMARK INTRA:                  -0.964
REMARK UNBOUND:                -0.989
REMARK  Name = 
REMARK  7 active torsions:
REMARK  status: ('A' for Active; 'I' for Inactive)
REMARK    1  A    between atoms: N_1  and  C_2
REMARK    2  A    between atoms: C_2  and  C_3
REMARK    3  A    between atoms: C_7  and  C_8
REMARK    4  A    between atoms: C_8  and  C_9
REMARK    5  A    between atoms: C_9  and  C_10
REMARK    6  A    between atoms: C_10  and  C_11
REMARK    7  A    between atoms: C_14  and  C_15
REMARK                            x       y       z     vdW  Elec       q    Type
REMARK                         _______ _______ _______ _____ _____    ______ ____
ROOT
ATOM      1  C   UNL     1      43.308   3.994  11.115  0.00  0.00    +0.000 C 
ENDROOT
BRANCH   1   2
ATOM      2  C   UNL     1      43.995   2.743  10.569  0.00  0.00    +0.000 C 
BRANCH   2   7
ATOM      3  C   UNL     1      46.507   2.310   7.718  0.00  0.00    +0.000 A 
ATOM      4  C   UNL     1      46.741   3.647   7.369  0.00  0.00    +0.000 A 
ATOM      5  C   UNL     1      46.115   4.682   8.065  0.00  0.00    +0.000 A 
ATOM      6  C   UNL     1      45.233   4.392   9.107  0.00  0.00    +0.000 A 
ATOM      7  C   UNL     1      44.968   3.064   9.461  0.00  0.00    +0.000 A 
ATOM      8  C   UNL     1      45.622   2.032   8.770  0.00  0.00    +0.000 A 
BRANCH   3   9
ATOM      9  C   UNL     1      47.160   1.190   6.947  0.00  0.00    +0.000 C 
BRANCH   9  10
ATOM     10  N   UNL     1      48.273   1.664   6.131  0.00  0.00    +0.000 NA
ATOM     11  H   UNL     1      49.143   1.302   6.515  0.00  0.00    +0.000 HD
ATOM     12  H   UNL     1      48.323   2.679   6.208  0.00  0.00    +0.000 HD
ENDBRANCH   9  10
ENDBRANCH   3   9
ENDBRANCH   2   7
ENDBRANCH   1   2
BRANCH   1  13
ATOM     13  C   UNL     1      43.515   4.123  12.627  0.00  0.00    +0.000 C 
BRANCH  13  14
ATOM     14  C   UNL     1      44.829   4.791  12.934  0.00  0.00    +0.000 A 
ATOM     15  C   UNL     1      45.153   6.019  12.364  0.00  0.00    +0.000 A 
ATOM     16  C   UNL     1      46.408   6.570  12.623  0.00  0.00    +0.000 A 
ATOM     17  C   UNL     1      47.315   5.888  13.438  0.00  0.00    +0.000 A 
ATOM     18  C   UNL     1      46.902   4.676  13.968  0.00  0.00    +0.000 A 
ATOM     19  N   UNL     1      45.688   4.113  13.734  0.00  0.00    +0.000 NA
BRANCH  17  20
ATOM     20  C   UNL     1      48.652   6.480  13.681  0.00  0.00    +0.000 C 
ATOM     21  N   UNL     1      49.394   6.917  12.618  0.00  0.00    +0.000 N 
ATOM     22  O   UNL     1      49.097   6.590  14.818  0.00  0.00    +0.000 OA
ATOM     23  H   UNL     1      49.122   6.889  11.649  0.00  0.00    +0.000 HD
ATOM     24  H   UNL     1      50.295   7.326  12.838  0.00  0.00    +0.000 HD
ENDBRANCH  17  20
ENDBRANCH  13  14
ENDBRANCH   1  13
TORSDOF 7
ENDMDL
MODEL 4
REMARK VINA RESULT:    -7.060      1.298      1.576
REMARK INTER + INTRA:         -10.732
REMARK INTER:                 -10.089
REMARK INTRA:                  -0.643
REMARK UNBOUND:                -0.989
REMARK  Name = 
REMARK  7 active torsions:
REMARK  status: ('A' for Active; 'I' for Inactive)
REMARK    1  A    between atoms: N_1  and  C_2
REMARK    2  A    between atoms: C_2  and  C_3
REMARK    3  A    between atoms: C_7  and  C_8
REMARK    4  A    between atoms: C_8  and  C_9
REMARK    5  A    between atoms: C_9  and  C_10
REMARK    6  A    between atoms: C_10  and  C_11
REMARK    7  A    between atoms: C_14  and  C_15
REMARK                            x       y       z     vdW  Elec       q    Type
REMARK                         _______ _______ _______ _____ _____    ______ ____
ROOT
ATOM      1  C   UNL     1      43.831   3.165  11.849  0.00  0.00    +0.000 C 
ENDROOT
BRANCH   1   2
ATOM      2  C   UNL     1      43.710   4.250  12.919  0.00  0.00    +0.000 C 
BRANCH   2   7
ATOM      3  C   UNL     1      46.870   6.395  13.108  0.00  0.00    +0.000 A 
ATOM      4  C   UNL     1      46.520   7.453  12.258  0.00  0.00    +0.000 A 
ATOM      5  C   UNL     1      45.265   7.489  11.649  0.00  0.00    +0.000 A 
ATOM      6  C   UNL     1      44.350   6.458  11.869  0.00  0.00    +0.000 A 
ATOM      7  C   UNL     1      44.684   5.381  12.698  0.00  0.00    +0.000 A 
ATOM      8  C   UNL     1      45.940   5.367  13.324  0.00  0.00    +0.000 A 
BRANCH   3   9
ATOM      9  C   UNL     1      48.237   6.340  13.743  0.00  0.00    +0.000 C 
BRANCH   9  10
ATOM     10  N   UNL     1      49.297   6.637  12.785  0.00  0.00    +0.000 NA
ATOM     11  H   UNL     1      50.057   5.973  12.915  0.00  0.00    +0.000 HD
ATOM     12  H   UNL     1      49.679   7.558  12.998  0.00  0.00    +0.000 HD
ENDBRANCH   9  10
ENDBRANCH   3   9
ENDBRANCH   2   7
ENDBRANCH   1   2
BRANCH   1  13
ATOM     13  C   UNL     1      43.515   3.724  10.459  0.00  0.00    +0.000 C 
BRANCH  13  14
ATOM     14  C   UNL     1      44.607   3.380   9.481  0.00  0.00    +0.000 A 
ATOM     15  C   UNL     1      45.218   4.371   8.718  0.00  0.00    +0.000 A 
ATOM     16  C   UNL     1      46.179   4.000   7.777  0.00  0.00    +0.000 A 
ATOM     17  C   UNL     1      46.508   2.653   7.611  0.00  0.00    +0.000 A 
ATOM     18  C   UNL     1      45.854   1.737   8.420  0.00  0.00    +0.000 A 
ATOM     19  N   UNL     1      44.916   2.067   9.345  0.00  0.00    +0.000 NA
BRANCH  17  20
ATOM     20  C   UNL     1      47.514   2.277   6.588  0.00  0.00    +0.000 C 
ATOM     21  N   UNL     1      47.518   2.925   5.384  0.00  0.00    +0.000 N 
ATOM     22  O   UNL     1      48.344   1.403   6.810  0.00  0.00    +0.000 OA
ATOM     23  H   UNL     1      46.895   3.664   5.102  0.00  0.00    +0.000 HD
ATOM     24  H   UNL     1      48.234   2.642   4.724  0.00  0.00    +0.000 HD
ENDBRANCH  17  20
ENDBRANCH  13  14
ENDBRANCH   1  13
TORSDOF 7
ENDMDL
MODEL 5
REMARK VINA RESULT:    -6.808      1.814      2.451
REMARK INTER + INTRA:         -10.383
REMARK INTER:                  -9.689
REMARK INTRA:                  -0.694
REMARK UNBOUND:                -0.989
REMARK  Name = 
REMARK  7 active torsions:
REMARK  status: ('A' for Active; 'I' for Inactive)
REMARK    1  A    between atoms: N_1  and  C_2
REMARK    2  A    between atoms: C_2  and  C_3
REMARK    3  A    between atoms: C_7  and  C_8
REMARK    4  A    between atoms: C_8  and  C_9
REMARK    5  A    between atoms: C_9  and  C_10
REMARK    6  A    between atoms: C_10  and  C_11
REMARK    7  A    between atoms: C_14  and  C_15
REMARK                            x       y       z     vdW  Elec       q    Type
REMARK                         _______ _______ _______ _____ _____    ______ ____
ROOT
ATOM      1  C   UNL     1      44.277   5.070  11.494  0.00  0.00    +0.000 C 
ENDROOT
BRANCH   1   2
ATOM      2  C   UNL     1      44.932   6.445  11.380  0.00  0.00    +0.000 C 
BRANCH   2   7
ATOM      3  C   UNL     1      48.583   7.271  12.167  0.00  0.00    +0.000 A 
ATOM      4  C   UNL     1      48.726   6.659  13.419  0.00  0.00    +0.000 A 
ATOM      5  C   UNL     1      47.662   5.962  13.995  0.00  0.00    +0.000 A 
ATOM      6  C   UNL     1      46.437   5.884  13.332  0.00  0.00    +0.000 A 
ATOM      7  C   UNL     1      46.264   6.504  12.090  0.00  0.00    +0.000 A 
ATOM      8  C   UNL     1      47.347   7.181  11.509  0.00  0.00    +0.000 A 
BRANCH   3   9
ATOM      9  C   UNL     1      49.722   8.049  11.558  0.00  0.00    +0.000 C 
BRANCH   9  10
ATOM     10  N   UNL     1      50.989   7.781  12.230  0.00  0.00    +0.000 NA
ATOM     11  H   UNL     1      51.754   8.004  11.597  0.00  0.00    +0.000 HD
ATOM     12  H   UNL     1      51.052   6.781  12.418  0.00  0.00    +0.000 HD
ENDBRANCH   9  10
ENDBRANCH   3   9
ENDBRANCH   2   7
ENDBRANCH   1   2
BRANCH   1  13
ATOM     13  C   UNL     1      43.677   4.631  10.155  0.00  0.00    +0.000 C 
BRANCH  13  14
ATOM     14  C   UNL     1      44.677   3.839   9.353  0.00  0.00    +0.000 A 
ATOM     15  C   UNL     1      45.536   4.475   8.461  0.00  0.00    +0.000 A 
ATOM     16  C   UNL     1      46.400   3.697   7.690  0.00  0.00    +0.000 A 
ATOM     17  C   UNL     1      46.389   2.306   7.818  0.00  0.00    +0.000 A 
ATOM     18  C   UNL     1      45.505   1.762   8.738  0.00  0.00    +0.000 A 
ATOM     19  N   UNL     1      44.653   2.492   9.503  0.00  0.00    +0.000 NA
BRANCH  17  20
ATOM     20  C   UNL     1      47.298   1.496   6.972  0.00  0.00    +0.000 C 
ATOM     21  N   UNL     1      48.377   2.096   6.384  0.00  0.00    +0.000 N 
ATOM     22  O   UNL     1      47.101   0.298   6.800  0.00  0.00    +0.000 OA
ATOM     23  H   UNL     1      48.640   3.065   6.469  0.00  0.00    +0.000 HD
ATOM     24  H   UNL     1      48.976   1.498   5.827  0.00  0.00    +0.000 HD
ENDBRANCH  17  20
ENDBRANCH  13  14
ENDBRANCH   1  13
TORSDOF 7
ENDMDL
MODEL 6
REMARK VINA RESULT:    -6.748      2.838      6.993
REMARK INTER + INTRA:         -10.301
REMARK INTER:                  -9.540
REMARK INTRA:                  -0.761
REMARK UNBOUND:                -0.989
REMARK  Name = 
REMARK  7 active torsions:
REMARK  status: ('A' for Active; 'I' for Inactive)
REMARK    1  A    between atoms: N_1  and  C_2
REMARK    2  A    between atoms: C_2  and  C_3
REMARK    3  A    between atoms: C_7  and  C_8
REMARK    4  A    between atoms: C_8  and  C_9
REMARK    5  A    between atoms: C_9  and  C_10
REMARK    6  A    between atoms: C_10  and  C_11
REMARK    7  A    between atoms: C_14  and  C_15
REMARK                            x       y       z     vdW  Elec       q    Type
REMARK                         _______ _______ _______ _____ _____    ______ ____
ROOT
ATOM      1  C   UNL     1      44.237   4.727  10.559  0.00  0.00    +0.000 C 
ENDROOT
BRANCH   1   2
ATOM      2  C   UNL     1      44.128   4.565   9.043  0.00  0.00    +0.000 C 
BRANCH   2   7
ATOM      3  C   UNL     1      46.750   2.629   7.041  0.00  0.00    +0.000 A 
ATOM      4  C   UNL     1      46.612   1.350   7.596  0.00  0.00    +0.000 A 
ATOM      5  C   UNL     1      45.662   1.106   8.590  0.00  0.00    +0.000 A 
ATOM      6  C   UNL     1      44.851   2.143   9.052  0.00  0.00    +0.000 A 
ATOM      7  C   UNL     1      44.984   3.433   8.528  0.00  0.00    +0.000 A 
ATOM      8  C   UNL     1      45.925   3.662   7.513  0.00  0.00    +0.000 A 
BRANCH   3   9
ATOM      9  C   UNL     1      47.796   2.901   5.990  0.00  0.00    +0.000 C 
BRANCH   9  10
ATOM     10  N   UNL     1      48.539   1.697   5.633  0.00  0.00    +0.000 NA
ATOM     11  H   UNL     1      47.948   0.883   5.792  0.00  0.00    +0.000 HD
ATOM     12  H   UNL     1      49.333   1.606   6.267  0.00  0.00    +0.000 HD
ENDBRANCH   9  10
ENDBRANCH   3   9
ENDBRANCH   2   7
ENDBRANCH   1   2
BRANCH   1  13
ATOM     13  C   UNL     1      45.354   5.706  10.930  0.00  0.00    +0.000 C 
BRANCH  13  14
ATOM     14  C   UNL     1      46.014   5.302  12.222  0.00  0.00    +0.000 A 
ATOM     15  C   UNL     1      45.871   4.010  12.720  0.00  0.00    +0.000 A 
ATOM     16  C   UNL     1      46.444   3.697  13.953  0.00  0.00    +0.000 A 
ATOM     17  C   UNL     1      47.143   4.675  14.666  0.00  0.00    +0.000 A 
ATOM     18  C   UNL     1      47.240   5.931  14.088  0.00  0.00    +0.000 A 
ATOM     19  N   UNL     1      46.694   6.266  12.890  0.00  0.00    +0.000 NA
BRANCH  17  20
ATOM     20  C   UNL     1      47.724   4.329  15.986  0.00  0.00    +0.000 C 
ATOM     21  N   UNL     1      46.982   3.598  16.873  0.00  0.00    +0.000 N 
ATOM     22  O   UNL     1      48.858   4.681  16.288  0.00  0.00    +0.000 OA
ATOM     23  H   UNL     1      46.050   3.246  16.723  0.00  0.00    +0.000 HD
ATOM     24  H   UNL     1      47.428   3.375  17.754  0.00  0.00    +0.000 HD
ENDBRANCH  17  20
ENDBRANCH  13  14
ENDBRANCH   1  13
TORSDOF 7
ENDMDL
MODEL 7
REMARK VINA RESULT:    -6.702      1.934      2.653
REMARK INTER + INTRA:         -10.238
REMARK INTER:                  -9.677
REMARK INTRA:                  -0.560
REMARK UNBOUND:                -0.989
REMARK  Name = 
REMARK  7 active torsions:
REMARK  status: ('A' for Active; 'I' for Inactive)
REMARK    1  A    between atoms: N_1  and  C_2
REMARK    2  A    between atoms: C_2  and  C_3
REMARK    3  A    between atoms: C_7  and  C_8
REMARK    4  A    between atoms: C_8  and  C_9
REMARK    5  A    between atoms: C_9  and  C_10
REMARK    6  A    between atoms: C_10  and  C_11
REMARK    7  A    between atoms: C_14  and  C_15
REMARK                            x       y       z     vdW  Elec       q    Type
REMARK                         _______ _______ _______ _____ _____    ______ ____
ROOT
ATOM      1  C   UNL     1      45.159   5.206  11.440  0.00  0.00    +0.000 C 
ENDROOT
BRANCH   1   2
ATOM      2  C   UNL     1      44.586   6.502  12.010  0.00  0.00    +0.000 C 
BRANCH   2   7
ATOM      3  C   UNL     1      47.947   8.329  12.057  0.00  0.00    +0.000 A 
ATOM      4  C   UNL     1      47.519   9.664  12.063  0.00  0.00    +0.000 A 
ATOM      5  C   UNL     1      46.159   9.974  12.080  0.00  0.00    +0.000 A 
ATOM      6  C   UNL     1      45.208   8.952  12.073  0.00  0.00    +0.000 A 
ATOM      7  C   UNL     1      45.610   7.612  12.046  0.00  0.00    +0.000 A 
ATOM      8  C   UNL     1      46.980   7.311  12.054  0.00  0.00    +0.000 A 
BRANCH   3   9
ATOM      9  C   UNL     1      49.416   7.993  12.009  0.00  0.00    +0.000 C 
BRANCH   9  10
ATOM     10  N   UNL     1      49.696   6.680  12.582  0.00  0.00    +0.000 NA
ATOM     11  H   UNL     1      48.955   6.036  12.313  0.00  0.00    +0.000 HD
ATOM     12  H   UNL     1      49.658   6.755  13.598  0.00  0.00    +0.000 HD
ENDBRANCH   9  10
ENDBRANCH   3   9
ENDBRANCH   2   7
ENDBRANCH   1   2
BRANCH   1  13
ATOM     13  C   UNL     1      44.264   4.648  10.330  0.00  0.00    +0.000 C 
BRANCH  13  14
ATOM     14  C   UNL     1      45.088   3.982   9.260  0.00  0.00    +0.000 A 
ATOM     15  C   UNL     1      45.121   2.595   9.146  0.00  0.00    +0.000 A 
ATOM     16  C   UNL     1      45.949   2.018   8.183  0.00  0.00    +0.000 A 
ATOM     17  C   UNL     1      46.730   2.831   7.357  0.00  0.00    +0.000 A 
ATOM     18  C   UNL     1      46.625   4.202   7.536  0.00  0.00    +0.000 A 
ATOM     19  N   UNL     1      45.829   4.793   8.464  0.00  0.00    +0.000 NA
BRANCH  17  20
ATOM     20  C   UNL     1      47.621   2.197   6.356  0.00  0.00    +0.000 C 
ATOM     21  N   UNL     1      47.958   2.891   5.226  0.00  0.00    +0.000 N 
ATOM     22  O   UNL     1      48.065   1.068   6.530  0.00  0.00    +0.000 OA
ATOM     23  H   UNL     1      47.664   3.825   4.989  0.00  0.00    +0.000 HD
ATOM     24  H   UNL     1      48.581   2.421   4.580  0.00  0.00    +0.000 HD
ENDBRANCH  17  20
ENDBRANCH  13  14
ENDBRANCH   1  13
TORSDOF 7
ENDMDL
MODEL 8
REMARK VINA RESULT:    -6.386      3.106      7.007
REMARK INTER + INTRA:          -9.802
REMARK INTER:                  -9.227
REMARK INTRA:                  -0.575
REMARK UNBOUND:                -0.989
REMARK  Name = 
REMARK  7 active torsions:
REMARK  status: ('A' for Active; 'I' for Inactive)
REMARK    1  A    between atoms: N_1  and  C_2
REMARK    2  A    between atoms: C_2  and  C_3
REMARK    3  A    between atoms: C_7  and  C_8
REMARK    4  A    between atoms: C_8  and  C_9
REMARK    5  A    between atoms: C_9  and  C_10
REMARK    6  A    between atoms: C_10  and  C_11
REMARK    7  A    between atoms: C_14  and  C_15
REMARK                            x       y       z     vdW  Elec       q    Type
REMARK                         _______ _______ _______ _____ _____    ______ ____
ROOT
ATOM      1  C   UNL     1      43.962   3.168  10.631  0.00  0.00    +0.000 C 
ENDROOT
BRANCH   1   2
ATOM      2  C   UNL     1      44.262   3.751   9.250  0.00  0.00    +0.000 C 
BRANCH   2   7
ATOM      3  C   UNL     1      46.666   2.540   6.533  0.00  0.00    +0.000 A 
ATOM      4  C   UNL     1      46.891   1.221   6.951  0.00  0.00    +0.000 A 
ATOM      5  C   UNL     1      46.252   0.716   8.085  0.00  0.00    +0.000 A 
ATOM      6  C   UNL     1      45.393   1.530   8.824  0.00  0.00    +0.000 A 
ATOM      7  C   UNL     1      45.168   2.857   8.439  0.00  0.00    +0.000 A 
ATOM      8  C   UNL     1      45.797   3.347   7.284  0.00  0.00    +0.000 A 
BRANCH   3   9
ATOM      9  C   UNL     1      47.379   3.095   5.326  0.00  0.00    +0.000 C 
BRANCH   9  10
ATOM     10  N   UNL     1      48.502   2.257   4.921  0.00  0.00    +0.000 NA
ATOM     11  H   UNL     1      48.776   1.668   5.704  0.00  0.00    +0.000 HD
ATOM     12  H   UNL     1      49.300   2.859   4.719  0.00  0.00    +0.000 HD
ENDBRANCH   9  10
ENDBRANCH   3   9
ENDBRANCH   2   7
ENDBRANCH   1   2
BRANCH   1  13
ATOM     13  C   UNL     1      43.236   4.188  11.514  0.00  0.00    +0.000 C 
BRANCH  13  14
ATOM     14  C   UNL     1      44.169   5.292  11.937  0.00  0.00    +0.000 A 
ATOM     15  C   UNL     1      45.168   5.058  12.878  0.00  0.00    +0.000 A 
ATOM     16  C   UNL     1      45.967   6.125  13.290  0.00  0.00    +0.000 A 
ATOM     17  C   UNL     1      45.754   7.401  12.762  0.00  0.00    +0.000 A 
ATOM     18  C   UNL     1      44.742   7.537  11.824  0.00  0.00    +0.000 A 
ATOM     19  N   UNL     1      43.948   6.518  11.403  0.00  0.00    +0.000 NA
BRANCH  17  20
ATOM     20  C   UNL     1      46.598   8.526  13.231  0.00  0.00    +0.000 C 
ATOM     21  N   UNL     1      47.418   8.342  14.310  0.00  0.00    +0.000 N 
ATOM     22  O   UNL     1      46.577   9.611  12.662  0.00  0.00    +0.000 OA
ATOM     23  H   UNL     1      47.526   7.493  14.840  0.00  0.00    +0.000 HD
ATOM     24  H   UNL     1      47.986   9.136  14.582  0.00  0.00    +0.000 HD
ENDBRANCH  17  20
ENDBRANCH  13  14
ENDBRANCH   1  13
TORSDOF 7
ENDMDL
MODEL 9
REMARK VINA RESULT:    -6.136      3.289      7.633
REMARK INTER + INTRA:          -9.457
REMARK INTER:                  -8.782
REMARK INTRA:                  -0.675
REMARK UNBOUND:                -0.989
REMARK  Name = 
REMARK  7 active torsions:
REMARK  status: ('A' for Active; 'I' for Inactive)
REMARK    1  A    between atoms: N_1  and  C_2
REMARK    2  A    between atoms: C_2  and  C_3
REMARK    3  A    between atoms: C_7  and  C_8
REMARK    4  A    between atoms: C_8  and  C_9
REMARK    5  A    between atoms: C_9  and  C_10
REMARK    6  A    between atoms: C_10  and  C_11
REMARK    7  A    between atoms: C_14  and  C_15
REMARK                            x       y       z     vdW  Elec       q    Type
REMARK                         _______ _______ _______ _____ _____    ______ ____
ROOT
ATOM      1  C   UNL     1      45.753   6.339  12.645  0.00  0.00    +0.000 C 
ENDROOT
BRANCH   1   2
ATOM      2  C   UNL     1      45.394   6.475  11.166  0.00  0.00    +0.000 C 
BRANCH   2   7
ATOM      3  C   UNL     1      45.282   3.593   8.653  0.00  0.00    +0.000 A 
ATOM      4  C   UNL     1      44.521   2.655   9.364  0.00  0.00    +0.000 A 
ATOM      5  C   UNL     1      44.025   2.958  10.633  0.00  0.00    +0.000 A 
ATOM      6  C   UNL     1      44.298   4.198  11.213  0.00  0.00    +0.000 A 
ATOM      7  C   UNL     1      45.072   5.143  10.532  0.00  0.00    +0.000 A 
ATOM      8  C   UNL     1      45.547   4.837   9.247  0.00  0.00    +0.000 A 
BRANCH   3   9
ATOM      9  C   UNL     1      45.844   3.256   7.296  0.00  0.00    +0.000 C 
BRANCH   9  10
ATOM     10  N   UNL     1      46.776   4.274   6.821  0.00  0.00    +0.000 NA
ATOM     11  H   UNL     1      46.632   5.130   7.354  0.00  0.00    +0.000 HD
ATOM     12  H   UNL     1      46.548   4.496   5.852  0.00  0.00    +0.000 HD
ENDBRANCH   9  10
ENDBRANCH   3   9
ENDBRANCH   2   7
ENDBRANCH   1   2
BRANCH   1  13
ATOM     13  C   UNL     1      47.254   6.098  12.829  0.00  0.00    +0.000 C 
BRANCH  13  14
ATOM     14  C   UNL     1      47.547   5.558  14.204  0.00  0.00    +0.000 A 
ATOM     15  C   UNL     1      46.886   4.429  14.680  0.00  0.00    +0.000 A 
ATOM     16  C   UNL     1      47.139   4.002  15.984  0.00  0.00    +0.000 A 
ATOM     17  C   UNL     1      48.039   4.707  16.787  0.00  0.00    +0.000 A 
ATOM     18  C   UNL     1      48.656   5.813  16.224  0.00  0.00    +0.000 A 
ATOM     19  N   UNL     1      48.432   6.254  14.959  0.00  0.00    +0.000 NA
BRANCH  17  20
ATOM     20  C   UNL     1      48.276   4.251  18.178  0.00  0.00    +0.000 C 
ATOM     21  N   UNL     1      47.608   4.859  19.204  0.00  0.00    +0.000 N 
ATOM     22  O   UNL     1      49.054   3.334  18.418  0.00  0.00    +0.000 OA
ATOM     23  H   UNL     1      46.939   5.607  19.121  0.00  0.00    +0.000 HD
ATOM     24  H   UNL     1      47.793   4.502  20.134  0.00  0.00    +0.000 HD
ENDBRANCH  17  20
ENDBRANCH  13  14
ENDBRANCH   1  13
TORSDOF 7
ENDMDL
