MODEL 1
REMARK VINA RESULT:    -9.203      0.000      0.000
REMARK INTER + INTRA:         -13.163
REMARK INTER:                 -12.700
REMARK INTRA:                  -0.463
REMARK UNBOUND:                -0.463
REMARK  Name = 
REMARK  8 active torsions:
REMARK  status: ('A' for Active; 'I' for Inactive)
REMARK    1  A    between atoms: C_1  and  C_2
REMARK    2  A    between atoms: C_4  and  C_5
REMARK    3  A    between atoms: C_10  and  N_11
REMARK    4  A    between atoms: N_11  and  C_12
REMARK    5  A    between atoms: C_12  and  C_13
REMARK    6  A    between atoms: C_17  and  C_18
REMARK    7  A    between atoms: CA_21  and  C_22
REMARK    8  A    between atoms: C_22  and  O_23
REMARK                            x       y       z     vdW  Elec       q    Type
REMARK                         _______ _______ _______ _____ _____    ______ ____
ROOT
ATOM      1  C   UNL     1      44.192   5.126  11.511  0.00  0.00    +0.000 C 
ATOM      2  C   UNL     1      43.510   4.014  12.333  0.00  0.00    +0.000 C 
ATOM      3  C   UNL     1      43.030   5.410  12.448  0.00  0.00    +0.000 C 
ENDROOT
BRANCH   1   4
ATOM      4  C   UNL     1      45.572   5.579  12.019  0.00  0.00    +0.000 A 
ATOM      5  C   UNL     1      46.344   6.516  11.322  0.00  0.00    +0.000 A 
ATOM      6  C   UNL     1      47.542   7.000  11.851  0.00  0.00    +0.000 A 
ATOM      7  C   UNL     1      47.987   6.562  13.103  0.00  0.00    +0.000 A 
ATOM      8  C   UNL     1      47.257   5.623  13.844  0.00  0.00    +0.000 A 
ATOM      9  C   UNL     1      46.075   5.128  13.258  0.00  0.00    +0.000 A 
BRANCH   8  10
ATOM     10  C   UNL     1      47.652   5.209  15.209  0.00  0.00    +0.000 A 
ATOM     11  C   UNL     1      47.142   4.055  15.820  0.00  0.00    +0.000 A 
ATOM     12  C   UNL     1      47.487   3.724  17.132  0.00  0.00    +0.000 A 
ATOM     13  CA  UNL     1      48.358   4.554  17.829  0.00  0.00    +0.000 A 
ATOM     14  N   UNL     1      48.874   5.681  17.281  0.00  0.00    +0.000 NA
ATOM     15  C   UNL     1      48.511   5.973  16.002  0.00  0.00    +0.000 A 
BRANCH  13  16
ATOM     16  C   UNL     1      48.776   4.219  19.240  0.00  0.00    +0.000 C 
BRANCH  16  17
ATOM     17  O   UNL     1      48.258   2.952  19.637  0.00  0.00    +0.000 OA
ATOM     18  H   UNL     1      48.913   2.600  20.271  0.00  0.00    +0.000 HD
ENDBRANCH  16  17
ENDBRANCH  13  16
ENDBRANCH   8  10
ENDBRANCH   1   4
BRANCH   1  19
ATOM     19  N   UNL     1      44.167   4.865  10.068  0.00  0.00    +0.000 N 
ATOM     20  H   UNL     1      43.327   5.155   9.573  0.00  0.00    +0.000 HD
BRANCH  19  27
ATOM     21  C   UNL     1      44.108   1.745   9.799  0.00  0.00    +0.000 C 
ATOM     22  C   UNL     1      44.954   2.716   9.047  0.00  0.00    +0.000 A 
ATOM     23  C   UNL     1      45.896   2.154   8.157  0.00  0.00    +0.000 A 
ATOM     24  C   UNL     1      46.726   2.946   7.371  0.00  0.00    +0.000 A 
ATOM     25  C   UNL     1      46.575   4.305   7.517  0.00  0.00    +0.000 A 
ATOM     26  N   UNL     1      45.705   4.884   8.393  0.00  0.00    +0.000 NA
ATOM     27  C   UNL     1      44.908   4.101   9.176  0.00  0.00    +0.000 A 
BRANCH  24  28
ATOM     28  C   UNL     1      47.691   2.273   6.464  0.00  0.00    +0.000 C 
ATOM     29  N   UNL     1      47.952   2.811   5.237  0.00  0.00    +0.000 N 
ATOM     30  O   UNL     1      48.258   1.240   6.802  0.00  0.00    +0.000 OA
ATOM     31  H   UNL     1      47.555   3.654   4.856  0.00  0.00    +0.000 HD
ATOM     32  H   UNL     1      48.623   2.308   4.667  0.00  0.00    +0.000 HD
ENDBRANCH  24  28
ENDBRANCH  19  27
ENDBRANCH   1  19
TORSDOF 7
ENDMDL
MODEL 2
REMARK VINA RESULT:    -8.568      2.825      3.870
REMARK INTER + INTRA:         -12.287
REMARK INTER:                 -11.436
REMARK INTRA:                  -0.851
REMARK UNBOUND:                -0.463
REMARK  Name = 
REMARK  8 active torsions:
REMARK  status: ('A' for Active; 'I' for Inactive)
REMARK    1  A    between atoms: C_1  and  C_2
REMARK    2  A    between atoms: C_4  and  C_5
REMARK    3  A    between atoms: C_10  and  N_11
REMARK    4  A    between atoms: N_11  and  C_12
REMARK    5  A    between atoms: C_12  and  C_13
REMARK    6  A    between atoms: C_17  and  C_18
REMARK    7  A    between atoms: CA_21  and  C_22
REMARK    8  A    between atoms: C_22  and  O_23
REMARK                            x       y       z     vdW  Elec       q    Type
REMARK                         _______ _______ _______ _____ _____    ______ ____
ROOT
ATOM      1  C   UNL     1      43.868   5.513  11.148  0.00  0.00    +0.000 C 
ATOM      2  C   UNL     1      42.558   4.887  11.667  0.00  0.00    +0.000 C 
ATOM      3  C   UNL     1      42.740   6.356  11.718  0.00  0.00    +0.000 C 
ENDROOT
BRANCH   1   4
ATOM      4  C   UNL     1      45.094   5.349  12.064  0.00  0.00    +0.000 A 
ATOM      5  C   UNL     1      45.313   4.181  12.803  0.00  0.00    +0.000 A 
ATOM      6  C   UNL     1      46.484   4.005  13.542  0.00  0.00    +0.000 A 
ATOM      7  C   UNL     1      47.472   4.996  13.546  0.00  0.00    +0.000 A 
ATOM      8  C   UNL     1      47.305   6.187  12.827  0.00  0.00    +0.000 A 
ATOM      9  C   UNL     1      46.093   6.346  12.127  0.00  0.00    +0.000 A 
BRANCH   8  10
ATOM     10  C   UNL     1      48.367   7.214  12.735  0.00  0.00    +0.000 A 
ATOM     11  C   UNL     1      48.430   8.138  11.683  0.00  0.00    +0.000 A 
ATOM     12  C   UNL     1      49.479   9.054  11.592  0.00  0.00    +0.000 A 
ATOM     13  CA  UNL     1      50.465   9.048  12.572  0.00  0.00    +0.000 A 
ATOM     14  N   UNL     1      50.449   8.172  13.607  0.00  0.00    +0.000 NA
ATOM     15  C   UNL     1      49.413   7.291  13.659  0.00  0.00    +0.000 A 
BRANCH  13  16
ATOM     16  C   UNL     1      51.603  10.038  12.525  0.00  0.00    +0.000 C 
BRANCH  16  17
ATOM     17  O   UNL     1      52.284  10.088  13.776  0.00  0.00    +0.000 OA
ATOM     18  H   UNL     1      51.986  10.921  14.192  0.00  0.00    +0.000 HD
ENDBRANCH  16  17
ENDBRANCH  13  16
ENDBRANCH   8  10
ENDBRANCH   1   4
BRANCH   1  19
ATOM     19  N   UNL     1      44.146   5.174   9.748  0.00  0.00    +0.000 N 
ATOM     20  H   UNL     1      43.588   5.657   9.049  0.00  0.00    +0.000 HD
BRANCH  19  27
ATOM     21  C   UNL     1      43.990   2.101  10.329  0.00  0.00    +0.000 C 
ATOM     22  C   UNL     1      44.841   2.803   9.327  0.00  0.00    +0.000 A 
ATOM     23  C   UNL     1      45.740   1.990   8.602  0.00  0.00    +0.000 A 
ATOM     24  C   UNL     1      46.569   2.513   7.614  0.00  0.00    +0.000 A 
ATOM     25  C   UNL     1      46.462   3.866   7.392  0.00  0.00    +0.000 A 
ATOM     26  N   UNL     1      45.635   4.689   8.099  0.00  0.00    +0.000 NA
ATOM     27  C   UNL     1      44.839   4.173   9.079  0.00  0.00    +0.000 A 
BRANCH  24  28
ATOM     28  C   UNL     1      47.488   1.587   6.902  0.00  0.00    +0.000 C 
ATOM     29  N   UNL     1      48.639   2.070   6.352  0.00  0.00    +0.000 N 
ATOM     30  O   UNL     1      47.226   0.394   6.802  0.00  0.00    +0.000 OA
ATOM     31  H   UNL     1      48.961   3.024   6.378  0.00  0.00    +0.000 HD
ATOM     32  H   UNL     1      49.227   1.388   5.884  0.00  0.00    +0.000 HD
ENDBRANCH  24  28
ENDBRANCH  19  27
ENDBRANCH   1  19
TORSDOF 7
ENDMDL
MODEL 3
REMARK VINA RESULT:    -8.271      1.546      2.039
REMARK INTER + INTRA:         -11.877
REMARK INTER:                 -10.900
REMARK INTRA:                  -0.976
REMARK UNBOUND:                -0.463
REMARK  Name = 
REMARK  8 active torsions:
REMARK  status: ('A' for Active; 'I' for Inactive)
REMARK    1  A    between atoms: C_1  and  C_2
REMARK    2  A    between atoms: C_4  and  C_5
REMARK    3  A    between atoms: C_10  and  N_11
REMARK    4  A    between atoms: N_11  and  C_12
REMARK    5  A    between atoms: C_12  and  C_13
REMARK    6  A    between atoms: C_17  and  C_18
REMARK    7  A    between atoms: CA_21  and  C_22
REMARK    8  A    between atoms: C_22  and  O_23
REMARK                            x       y       z     vdW  Elec       q    Type
REMARK                         _______ _______ _______ _____ _____    ______ ____
ROOT
ATOM      1  C   UNL     1      43.551   5.283  11.145  0.00  0.00    +0.000 C 
ATOM      2  C   UNL     1      42.713   4.400  12.093  0.00  0.00    +0.000 C 
ATOM      3  C   UNL     1      42.261   5.775  11.780  0.00  0.00    +0.000 C 
ENDROOT
BRANCH   1   4
ATOM      4  C   UNL     1      44.843   5.866  11.746  0.00  0.00    +0.000 A 
ATOM      5  C   UNL     1      45.313   7.136  11.393  0.00  0.00    +0.000 A 
ATOM      6  C   UNL     1      46.423   7.695  12.029  0.00  0.00    +0.000 A 
ATOM      7  C   UNL     1      47.082   6.995  13.045  0.00  0.00    +0.000 A 
ATOM      8  C   UNL     1      46.657   5.718  13.438  0.00  0.00    +0.000 A 
ATOM      9  C   UNL     1      45.559   5.171  12.745  0.00  0.00    +0.000 A 
BRANCH   8  10
ATOM     10  C   UNL     1      47.273   4.990  14.569  0.00  0.00    +0.000 A 
ATOM     11  C   UNL     1      47.898   5.650  15.635  0.00  0.00    +0.000 A 
ATOM     12  C   UNL     1      48.524   4.934  16.658  0.00  0.00    +0.000 A 
ATOM     13  CA  UNL     1      48.510   3.545  16.611  0.00  0.00    +0.000 A 
ATOM     14  N   UNL     1      47.920   2.862  15.600  0.00  0.00    +0.000 NA
ATOM     15  C   UNL     1      47.325   3.595  14.620  0.00  0.00    +0.000 A 
BRANCH  13  16
ATOM     16  C   UNL     1      49.152   2.732  17.709  0.00  0.00    +0.000 C 
BRANCH  16  17
ATOM     17  O   UNL     1      48.955   3.347  18.979  0.00  0.00    +0.000 OA
ATOM     18  H   UNL     1      49.014   2.616  19.624  0.00  0.00    +0.000 HD
ENDBRANCH  16  17
ENDBRANCH  13  16
ENDBRANCH   8  10
ENDBRANCH   1   4
BRANCH   1  19
ATOM     19  N   UNL     1      43.754   4.673   9.827  0.00  0.00    +0.000 N 
ATOM     20  H   UNL     1      42.974   4.735   9.178  0.00  0.00    +0.000 HD
BRANCH  19  27
ATOM     21  C   UNL     1      46.435   5.461   8.414  0.00  0.00    +0.000 C 
ATOM     22  C   UNL     1      45.851   4.100   8.581  0.00  0.00    +0.000 A 
ATOM     23  C   UNL     1      46.557   3.045   7.962  0.00  0.00    +0.000 A 
ATOM     24  C   UNL     1      46.140   1.722   8.065  0.00  0.00    +0.000 A 
ATOM     25  C   UNL     1      44.998   1.507   8.801  0.00  0.00    +0.000 A 
ATOM     26  N   UNL     1      44.269   2.504   9.381  0.00  0.00    +0.000 NA
ATOM     27  C   UNL     1      44.672   3.801   9.259  0.00  0.00    +0.000 A 
BRANCH  24  28
ATOM     28  C   UNL     1      46.940   0.674   7.379  0.00  0.00    +0.000 C 
ATOM     29  N   UNL     1      46.711  -0.641   7.661  0.00  0.00    +0.000 N 
ATOM     30  O   UNL     1      47.803   0.975   6.563  0.00  0.00    +0.000 OA
ATOM     31  H   UNL     1      46.027  -1.006   8.305  0.00  0.00    +0.000 HD
ATOM     32  H   UNL     1      47.285  -1.308   7.157  0.00  0.00    +0.000 HD
ENDBRANCH  24  28
ENDBRANCH  19  27
ENDBRANCH   1  19
TORSDOF 7
ENDMDL
MODEL 4
REMARK VINA RESULT:    -8.266      1.583      8.458
REMARK INTER + INTRA:         -11.870
REMARK INTER:                 -10.664
REMARK INTRA:                  -1.206
REMARK UNBOUND:                -0.463
REMARK  Name = 
REMARK  8 active torsions:
REMARK  status: ('A' for Active; 'I' for Inactive)
REMARK    1  A    between atoms: C_1  and  C_2
REMARK    2  A    between atoms: C_4  and  C_5
REMARK    3  A    between atoms: C_10  and  N_11
REMARK    4  A    between atoms: N_11  and  C_12
REMARK    5  A    between atoms: C_12  and  C_13
REMARK    6  A    between atoms: C_17  and  C_18
REMARK    7  A    between atoms: CA_21  and  C_22
REMARK    8  A    between atoms: C_22  and  O_23
REMARK                            x       y       z     vdW  Elec       q    Type
REMARK                         _______ _______ _______ _____ _____    ______ ____
ROOT
ATOM      1  C   UNL     1      46.425   7.284  12.872  0.00  0.00    +0.000 C 
ATOM      2  C   UNL     1      46.819   8.547  12.080  0.00  0.00    +0.000 C 
ATOM      3  C   UNL     1      45.865   8.657  13.206  0.00  0.00    +0.000 C 
ENDROOT
BRANCH   1   4
ATOM      4  C   UNL     1      45.447   6.330  12.164  0.00  0.00    +0.000 A 
ATOM      5  C   UNL     1      44.083   6.307  12.475  0.00  0.00    +0.000 A 
ATOM      6  C   UNL     1      43.191   5.517  11.747  0.00  0.00    +0.000 A 
ATOM      7  C   UNL     1      43.648   4.738  10.679  0.00  0.00    +0.000 A 
ATOM      8  C   UNL     1      45.004   4.719  10.325  0.00  0.00    +0.000 A 
ATOM      9  C   UNL     1      45.879   5.498  11.108  0.00  0.00    +0.000 A 
BRANCH   8  10
ATOM     10  C   UNL     1      45.506   3.980   9.145  0.00  0.00    +0.000 A 
ATOM     11  C   UNL     1      45.498   2.580   9.077  0.00  0.00    +0.000 A 
ATOM     12  C   UNL     1      46.035   1.910   7.976  0.00  0.00    +0.000 A 
ATOM     13  CA  UNL     1      46.574   2.654   6.933  0.00  0.00    +0.000 A 
ATOM     14  N   UNL     1      46.606   4.010   6.954  0.00  0.00    +0.000 NA
ATOM     15  C   UNL     1      46.078   4.626   8.046  0.00  0.00    +0.000 A 
BRANCH  13  16
ATOM     16  C   UNL     1      47.141   1.971   5.713  0.00  0.00    +0.000 C 
BRANCH  16  17
ATOM     17  O   UNL     1      48.545   1.765   5.853  0.00  0.00    +0.000 OA
ATOM     18  H   UNL     1      48.628   0.935   6.361  0.00  0.00    +0.000 HD
ENDBRANCH  16  17
ENDBRANCH  13  16
ENDBRANCH   8  10
ENDBRANCH   1   4
BRANCH   1  19
ATOM     19  N   UNL     1      47.579   6.595  13.458  0.00  0.00    +0.000 N 
ATOM     20  H   UNL     1      48.360   6.412  12.832  0.00  0.00    +0.000 HD
BRANCH  19  27
ATOM     21  C   UNL     1      46.810   3.615  14.039  0.00  0.00    +0.000 C 
ATOM     22  C   UNL     1      47.477   4.585  14.952  0.00  0.00    +0.000 A 
ATOM     23  C   UNL     1      47.727   4.127  16.265  0.00  0.00    +0.000 A 
ATOM     24  C   UNL     1      48.371   4.920  17.209  0.00  0.00    +0.000 A 
ATOM     25  C   UNL     1      48.745   6.174  16.787  0.00  0.00    +0.000 A 
ATOM     26  N   UNL     1      48.487   6.665  15.542  0.00  0.00    +0.000 NA
ATOM     27  C   UNL     1      47.837   5.890  14.627  0.00  0.00    +0.000 A 
BRANCH  24  28
ATOM     28  C   UNL     1      48.590   4.360  18.568  0.00  0.00    +0.000 C 
ATOM     29  N   UNL     1      48.243   3.066  18.829  0.00  0.00    +0.000 N 
ATOM     30  O   UNL     1      49.080   5.044  19.460  0.00  0.00    +0.000 OA
ATOM     31  H   UNL     1      47.842   2.411  18.178  0.00  0.00    +0.000 HD
ATOM     32  H   UNL     1      48.421   2.741  19.773  0.00  0.00    +0.000 HD
ENDBRANCH  24  28
ENDBRANCH  19  27
ENDBRANCH   1  19
TORSDOF 7
ENDMDL
MODEL 5
REMARK VINA RESULT:    -8.058      1.936      8.590
REMARK INTER + INTRA:         -11.583
REMARK INTER:                 -11.316
REMARK INTRA:                  -0.267
REMARK UNBOUND:                -0.463
REMARK  Name = 
REMARK  8 active torsions:
REMARK  status: ('A' for Active; 'I' for Inactive)
REMARK    1  A    between atoms: C_1  and  C_2
REMARK    2  A    between atoms: C_4  and  C_5
REMARK    3  A    between atoms: C_10  and  N_11
REMARK    4  A    between atoms: N_11  and  C_12
REMARK    5  A    between atoms: C_12  and  C_13
REMARK    6  A    between atoms: C_17  and  C_18
REMARK    7  A    between atoms: CA_21  and  C_22
REMARK    8  A    between atoms: C_22  and  O_23
REMARK                            x       y       z     vdW  Elec       q    Type
REMARK                         _______ _______ _______ _____ _____    ______ ____
ROOT
ATOM      1  C   UNL     1      46.394   5.511  13.880  0.00  0.00    +0.000 C 
ATOM      2  C   UNL     1      47.762   5.913  13.292  0.00  0.00    +0.000 C 
ATOM      3  C   UNL     1      46.790   6.964  13.676  0.00  0.00    +0.000 C 
ENDROOT
BRANCH   1   4
ATOM      4  C   UNL     1      45.370   4.961  12.871  0.00  0.00    +0.000 A 
ATOM      5  C   UNL     1      43.992   5.092  13.072  0.00  0.00    +0.000 A 
ATOM      6  C   UNL     1      43.079   4.688  12.096  0.00  0.00    +0.000 A 
ATOM      7  C   UNL     1      43.532   4.153  10.886  0.00  0.00    +0.000 A 
ATOM      8  C   UNL     1      44.901   3.996  10.630  0.00  0.00    +0.000 A 
ATOM      9  C   UNL     1      45.789   4.377  11.656  0.00  0.00    +0.000 A 
BRANCH   8  10
ATOM     10  C   UNL     1      45.416   3.520   9.327  0.00  0.00    +0.000 A 
ATOM     11  C   UNL     1      45.584   2.159   9.038  0.00  0.00    +0.000 A 
ATOM     12  C   UNL     1      46.129   1.744   7.821  0.00  0.00    +0.000 A 
ATOM     13  CA  UNL     1      46.498   2.704   6.887  0.00  0.00    +0.000 A 
ATOM     14  N   UNL     1      46.356   4.032   7.122  0.00  0.00    +0.000 NA
ATOM     15  C   UNL     1      45.825   4.397   8.320  0.00  0.00    +0.000 A 
BRANCH  13  16
ATOM     16  C   UNL     1      47.067   2.298   5.549  0.00  0.00    +0.000 C 
BRANCH  16  17
ATOM     17  O   UNL     1      48.406   1.827   5.689  0.00  0.00    +0.000 OA
ATOM     18  H   UNL     1      48.909   2.596   6.020  0.00  0.00    +0.000 HD
ENDBRANCH  16  17
ENDBRANCH  13  16
ENDBRANCH   8  10
ENDBRANCH   1   4
BRANCH   1  19
ATOM     19  N   UNL     1      46.512   4.686  15.087  0.00  0.00    +0.000 N 
ATOM     20  H   UNL     1      45.666   4.570  15.638  0.00  0.00    +0.000 HD
BRANCH  19  27
ATOM     21  C   UNL     1      48.159   6.222  17.264  0.00  0.00    +0.000 C 
ATOM     22  C   UNL     1      48.345   4.821  16.791  0.00  0.00    +0.000 A 
ATOM     23  C   UNL     1      49.444   4.124  17.341  0.00  0.00    +0.000 A 
ATOM     24  C   UNL     1      49.713   2.800  17.011  0.00  0.00    +0.000 A 
ATOM     25  C   UNL     1      48.848   2.215  16.116  0.00  0.00    +0.000 A 
ATOM     26  N   UNL     1      47.800   2.866  15.536  0.00  0.00    +0.000 NA
ATOM     27  C   UNL     1      47.553   4.171  15.849  0.00  0.00    +0.000 A 
BRANCH  24  28
ATOM     28  C   UNL     1      50.893   2.144  17.632  0.00  0.00    +0.000 C 
ATOM     29  N   UNL     1      51.723   2.871  18.436  0.00  0.00    +0.000 N 
ATOM     30  O   UNL     1      51.132   0.959  17.434  0.00  0.00    +0.000 OA
ATOM     31  H   UNL     1      51.624   3.844  18.675  0.00  0.00    +0.000 HD
ATOM     32  H   UNL     1      52.507   2.366  18.834  0.00  0.00    +0.000 HD
ENDBRANCH  24  28
ENDBRANCH  19  27
ENDBRANCH   1  19
TORSDOF 7
ENDMDL
MODEL 6
REMARK VINA RESULT:    -7.630      3.449      8.630
REMARK INTER + INTRA:         -10.992
REMARK INTER:                  -9.980
REMARK INTRA:                  -1.012
REMARK UNBOUND:                -0.463
REMARK  Name = 
REMARK  8 active torsions:
REMARK  status: ('A' for Active; 'I' for Inactive)
REMARK    1  A    between atoms: C_1  and  C_2
REMARK    2  A    between atoms: C_4  and  C_5
REMARK    3  A    between atoms: C_10  and  N_11
REMARK    4  A    between atoms: N_11  and  C_12
REMARK    5  A    between atoms: C_12  and  C_13
REMARK    6  A    between atoms: C_17  and  C_18
REMARK    7  A    between atoms: CA_21  and  C_22
REMARK    8  A    between atoms: C_22  and  O_23
REMARK                            x       y       z     vdW  Elec       q    Type
REMARK                         _______ _______ _______ _____ _____    ______ ____
ROOT
ATOM      1  C   UNL     1      49.055   5.566  17.664  0.00  0.00    +0.000 C 
ATOM      2  C   UNL     1      48.577   6.530  18.769  0.00  0.00    +0.000 C 
ATOM      3  C   UNL     1      47.761   5.342  18.429  0.00  0.00    +0.000 C 
ENDROOT
BRANCH   1   4
ATOM      4  C   UNL     1      48.885   6.071  16.220  0.00  0.00    +0.000 A 
ATOM      5  C   UNL     1      49.766   6.998  15.653  0.00  0.00    +0.000 A 
ATOM      6  C   UNL     1      49.665   7.361  14.309  0.00  0.00    +0.000 A 
ATOM      7  C   UNL     1      48.680   6.790  13.496  0.00  0.00    +0.000 A 
ATOM      8  C   UNL     1      47.768   5.857  14.010  0.00  0.00    +0.000 A 
ATOM      9  C   UNL     1      47.877   5.548  15.381  0.00  0.00    +0.000 A 
BRANCH   8  10
ATOM     10  C   UNL     1      46.775   5.166  13.159  0.00  0.00    +0.000 A 
ATOM     11  C   UNL     1      46.174   5.784  12.053  0.00  0.00    +0.000 A 
ATOM     12  C   UNL     1      45.195   5.126  11.306  0.00  0.00    +0.000 A 
ATOM     13  CA  UNL     1      44.827   3.835  11.667  0.00  0.00    +0.000 A 
ATOM     14  N   UNL     1      45.378   3.197  12.729  0.00  0.00    +0.000 NA
ATOM     15  C   UNL     1      46.325   3.872  13.435  0.00  0.00    +0.000 A 
BRANCH  13  16
ATOM     16  C   UNL     1      43.791   3.079  10.871  0.00  0.00    +0.000 C 
BRANCH  16  17
ATOM     17  O   UNL     1      43.014   2.237  11.718  0.00  0.00    +0.000 OA
ATOM     18  H   UNL     1      43.020   2.681  12.588  0.00  0.00    +0.000 HD
ENDBRANCH  16  17
ENDBRANCH  13  16
ENDBRANCH   8  10
ENDBRANCH   1   4
BRANCH   1  19
ATOM     19  N   UNL     1      50.387   5.012  17.927  0.00  0.00    +0.000 N 
ATOM     20  H   UNL     1      51.122   5.685  18.129  0.00  0.00    +0.000 HD
BRANCH  19  27
ATOM     21  C   UNL     1      49.069   2.399  16.812  0.00  0.00    +0.000 C 
ATOM     22  C   UNL     1      50.461   2.584  17.313  0.00  0.00    +0.000 A 
ATOM     23  C   UNL     1      51.261   1.421  17.357  0.00  0.00    +0.000 A 
ATOM     24  C   UNL     1      52.588   1.458  17.774  0.00  0.00    +0.000 A 
ATOM     25  C   UNL     1      53.069   2.692  18.141  0.00  0.00    +0.000 A 
ATOM     26  N   UNL     1      52.316   3.830  18.148  0.00  0.00    +0.000 NA
ATOM     27  C   UNL     1      51.010   3.783  17.758  0.00  0.00    +0.000 A 
BRANCH  24  28
ATOM     28  C   UNL     1      53.357   0.186  17.794  0.00  0.00    +0.000 C 
ATOM     29  N   UNL     1      53.923  -0.278  16.642  0.00  0.00    +0.000 N 
ATOM     30  O   UNL     1      53.489  -0.453  18.831  0.00  0.00    +0.000 OA
ATOM     31  H   UNL     1      53.887   0.163  15.737  0.00  0.00    +0.000 HD
ATOM     32  H   UNL     1      54.439  -1.147  16.721  0.00  0.00    +0.000 HD
ENDBRANCH  24  28
ENDBRANCH  19  27
ENDBRANCH   1  19
TORSDOF 7
ENDMDL
MODEL 7
REMARK VINA RESULT:    -7.264      3.350      8.084
REMARK INTER + INTRA:         -10.487
REMARK INTER:                  -9.609
REMARK INTRA:                  -0.878
REMARK UNBOUND:                -0.463
REMARK  Name = 
REMARK  8 active torsions:
REMARK  status: ('A' for Active; 'I' for Inactive)
REMARK    1  A    between atoms: C_1  and  C_2
REMARK    2  A    between atoms: C_4  and  C_5
REMARK    3  A    between atoms: C_10  and  N_11
REMARK    4  A    between atoms: N_11  and  C_12
REMARK    5  A    between atoms: C_12  and  C_13
REMARK    6  A    between atoms: C_17  and  C_18
REMARK    7  A    between atoms: CA_21  and  C_22
REMARK    8  A    between atoms: C_22  and  O_23
REMARK                            x       y       z     vdW  Elec       q    Type
REMARK                         _______ _______ _______ _____ _____    ______ ____
ROOT
ATOM      1  C   UNL     1      48.963   8.164  16.399  0.00  0.00    +0.000 C 
ATOM      2  C   UNL     1      50.079   9.144  16.813  0.00  0.00    +0.000 C 
ATOM      3  C   UNL     1      48.677   9.617  16.745  0.00  0.00    +0.000 C 
ENDROOT
BRANCH   1   4
ATOM      4  C   UNL     1      48.899   7.821  14.900  0.00  0.00    +0.000 A 
ATOM      5  C   UNL     1      49.920   8.186  14.015  0.00  0.00    +0.000 A 
ATOM      6  C   UNL     1      49.900   7.772  12.682  0.00  0.00    +0.000 A 
ATOM      7  C   UNL     1      48.858   6.968  12.208  0.00  0.00    +0.000 A 
ATOM      8  C   UNL     1      47.807   6.574  13.049  0.00  0.00    +0.000 A 
ATOM      9  C   UNL     1      47.841   7.047  14.376  0.00  0.00    +0.000 A 
BRANCH   8  10
ATOM     10  C   UNL     1      46.740   5.651  12.605  0.00  0.00    +0.000 A 
ATOM     11  C   UNL     1      45.973   5.886  11.456  0.00  0.00    +0.000 A 
ATOM     12  C   UNL     1      44.932   5.027  11.097  0.00  0.00    +0.000 A 
ATOM     13  CA  UNL     1      44.668   3.920  11.895  0.00  0.00    +0.000 A 
ATOM     14  N   UNL     1      45.380   3.652  13.017  0.00  0.00    +0.000 NA
ATOM     15  C   UNL     1      46.384   4.514  13.336  0.00  0.00    +0.000 A 
BRANCH  13  16
ATOM     16  C   UNL     1      43.568   2.953  11.530  0.00  0.00    +0.000 C 
BRANCH  16  17
ATOM     17  O   UNL     1      43.488   1.893  12.479  0.00  0.00    +0.000 OA
ATOM     18  H   UNL     1      42.906   1.227  12.064  0.00  0.00    +0.000 HD
ENDBRANCH  16  17
ENDBRANCH  13  16
ENDBRANCH   8  10
ENDBRANCH   1   4
BRANCH   1  19
ATOM     19  N   UNL     1      48.891   6.982  17.264  0.00  0.00    +0.000 N 
ATOM     20  H   UNL     1      48.520   7.130  18.199  0.00  0.00    +0.000 HD
BRANCH  19  27
ATOM     21  C   UNL     1      47.264   4.318  17.008  0.00  0.00    +0.000 C 
ATOM     22  C   UNL     1      48.736   4.482  17.181  0.00  0.00    +0.000 A 
ATOM     23  C   UNL     1      49.478   3.289  17.319  0.00  0.00    +0.000 A 
ATOM     24  C   UNL     1      50.862   3.297  17.455  0.00  0.00    +0.000 A 
ATOM     25  C   UNL     1      51.460   4.535  17.451  0.00  0.00    +0.000 A 
ATOM     26  N   UNL     1      50.774   5.710  17.358  0.00  0.00    +0.000 NA
ATOM     27  C   UNL     1      49.415   5.696  17.245  0.00  0.00    +0.000 A 
BRANCH  24  28
ATOM     28  C   UNL     1      51.564   1.995  17.599  0.00  0.00    +0.000 C 
ATOM     29  N   UNL     1      52.608   1.884  18.471  0.00  0.00    +0.000 N 
ATOM     30  O   UNL     1      51.219   1.017  16.946  0.00  0.00    +0.000 OA
ATOM     31  H   UNL     1      52.974   2.613  19.062  0.00  0.00    +0.000 HD
ATOM     32  H   UNL     1      53.043   0.970  18.528  0.00  0.00    +0.000 HD
ENDBRANCH  24  28
ENDBRANCH  19  27
ENDBRANCH   1  19
TORSDOF 7
ENDMDL
MODEL 8
REMARK VINA RESULT:    -6.913      4.008      7.687
REMARK INTER + INTRA:         -10.003
REMARK INTER:                  -9.207
REMARK INTRA:                  -0.797
REMARK UNBOUND:                -0.463
REMARK  Name = 
REMARK  8 active torsions:
REMARK  status: ('A' for Active; 'I' for Inactive)
REMARK    1  A    between atoms: C_1  and  C_2
REMARK    2  A    between atoms: C_4  and  C_5
REMARK    3  A    between atoms: C_10  and  N_11
REMARK    4  A    between atoms: N_11  and  C_12
REMARK    5  A    between atoms: C_12  and  C_13
REMARK    6  A    between atoms: C_17  and  C_18
REMARK    7  A    between atoms: CA_21  and  C_22
REMARK    8  A    between atoms: C_22  and  O_23
REMARK                            x       y       z     vdW  Elec       q    Type
REMARK                         _______ _______ _______ _____ _____    ______ ____
ROOT
ATOM      1  C   UNL     1      44.859   8.226  11.782  0.00  0.00    +0.000 C 
ATOM      2  C   UNL     1      44.900   9.159  10.555  0.00  0.00    +0.000 C 
ATOM      3  C   UNL     1      43.840   9.334  11.574  0.00  0.00    +0.000 C 
ENDROOT
BRANCH   1   4
ATOM      4  C   UNL     1      44.342   6.801  11.519  0.00  0.00    +0.000 A 
ATOM      5  C   UNL     1      43.102   6.365  12.001  0.00  0.00    +0.000 A 
ATOM      6  C   UNL     1      42.599   5.108  11.661  0.00  0.00    +0.000 A 
ATOM      7  C   UNL     1      43.325   4.262  10.816  0.00  0.00    +0.000 A 
ATOM      8  C   UNL     1      44.573   4.645  10.306  0.00  0.00    +0.000 A 
ATOM      9  C   UNL     1      45.066   5.903  10.705  0.00  0.00    +0.000 A 
BRANCH   8  10
ATOM     10  C   UNL     1      45.323   3.814   9.338  0.00  0.00    +0.000 A 
ATOM     11  C   UNL     1      46.003   4.366   8.243  0.00  0.00    +0.000 A 
ATOM     12  C   UNL     1      46.651   3.550   7.313  0.00  0.00    +0.000 A 
ATOM     13  CA  UNL     1      46.623   2.173   7.492  0.00  0.00    +0.000 A 
ATOM     14  N   UNL     1      45.977   1.592   8.533  0.00  0.00    +0.000 NA
ATOM     15  C   UNL     1      45.354   2.419   9.416  0.00  0.00    +0.000 A 
BRANCH  13  16
ATOM     16  C   UNL     1      47.331   1.256   6.524  0.00  0.00    +0.000 C 
BRANCH  16  17
ATOM     17  O   UNL     1      48.410   1.931   5.883  0.00  0.00    +0.000 OA
ATOM     18  H   UNL     1      48.024   2.305   5.067  0.00  0.00    +0.000 HD
ENDBRANCH  16  17
ENDBRANCH  13  16
ENDBRANCH   8  10
ENDBRANCH   1   4
BRANCH   1  19
ATOM     19  N   UNL     1      46.101   8.253  12.561  0.00  0.00    +0.000 N 
ATOM     20  H   UNL     1      46.000   8.383  13.564  0.00  0.00    +0.000 HD
BRANCH  19  27
ATOM     21  C   UNL     1      47.649  10.921  12.015  0.00  0.00    +0.000 C 
ATOM     22  C   UNL     1      48.180   9.528  11.986  0.00  0.00    +0.000 A 
ATOM     23  C   UNL     1      49.530   9.391  11.592  0.00  0.00    +0.000 A 
ATOM     24  C   UNL     1      50.160   8.151  11.552  0.00  0.00    +0.000 A 
ATOM     25  C   UNL     1      49.388   7.072  11.915  0.00  0.00    +0.000 A 
ATOM     26  N   UNL     1      48.073   7.161  12.263  0.00  0.00    +0.000 NA
ATOM     27  C   UNL     1      47.455   8.377  12.281  0.00  0.00    +0.000 A 
BRANCH  24  28
ATOM     28  C   UNL     1      51.581   8.096  11.122  0.00  0.00    +0.000 C 
ATOM     29  N   UNL     1      52.100   6.923  10.656  0.00  0.00    +0.000 N 
ATOM     30  O   UNL     1      52.296   9.090  11.181  0.00  0.00    +0.000 OA
ATOM     31  H   UNL     1      51.610   6.049  10.556  0.00  0.00    +0.000 HD
ATOM     32  H   UNL     1      53.074   6.951  10.373  0.00  0.00    +0.000 HD
ENDBRANCH  24  28
ENDBRANCH  19  27
ENDBRANCH   1  19
TORSDOF 7
ENDMDL
MODEL 9
REMARK VINA RESULT:    -6.872      2.905      4.900
REMARK INTER + INTRA:          -9.946
REMARK INTER:                  -8.892
REMARK INTRA:                  -1.054
REMARK UNBOUND:                -0.463
REMARK  Name = 
REMARK  8 active torsions:
REMARK  status: ('A' for Active; 'I' for Inactive)
REMARK    1  A    between atoms: C_1  and  C_2
REMARK    2  A    between atoms: C_4  and  C_5
REMARK    3  A    between atoms: C_10  and  N_11
REMARK    4  A    between atoms: N_11  and  C_12
REMARK    5  A    between atoms: C_12  and  C_13
REMARK    6  A    between atoms: C_17  and  C_18
REMARK    7  A    between atoms: CA_21  and  C_22
REMARK    8  A    between atoms: C_22  and  O_23
REMARK                            x       y       z     vdW  Elec       q    Type
REMARK                         _______ _______ _______ _____ _____    ______ ____
ROOT
ATOM      1  C   UNL     1      47.972   8.114  13.801  0.00  0.00    +0.000 C 
ATOM      2  C   UNL     1      48.083   9.548  13.243  0.00  0.00    +0.000 C 
ATOM      3  C   UNL     1      48.978   8.487  12.725  0.00  0.00    +0.000 C 
ENDROOT
BRANCH   1   4
ATOM      4  C   UNL     1      48.562   7.898  15.205  0.00  0.00    +0.000 A 
ATOM      5  C   UNL     1      48.315   8.790  16.255  0.00  0.00    +0.000 A 
ATOM      6  C   UNL     1      48.765   8.522  17.549  0.00  0.00    +0.000 A 
ATOM      7  C   UNL     1      49.465   7.342  17.823  0.00  0.00    +0.000 A 
ATOM      8  C   UNL     1      49.744   6.414  16.810  0.00  0.00    +0.000 A 
ATOM      9  C   UNL     1      49.309   6.739  15.510  0.00  0.00    +0.000 A 
BRANCH   8  10
ATOM     10  C   UNL     1      50.400   5.116  17.082  0.00  0.00    +0.000 A 
ATOM     11  C   UNL     1      49.688   3.910  17.128  0.00  0.00    +0.000 A 
ATOM     12  C   UNL     1      50.326   2.709  17.447  0.00  0.00    +0.000 A 
ATOM     13  CA  UNL     1      51.690   2.722  17.712  0.00  0.00    +0.000 A 
ATOM     14  N   UNL     1      52.421   3.864  17.683  0.00  0.00    +0.000 NA
ATOM     15  C   UNL     1      51.763   5.014  17.372  0.00  0.00    +0.000 A 
BRANCH  13  16
ATOM     16  C   UNL     1      52.423   1.444  18.037  0.00  0.00    +0.000 C 
BRANCH  16  17
ATOM     17  O   UNL     1      51.514   0.352  18.154  0.00  0.00    +0.000 OA
ATOM     18  H   UNL     1      52.070  -0.447  18.080  0.00  0.00    +0.000 HD
ENDBRANCH  16  17
ENDBRANCH  13  16
ENDBRANCH   8  10
ENDBRANCH   1   4
BRANCH   1  19
ATOM     19  N   UNL     1      46.629   7.545  13.647  0.00  0.00    +0.000 N 
ATOM     20  H   UNL     1      45.933   7.843  14.324  0.00  0.00    +0.000 HD
BRANCH  19  27
ATOM     21  C   UNL     1      46.646   4.522  14.468  0.00  0.00    +0.000 C 
ATOM     22  C   UNL     1      46.083   5.134  13.231  0.00  0.00    +0.000 A 
ATOM     23  C   UNL     1      45.558   4.232  12.279  0.00  0.00    +0.000 A 
ATOM     24  C   UNL     1      44.974   4.671  11.095  0.00  0.00    +0.000 A 
ATOM     25  C   UNL     1      44.943   6.033  10.909  0.00  0.00    +0.000 A 
ATOM     26  N   UNL     1      45.474   6.933  11.786  0.00  0.00    +0.000 NA
ATOM     27  C   UNL     1      46.063   6.495  12.935  0.00  0.00    +0.000 A 
BRANCH  24  28
ATOM     28  C   UNL     1      44.450   3.653  10.147  0.00  0.00    +0.000 C 
ATOM     29  N   UNL     1      44.128   2.409  10.605  0.00  0.00    +0.000 N 
ATOM     30  O   UNL     1      44.303   3.916   8.960  0.00  0.00    +0.000 OA
ATOM     31  H   UNL     1      44.200   2.083  11.555  0.00  0.00    +0.000 HD
ATOM     32  H   UNL     1      43.771   1.761   9.911  0.00  0.00    +0.000 HD
ENDBRANCH  24  28
ENDBRANCH  19  27
ENDBRANCH   1  19
TORSDOF 7
ENDMDL
