MODEL 1
REMARK VINA RESULT:    -8.467      0.000      0.000
REMARK INTER + INTRA:         -13.887
REMARK INTER:                 -12.427
REMARK INTRA:                  -1.460
REMARK UNBOUND:                -1.460
REMARK  Name = 
REMARK  9 active torsions:
REMARK  status: ('A' for Active; 'I' for Inactive)
REMARK    1  A    between atoms: C_1  and  O_2
REMARK    2  A    between atoms: O_2  and  C_3
REMARK    3  A    between atoms: C_10  and  C_11
REMARK    4  A    between atoms: N_13  and  C_14
REMARK    5  A    between atoms: C_14  and  C_15
REMARK    6  A    between atoms: C_18  and  N_19
REMARK    7  A    between atoms: N_19  and  C_20
REMARK    8  A    between atoms: C_20  and  C_21
REMARK    9  A    between atoms: C_21  and  C_22
REMARK                            x       y       z     vdW  Elec       q    Type
REMARK                         _______ _______ _______ _____ _____    ______ ____
ROOT
ATOM      1  C   UNL     1      47.171   8.261  13.337  0.00  0.00    +0.000 C 
ENDROOT
BRANCH   1   2
ATOM      2  C   UNL     1      46.267   7.410  12.486  0.00  0.00    +0.000 A 
ATOM      3  C   UNL     1      46.805   6.518  11.553  0.00  0.00    +0.000 A 
ATOM      4  C   UNL     1      45.969   5.707  10.778  0.00  0.00    +0.000 A 
ATOM      5  C   UNL     1      44.580   5.752  10.933  0.00  0.00    +0.000 A 
ATOM      6  C   UNL     1      44.046   6.717  11.792  0.00  0.00    +0.000 A 
ATOM      7  C   UNL     1      44.875   7.529  12.573  0.00  0.00    +0.000 A 
BRANCH   5   8
ATOM      8  N   UNL     1      43.685   4.938  10.222  0.00  0.00    +0.000 N 
ATOM      9  H   UNL     1      42.810   5.440  10.081  0.00  0.00    +0.000 HD
BRANCH   8  10
ATOM     10  C   UNL     1      44.158   4.328   8.969  0.00  0.00    +0.000 C 
BRANCH  10  11
ATOM     11  C   UNL     1      44.519   2.852   9.171  0.00  0.00    +0.000 C 
BRANCH  11  12
ATOM     12  C   UNL     1      45.651   2.427   8.276  0.00  0.00    +0.000 A 
ATOM     13  C   UNL     1      46.232   3.332   7.393  0.00  0.00    +0.000 A 
ATOM     14  C   UNL     1      47.254   2.892   6.557  0.00  0.00    +0.000 A 
ATOM     15  C   UNL     1      47.658   1.563   6.615  0.00  0.00    +0.000 A 
ATOM     16  C   UNL     1      47.019   0.726   7.511  0.00  0.00    +0.000 A 
ATOM     17  N   UNL     1      46.030   1.126   8.340  0.00  0.00    +0.000 NA
ENDBRANCH  11  12
ENDBRANCH  10  11
ENDBRANCH   8  10
ENDBRANCH   5   8
ENDBRANCH   1   2
BRANCH   1  20
ATOM     18  C   UNL     1      48.736   6.910  14.670  0.00  0.00    +0.000 C 
ATOM     19  O   UNL     1      49.562   6.900  13.760  0.00  0.00    +0.000 OA
ATOM     20  N   UNL     1      47.544   7.562  14.538  0.00  0.00    +0.000 N 
ATOM     21  H   UNL     1      46.870   7.545  15.291  0.00  0.00    +0.000 HD
BRANCH  18  29
ATOM     22  C   UNL     1      47.228   4.226  16.208  0.00  0.00    +0.000 A 
ATOM     23  N   UNL     1      46.871   3.186  16.987  0.00  0.00    +0.000 NA
ATOM     24  C   UNL     1      47.572   2.968  18.103  0.00  0.00    +0.000 A 
ATOM     25  N   UNL     1      48.599   3.681  18.556  0.00  0.00    +0.000 NA
ATOM     26  C   UNL     1      48.929   4.702  17.746  0.00  0.00    +0.000 A 
ATOM     27  S   UNL     1      50.214   5.726  18.170  0.00  0.00    +0.000 S 
ATOM     28  C   UNL     1      50.011   6.648  16.757  0.00  0.00    +0.000 A 
ATOM     29  C   UNL     1      48.982   6.201  15.937  0.00  0.00    +0.000 A 
ATOM     30  C   UNL     1      48.320   5.048  16.544  0.00  0.00    +0.000 A 
BRANCH  22  32
ATOM     31  C   UNL     1      46.933   3.599  13.971  0.00  0.00    +0.000 C 
ATOM     32  O   UNL     1      46.519   4.439  15.046  0.00  0.00    +0.000 OA
ENDBRANCH  22  32
ENDBRANCH  18  29
ENDBRANCH   1  20
TORSDOF 8
ENDMDL
MODEL 2
REMARK VINA RESULT:    -7.751      1.630      2.021
REMARK INTER + INTRA:         -12.835
REMARK INTER:                 -11.532
REMARK INTRA:                  -1.303
REMARK UNBOUND:                -1.460
REMARK  Name = 
REMARK  9 active torsions:
REMARK  status: ('A' for Active; 'I' for Inactive)
REMARK    1  A    between atoms: C_1  and  O_2
REMARK    2  A    between atoms: O_2  and  C_3
REMARK    3  A    between atoms: C_10  and  C_11
REMARK    4  A    between atoms: N_13  and  C_14
REMARK    5  A    between atoms: C_14  and  C_15
REMARK    6  A    between atoms: C_18  and  N_19
REMARK    7  A    between atoms: N_19  and  C_20
REMARK    8  A    between atoms: C_20  and  C_21
REMARK    9  A    between atoms: C_21  and  C_22
REMARK                            x       y       z     vdW  Elec       q    Type
REMARK                         _______ _______ _______ _____ _____    ______ ____
ROOT
ATOM      1  C   UNL     1      48.365   6.899  13.664  0.00  0.00    +0.000 C 
ENDROOT
BRANCH   1   2
ATOM      2  C   UNL     1      47.241   6.148  13.002  0.00  0.00    +0.000 A 
ATOM      3  C   UNL     1      46.647   5.055  13.639  0.00  0.00    +0.000 A 
ATOM      4  C   UNL     1      45.585   4.371  13.037  0.00  0.00    +0.000 A 
ATOM      5  C   UNL     1      45.079   4.776  11.798  0.00  0.00    +0.000 A 
ATOM      6  C   UNL     1      45.744   5.803  11.122  0.00  0.00    +0.000 A 
ATOM      7  C   UNL     1      46.803   6.495  11.718  0.00  0.00    +0.000 A 
BRANCH   5   8
ATOM      8  N   UNL     1      43.990   4.165  11.157  0.00  0.00    +0.000 N 
ATOM      9  H   UNL     1      43.143   4.697  11.351  0.00  0.00    +0.000 HD
BRANCH   8  10
ATOM     10  C   UNL     1      44.117   3.866   9.722  0.00  0.00    +0.000 C 
BRANCH  10  11
ATOM     11  C   UNL     1      44.547   2.412   9.493  0.00  0.00    +0.000 C 
BRANCH  11  12
ATOM     12  C   UNL     1      45.600   2.303   8.423  0.00  0.00    +0.000 A 
ATOM     13  C   UNL     1      45.869   3.381   7.584  0.00  0.00    +0.000 A 
ATOM     14  C   UNL     1      46.826   3.230   6.585  0.00  0.00    +0.000 A 
ATOM     15  C   UNL     1      47.476   2.009   6.443  0.00  0.00    +0.000 A 
ATOM     16  C   UNL     1      47.140   0.986   7.310  0.00  0.00    +0.000 A 
ATOM     17  N   UNL     1      46.222   1.105   8.293  0.00  0.00    +0.000 NA
ENDBRANCH  11  12
ENDBRANCH  10  11
ENDBRANCH   8  10
ENDBRANCH   5   8
ENDBRANCH   1   2
BRANCH   1  20
ATOM     18  C   UNL     1      49.002   7.603  15.933  0.00  0.00    +0.000 C 
ATOM     19  O   UNL     1      49.834   8.396  15.495  0.00  0.00    +0.000 OA
ATOM     20  N   UNL     1      48.240   6.841  15.096  0.00  0.00    +0.000 N 
ATOM     21  H   UNL     1      47.574   6.183  15.475  0.00  0.00    +0.000 HD
BRANCH  18  29
ATOM     22  C   UNL     1      48.720   4.832  17.953  0.00  0.00    +0.000 A 
ATOM     23  N   UNL     1      48.637   3.941  18.961  0.00  0.00    +0.000 NA
ATOM     24  C   UNL     1      48.518   4.411  20.206  0.00  0.00    +0.000 A 
ATOM     25  N   UNL     1      48.459   5.686  20.578  0.00  0.00    +0.000 NA
ATOM     26  C   UNL     1      48.554   6.541  19.545  0.00  0.00    +0.000 A 
ATOM     27  S   UNL     1      48.489   8.212  19.833  0.00  0.00    +0.000 S 
ATOM     28  C   UNL     1      48.679   8.554  18.179  0.00  0.00    +0.000 A 
ATOM     29  C   UNL     1      48.803   7.423  17.381  0.00  0.00    +0.000 A 
ATOM     30  C   UNL     1      48.704   6.217  18.201  0.00  0.00    +0.000 A 
BRANCH  22  32
ATOM     31  C   UNL     1      48.162   3.126  16.448  0.00  0.00    +0.000 C 
ATOM     32  O   UNL     1      48.863   4.348  16.671  0.00  0.00    +0.000 OA
ENDBRANCH  22  32
ENDBRANCH  18  29
ENDBRANCH   1  20
TORSDOF 8
ENDMDL
MODEL 3
REMARK VINA RESULT:    -7.207      2.039      3.519
REMARK INTER + INTRA:         -12.038
REMARK INTER:                 -10.566
REMARK INTRA:                  -1.472
REMARK UNBOUND:                -1.460
REMARK  Name = 
REMARK  9 active torsions:
REMARK  status: ('A' for Active; 'I' for Inactive)
REMARK    1  A    between atoms: C_1  and  O_2
REMARK    2  A    between atoms: O_2  and  C_3
REMARK    3  A    between atoms: C_10  and  C_11
REMARK    4  A    between atoms: N_13  and  C_14
REMARK    5  A    between atoms: C_14  and  C_15
REMARK    6  A    between atoms: C_18  and  N_19
REMARK    7  A    between atoms: N_19  and  C_20
REMARK    8  A    between atoms: C_20  and  C_21
REMARK    9  A    between atoms: C_21  and  C_22
REMARK                            x       y       z     vdW  Elec       q    Type
REMARK                         _______ _______ _______ _____ _____    ______ ____
ROOT
ATOM      1  C   UNL     1      47.347   3.858  14.777  0.00  0.00    +0.000 C 
ENDROOT
BRANCH   1   2
ATOM      2  C   UNL     1      46.457   4.228  13.620  0.00  0.00    +0.000 A 
ATOM      3  C   UNL     1      46.250   5.570  13.285  0.00  0.00    +0.000 A 
ATOM      4  C   UNL     1      45.445   5.916  12.195  0.00  0.00    +0.000 A 
ATOM      5  C   UNL     1      44.847   4.931  11.401  0.00  0.00    +0.000 A 
ATOM      6  C   UNL     1      44.975   3.598  11.803  0.00  0.00    +0.000 A 
ATOM      7  C   UNL     1      45.781   3.244  12.889  0.00  0.00    +0.000 A 
BRANCH   5   8
ATOM      8  N   UNL     1      44.065   5.204  10.269  0.00  0.00    +0.000 N 
ATOM      9  H   UNL     1      44.168   6.186  10.017  0.00  0.00    +0.000 HD
BRANCH   8  10
ATOM     10  C   UNL     1      44.226   4.331   9.095  0.00  0.00    +0.000 C 
BRANCH  10  11
ATOM     11  C   UNL     1      45.560   4.591   8.388  0.00  0.00    +0.000 C 
BRANCH  11  12
ATOM     12  C   UNL     1      46.200   3.314   7.916  0.00  0.00    +0.000 A 
ATOM     13  C   UNL     1      45.755   2.083   8.390  0.00  0.00    +0.000 A 
ATOM     14  C   UNL     1      46.395   0.926   7.956  0.00  0.00    +0.000 A 
ATOM     15  C   UNL     1      47.465   1.028   7.075  0.00  0.00    +0.000 A 
ATOM     16  C   UNL     1      47.853   2.290   6.664  0.00  0.00    +0.000 A 
ATOM     17  N   UNL     1      47.247   3.430   7.061  0.00  0.00    +0.000 NA
ENDBRANCH  11  12
ENDBRANCH  10  11
ENDBRANCH   8  10
ENDBRANCH   5   8
ENDBRANCH   1   2
BRANCH   1  20
ATOM     18  C   UNL     1      48.460   4.997  16.652  0.00  0.00    +0.000 C 
ATOM     19  O   UNL     1      49.222   4.049  16.825  0.00  0.00    +0.000 OA
ATOM     20  N   UNL     1      47.519   4.979  15.663  0.00  0.00    +0.000 N 
ATOM     21  H   UNL     1      46.889   5.760  15.546  0.00  0.00    +0.000 HD
BRANCH  18  29
ATOM     22  C   UNL     1      48.634   8.374  16.012  0.00  0.00    +0.000 A 
ATOM     23  N   UNL     1      48.644   9.721  16.048  0.00  0.00    +0.000 NA
ATOM     24  C   UNL     1      48.610  10.318  17.242  0.00  0.00    +0.000 A 
ATOM     25  N   UNL     1      48.579   9.725  18.433  0.00  0.00    +0.000 NA
ATOM     26  C   UNL     1      48.561   8.384  18.353  0.00  0.00    +0.000 A 
ATOM     27  S   UNL     1      48.529   7.461  19.777  0.00  0.00    +0.000 S 
ATOM     28  C   UNL     1      48.503   6.009  18.893  0.00  0.00    +0.000 A 
ATOM     29  C   UNL     1      48.509   6.189  17.515  0.00  0.00    +0.000 A 
ATOM     30  C   UNL     1      48.568   7.614  17.194  0.00  0.00    +0.000 A 
BRANCH  22  32
ATOM     31  C   UNL     1      49.945   7.709  14.189  0.00  0.00    +0.000 C 
ATOM     32  O   UNL     1      48.648   7.758  14.780  0.00  0.00    +0.000 OA
ENDBRANCH  22  32
ENDBRANCH  18  29
ENDBRANCH   1  20
TORSDOF 8
ENDMDL
MODEL 4
REMARK VINA RESULT:    -6.902      2.578      3.485
REMARK INTER + INTRA:         -11.590
REMARK INTER:                 -10.191
REMARK INTRA:                  -1.399
REMARK UNBOUND:                -1.460
REMARK  Name = 
REMARK  9 active torsions:
REMARK  status: ('A' for Active; 'I' for Inactive)
REMARK    1  A    between atoms: C_1  and  O_2
REMARK    2  A    between atoms: O_2  and  C_3
REMARK    3  A    between atoms: C_10  and  C_11
REMARK    4  A    between atoms: N_13  and  C_14
REMARK    5  A    between atoms: C_14  and  C_15
REMARK    6  A    between atoms: C_18  and  N_19
REMARK    7  A    between atoms: N_19  and  C_20
REMARK    8  A    between atoms: C_20  and  C_21
REMARK    9  A    between atoms: C_21  and  C_22
REMARK                            x       y       z     vdW  Elec       q    Type
REMARK                         _______ _______ _______ _____ _____    ______ ____
ROOT
ATOM      1  C   UNL     1      49.340   7.140  15.443  0.00  0.00    +0.000 C 
ENDROOT
BRANCH   1   2
ATOM      2  C   UNL     1      48.265   6.437  14.657  0.00  0.00    +0.000 A 
ATOM      3  C   UNL     1      47.869   6.923  13.407  0.00  0.00    +0.000 A 
ATOM      4  C   UNL     1      46.889   6.257  12.663  0.00  0.00    +0.000 A 
ATOM      5  C   UNL     1      46.299   5.082  13.140  0.00  0.00    +0.000 A 
ATOM      6  C   UNL     1      46.625   4.661  14.432  0.00  0.00    +0.000 A 
ATOM      7  C   UNL     1      47.608   5.318  15.180  0.00  0.00    +0.000 A 
BRANCH   5   8
ATOM      8  N   UNL     1      45.343   4.340  12.429  0.00  0.00    +0.000 N 
ATOM      9  H   UNL     1      45.323   3.386  12.786  0.00  0.00    +0.000 HD
BRANCH   8  10
ATOM     10  C   UNL     1      43.985   4.897  12.316  0.00  0.00    +0.000 C 
BRANCH  10  11
ATOM     11  C   UNL     1      43.596   5.122  10.851  0.00  0.00    +0.000 C 
BRANCH  11  12
ATOM     12  C   UNL     1      44.349   4.204   9.927  0.00  0.00    +0.000 A 
ATOM     13  C   UNL     1      45.271   4.717   9.018  0.00  0.00    +0.000 A 
ATOM     14  C   UNL     1      45.922   3.840   8.157  0.00  0.00    +0.000 A 
ATOM     15  C   UNL     1      45.628   2.482   8.215  0.00  0.00    +0.000 A 
ATOM     16  C   UNL     1      44.689   2.057   9.137  0.00  0.00    +0.000 A 
ATOM     17  N   UNL     1      44.047   2.883   9.992  0.00  0.00    +0.000 NA
ENDBRANCH  11  12
ENDBRANCH  10  11
ENDBRANCH   8  10
ENDBRANCH   5   8
ENDBRANCH   1   2
BRANCH   1  20
ATOM     18  C   UNL     1      50.447   6.101  17.377  0.00  0.00    +0.000 C 
ATOM     19  O   UNL     1      49.850   6.835  18.163  0.00  0.00    +0.000 OA
ATOM     20  N   UNL     1      50.244   6.188  16.031  0.00  0.00    +0.000 N 
ATOM     21  H   UNL     1      50.757   5.588  15.400  0.00  0.00    +0.000 HD
BRANCH  18  29
ATOM     22  C   UNL     1      50.604   2.667  17.208  0.00  0.00    +0.000 A 
ATOM     23  N   UNL     1      50.940   1.362  17.234  0.00  0.00    +0.000 NA
ATOM     24  C   UNL     1      52.102   1.025  17.799  0.00  0.00    +0.000 A 
ATOM     25  N   UNL     1      52.984   1.843  18.366  0.00  0.00    +0.000 NA
ATOM     26  C   UNL     1      52.616   3.134  18.311  0.00  0.00    +0.000 A 
ATOM     27  S   UNL     1      53.619   4.321  18.994  0.00  0.00    +0.000 S 
ATOM     28  C   UNL     1      52.552   5.560  18.532  0.00  0.00    +0.000 A 
ATOM     29  C   UNL     1      51.427   5.108  17.850  0.00  0.00    +0.000 A 
ATOM     30  C   UNL     1      51.457   3.651  17.740  0.00  0.00    +0.000 A 
BRANCH  22  32
ATOM     31  C   UNL     1      48.268   2.512  17.286  0.00  0.00    +0.000 C 
ATOM     32  O   UNL     1      49.415   3.018  16.607  0.00  0.00    +0.000 OA
ENDBRANCH  22  32
ENDBRANCH  18  29
ENDBRANCH   1  20
TORSDOF 8
ENDMDL
MODEL 5
REMARK VINA RESULT:    -6.876      2.632      3.645
REMARK INTER + INTRA:         -11.552
REMARK INTER:                 -10.308
REMARK INTRA:                  -1.244
REMARK UNBOUND:                -1.460
REMARK  Name = 
REMARK  9 active torsions:
REMARK  status: ('A' for Active; 'I' for Inactive)
REMARK    1  A    between atoms: C_1  and  O_2
REMARK    2  A    between atoms: O_2  and  C_3
REMARK    3  A    between atoms: C_10  and  C_11
REMARK    4  A    between atoms: N_13  and  C_14
REMARK    5  A    between atoms: C_14  and  C_15
REMARK    6  A    between atoms: C_18  and  N_19
REMARK    7  A    between atoms: N_19  and  C_20
REMARK    8  A    between atoms: C_20  and  C_21
REMARK    9  A    between atoms: C_21  and  C_22
REMARK                            x       y       z     vdW  Elec       q    Type
REMARK                         _______ _______ _______ _____ _____    ______ ____
ROOT
ATOM      1  C   UNL     1      48.410   6.671  14.096  0.00  0.00    +0.000 C 
ENDROOT
BRANCH   1   2
ATOM      2  C   UNL     1      47.160   6.174  13.419  0.00  0.00    +0.000 A 
ATOM      3  C   UNL     1      46.335   7.057  12.716  0.00  0.00    +0.000 A 
ATOM      4  C   UNL     1      45.187   6.594  12.065  0.00  0.00    +0.000 A 
ATOM      5  C   UNL     1      44.849   5.236  12.083  0.00  0.00    +0.000 A 
ATOM      6  C   UNL     1      45.620   4.378  12.872  0.00  0.00    +0.000 A 
ATOM      7  C   UNL     1      46.772   4.833  13.522  0.00  0.00    +0.000 A 
BRANCH   5   8
ATOM      8  N   UNL     1      43.738   4.696  11.416  0.00  0.00    +0.000 N 
ATOM      9  H   UNL     1      42.928   5.296  11.569  0.00  0.00    +0.000 HD
BRANCH   8  10
ATOM     10  C   UNL     1      43.889   4.356   9.992  0.00  0.00    +0.000 C 
BRANCH  10  11
ATOM     11  C   UNL     1      44.325   2.897   9.812  0.00  0.00    +0.000 C 
BRANCH  11  12
ATOM     12  C   UNL     1      45.376   2.756   8.746  0.00  0.00    +0.000 A 
ATOM     13  C   UNL     1      45.901   1.506   8.431  0.00  0.00    +0.000 A 
ATOM     14  C   UNL     1      46.897   1.421   7.463  0.00  0.00    +0.000 A 
ATOM     15  C   UNL     1      47.349   2.582   6.846  0.00  0.00    +0.000 A 
ATOM     16  C   UNL     1      46.784   3.786   7.227  0.00  0.00    +0.000 A 
ATOM     17  N   UNL     1      45.811   3.899   8.157  0.00  0.00    +0.000 NA
ENDBRANCH  11  12
ENDBRANCH  10  11
ENDBRANCH   8  10
ENDBRANCH   5   8
ENDBRANCH   1   2
BRANCH   1  20
ATOM     18  C   UNL     1      48.685   6.184  16.491  0.00  0.00    +0.000 C 
ATOM     19  O   UNL     1      49.416   5.224  16.251  0.00  0.00    +0.000 OA
ATOM     20  N   UNL     1      48.160   6.944  15.486  0.00  0.00    +0.000 N 
ATOM     21  H   UNL     1      47.548   7.718  15.702  0.00  0.00    +0.000 HD
BRANCH  18  29
ATOM     22  C   UNL     1      48.852   9.114  18.288  0.00  0.00    +0.000 A 
ATOM     23  N   UNL     1      48.754  10.115  19.186  0.00  0.00    +0.000 NA
ATOM     24  C   UNL     1      48.232   9.835  20.383  0.00  0.00    +0.000 A 
ATOM     25  N   UNL     1      47.796   8.653  20.810  0.00  0.00    +0.000 NA
ATOM     26  C   UNL     1      47.903   7.686  19.883  0.00  0.00    +0.000 A 
ATOM     27  S   UNL     1      47.401   6.109  20.258  0.00  0.00    +0.000 S 
ATOM     28  C   UNL     1      47.810   5.557  18.703  0.00  0.00    +0.000 A 
ATOM     29  C   UNL     1      48.323   6.546  17.872  0.00  0.00    +0.000 A 
ATOM     30  C   UNL     1      48.399   7.817  18.590  0.00  0.00    +0.000 A 
BRANCH  22  32
ATOM     31  C   UNL     1      48.835  10.598  16.476  0.00  0.00    +0.000 C 
ATOM     32  O   UNL     1      49.372   9.406  17.046  0.00  0.00    +0.000 OA
ENDBRANCH  22  32
ENDBRANCH  18  29
ENDBRANCH   1  20
TORSDOF 8
ENDMDL
MODEL 6
REMARK VINA RESULT:    -6.458      2.456      3.768
REMARK INTER + INTRA:         -10.938
REMARK INTER:                  -9.542
REMARK INTRA:                  -1.397
REMARK UNBOUND:                -1.460
REMARK  Name = 
REMARK  9 active torsions:
REMARK  status: ('A' for Active; 'I' for Inactive)
REMARK    1  A    between atoms: C_1  and  O_2
REMARK    2  A    between atoms: O_2  and  C_3
REMARK    3  A    between atoms: C_10  and  C_11
REMARK    4  A    between atoms: N_13  and  C_14
REMARK    5  A    between atoms: C_14  and  C_15
REMARK    6  A    between atoms: C_18  and  N_19
REMARK    7  A    between atoms: N_19  and  C_20
REMARK    8  A    between atoms: C_20  and  C_21
REMARK    9  A    between atoms: C_21  and  C_22
REMARK                            x       y       z     vdW  Elec       q    Type
REMARK                         _______ _______ _______ _____ _____    ______ ____
ROOT
ATOM      1  C   UNL     1      47.588   8.260  13.921  0.00  0.00    +0.000 C 
ENDROOT
BRANCH   1   2
ATOM      2  C   UNL     1      46.747   7.330  13.086  0.00  0.00    +0.000 A 
ATOM      3  C   UNL     1      45.867   7.840  12.126  0.00  0.00    +0.000 A 
ATOM      4  C   UNL     1      45.104   6.978  11.331  0.00  0.00    +0.000 A 
ATOM      5  C   UNL     1      45.218   5.590  11.462  0.00  0.00    +0.000 A 
ATOM      6  C   UNL     1      46.021   5.091  12.491  0.00  0.00    +0.000 A 
ATOM      7  C   UNL     1      46.791   5.946  13.287  0.00  0.00    +0.000 A 
BRANCH   5   8
ATOM      8  N   UNL     1      44.517   4.668  10.670  0.00  0.00    +0.000 N 
ATOM      9  H   UNL     1      44.553   4.963   9.695  0.00  0.00    +0.000 HD
BRANCH   8  10
ATOM     10  C   UNL     1      44.858   3.243  10.809  0.00  0.00    +0.000 C 
BRANCH  10  11
ATOM     11  C   UNL     1      44.436   2.447   9.569  0.00  0.00    +0.000 C 
BRANCH  11  12
ATOM     12  C   UNL     1      45.512   2.438   8.518  0.00  0.00    +0.000 A 
ATOM     13  C   UNL     1      46.176   1.258   8.195  0.00  0.00    +0.000 A 
ATOM     14  C   UNL     1      47.189   1.297   7.242  0.00  0.00    +0.000 A 
ATOM     15  C   UNL     1      47.520   2.510   6.649  0.00  0.00    +0.000 A 
ATOM     16  C   UNL     1      46.821   3.638   7.037  0.00  0.00    +0.000 A 
ATOM     17  N   UNL     1      45.828   3.630   7.952  0.00  0.00    +0.000 NA
ENDBRANCH  11  12
ENDBRANCH  10  11
ENDBRANCH   8  10
ENDBRANCH   5   8
ENDBRANCH   1   2
BRANCH   1  20
ATOM     18  C   UNL     1      49.019   7.605  15.810  0.00  0.00    +0.000 C 
ATOM     19  O   UNL     1      48.330   8.244  16.604  0.00  0.00    +0.000 OA
ATOM     20  N   UNL     1      48.713   7.561  14.481  0.00  0.00    +0.000 N 
ATOM     21  H   UNL     1      49.301   7.044  13.842  0.00  0.00    +0.000 HD
BRANCH  18  29
ATOM     22  C   UNL     1      52.346   7.782  14.946  0.00  0.00    +0.000 A 
ATOM     23  N   UNL     1      53.685   7.680  14.842  0.00  0.00    +0.000 NA
ATOM     24  C   UNL     1      54.310   6.795  15.623  0.00  0.00    +0.000 A 
ATOM     25  N   UNL     1      53.751   5.972  16.506  0.00  0.00    +0.000 NA
ATOM     26  C   UNL     1      52.417   6.112  16.586  0.00  0.00    +0.000 A 
ATOM     27  S   UNL     1      51.535   5.135  17.657  0.00  0.00    +0.000 S 
ATOM     28  C   UNL     1      50.073   5.877  17.208  0.00  0.00    +0.000 A 
ATOM     29  C   UNL     1      50.219   6.875  16.253  0.00  0.00    +0.000 A 
ATOM     30  C   UNL     1      51.623   6.998  15.864  0.00  0.00    +0.000 A 
BRANCH  22  32
ATOM     31  C   UNL     1      51.651  10.009  14.740  0.00  0.00    +0.000 C 
ATOM     32  O   UNL     1      51.703   8.710  14.156  0.00  0.00    +0.000 OA
ENDBRANCH  22  32
ENDBRANCH  18  29
ENDBRANCH   1  20
TORSDOF 8
ENDMDL
MODEL 7
REMARK VINA RESULT:    -6.413      3.142      7.771
REMARK INTER + INTRA:         -10.872
REMARK INTER:                  -9.375
REMARK INTRA:                  -1.497
REMARK UNBOUND:                -1.460
REMARK  Name = 
REMARK  9 active torsions:
REMARK  status: ('A' for Active; 'I' for Inactive)
REMARK    1  A    between atoms: C_1  and  O_2
REMARK    2  A    between atoms: O_2  and  C_3
REMARK    3  A    between atoms: C_10  and  C_11
REMARK    4  A    between atoms: N_13  and  C_14
REMARK    5  A    between atoms: C_14  and  C_15
REMARK    6  A    between atoms: C_18  and  N_19
REMARK    7  A    between atoms: N_19  and  C_20
REMARK    8  A    between atoms: C_20  and  C_21
REMARK    9  A    between atoms: C_21  and  C_22
REMARK                            x       y       z     vdW  Elec       q    Type
REMARK                         _______ _______ _______ _____ _____    ______ ____
ROOT
ATOM      1  C   UNL     1      48.328   8.135  11.856  0.00  0.00    +0.000 C 
ENDROOT
BRANCH   1   2
ATOM      2  C   UNL     1      48.953   7.737  13.167  0.00  0.00    +0.000 A 
ATOM      3  C   UNL     1      50.283   8.067  13.447  0.00  0.00    +0.000 A 
ATOM      4  C   UNL     1      50.858   7.721  14.674  0.00  0.00    +0.000 A 
ATOM      5  C   UNL     1      50.114   7.059  15.656  0.00  0.00    +0.000 A 
ATOM      6  C   UNL     1      48.820   6.643  15.330  0.00  0.00    +0.000 A 
ATOM      7  C   UNL     1      48.236   6.989  14.107  0.00  0.00    +0.000 A 
BRANCH   5   8
ATOM      8  N   UNL     1      50.613   6.721  16.923  0.00  0.00    +0.000 N 
ATOM      9  H   UNL     1      49.835   6.528  17.552  0.00  0.00    +0.000 HD
BRANCH   8  10
ATOM     10  C   UNL     1      51.635   5.664  17.000  0.00  0.00    +0.000 C 
BRANCH  10  11
ATOM     11  C   UNL     1      51.259   4.600  18.037  0.00  0.00    +0.000 C 
BRANCH  11  12
ATOM     12  C   UNL     1      49.858   4.092  17.832  0.00  0.00    +0.000 A 
ATOM     13  C   UNL     1      49.626   2.946  17.077  0.00  0.00    +0.000 A 
ATOM     14  C   UNL     1      48.313   2.526  16.882  0.00  0.00    +0.000 A 
ATOM     15  C   UNL     1      47.273   3.265  17.432  0.00  0.00    +0.000 A 
ATOM     16  C   UNL     1      47.589   4.399  18.156  0.00  0.00    +0.000 A 
ATOM     17  N   UNL     1      48.853   4.827  18.370  0.00  0.00    +0.000 NA
ENDBRANCH  11  12
ENDBRANCH  10  11
ENDBRANCH   8  10
ENDBRANCH   5   8
ENDBRANCH   1   2
BRANCH   1  20
ATOM     18  C   UNL     1      46.263   6.910  11.324  0.00  0.00    +0.000 C 
ATOM     19  O   UNL     1      45.569   7.766  11.868  0.00  0.00    +0.000 OA
ATOM     20  N   UNL     1      47.622   7.026  11.273  0.00  0.00    +0.000 N 
ATOM     21  H   UNL     1      48.177   6.303  10.836  0.00  0.00    +0.000 HD
BRANCH  18  29
ATOM     22  C   UNL     1      44.485   4.257  12.607  0.00  0.00    +0.000 A 
ATOM     23  N   UNL     1      43.737   3.158  12.828  0.00  0.00    +0.000 NA
ATOM     24  C   UNL     1      43.415   2.397  11.778  0.00  0.00    +0.000 A 
ATOM     25  N   UNL     1      43.765   2.592  10.510  0.00  0.00    +0.000 NA
ATOM     26  C   UNL     1      44.501   3.702  10.332  0.00  0.00    +0.000 A 
ATOM     27  S   UNL     1      45.044   4.106   8.775  0.00  0.00    +0.000 S 
ATOM     28  C   UNL     1      45.808   5.510   9.352  0.00  0.00    +0.000 A 
ATOM     29  C   UNL     1      45.664   5.707  10.721  0.00  0.00    +0.000 A 
ATOM     30  C   UNL     1      44.900   4.609  11.309  0.00  0.00    +0.000 A 
BRANCH  22  32
ATOM     31  C   UNL     1      46.013   4.675  14.332  0.00  0.00    +0.000 C 
ATOM     32  O   UNL     1      44.800   5.054  13.686  0.00  0.00    +0.000 OA
ENDBRANCH  22  32
ENDBRANCH  18  29
ENDBRANCH   1  20
TORSDOF 8
ENDMDL
MODEL 8
REMARK VINA RESULT:    -6.109      3.532      7.753
REMARK INTER + INTRA:         -10.426
REMARK INTER:                  -8.275
REMARK INTRA:                  -2.151
REMARK UNBOUND:                -1.460
REMARK  Name = 
REMARK  9 active torsions:
REMARK  status: ('A' for Active; 'I' for Inactive)
REMARK    1  A    between atoms: C_1  and  O_2
REMARK    2  A    between atoms: O_2  and  C_3
REMARK    3  A    between atoms: C_10  and  C_11
REMARK    4  A    between atoms: N_13  and  C_14
REMARK    5  A    between atoms: C_14  and  C_15
REMARK    6  A    between atoms: C_18  and  N_19
REMARK    7  A    between atoms: N_19  and  C_20
REMARK    8  A    between atoms: C_20  and  C_21
REMARK    9  A    between atoms: C_21  and  C_22
REMARK                            x       y       z     vdW  Elec       q    Type
REMARK                         _______ _______ _______ _____ _____    ______ ____
ROOT
ATOM      1  C   UNL     1      48.398   8.687  12.924  0.00  0.00    +0.000 C 
ENDROOT
BRANCH   1   2
ATOM      2  C   UNL     1      48.949   8.304  14.272  0.00  0.00    +0.000 A 
ATOM      3  C   UNL     1      48.419   8.861  15.439  0.00  0.00    +0.000 A 
ATOM      4  C   UNL     1      48.911   8.488  16.694  0.00  0.00    +0.000 A 
ATOM      5  C   UNL     1      49.929   7.535  16.813  0.00  0.00    +0.000 A 
ATOM      6  C   UNL     1      50.524   7.061  15.640  0.00  0.00    +0.000 A 
ATOM      7  C   UNL     1      50.034   7.426  14.381  0.00  0.00    +0.000 A 
BRANCH   5   8
ATOM      8  N   UNL     1      50.440   7.083  18.038  0.00  0.00    +0.000 N 
ATOM      9  H   UNL     1      50.912   7.852  18.512  0.00  0.00    +0.000 HD
BRANCH   8  10
ATOM     10  C   UNL     1      49.522   6.379  18.948  0.00  0.00    +0.000 C 
BRANCH  10  11
ATOM     11  C   UNL     1      48.829   5.208  18.242  0.00  0.00    +0.000 C 
BRANCH  11  12
ATOM     12  C   UNL     1      49.790   4.092  17.937  0.00  0.00    +0.000 A 
ATOM     13  C   UNL     1      49.345   2.921  17.330  0.00  0.00    +0.000 A 
ATOM     14  C   UNL     1      50.258   1.898  17.096  0.00  0.00    +0.000 A 
ATOM     15  C   UNL     1      51.582   2.064  17.484  0.00  0.00    +0.000 A 
ATOM     16  C   UNL     1      51.939   3.253  18.094  0.00  0.00    +0.000 A 
ATOM     17  N   UNL     1      51.078   4.266  18.327  0.00  0.00    +0.000 NA
ENDBRANCH  11  12
ENDBRANCH  10  11
ENDBRANCH   8  10
ENDBRANCH   5   8
ENDBRANCH   1   2
BRANCH   1  20
ATOM     18  C   UNL     1      46.078   7.898  12.717  0.00  0.00    +0.000 C 
ATOM     19  O   UNL     1      45.648   8.890  13.303  0.00  0.00    +0.000 OA
ATOM     20  N   UNL     1      47.413   7.733  12.489  0.00  0.00    +0.000 N 
ATOM     21  H   UNL     1      47.749   6.903  12.020  0.00  0.00    +0.000 HD
BRANCH  18  29
ATOM     22  C   UNL     1      46.168   4.465  12.937  0.00  0.00    +0.000 A 
ATOM     23  N   UNL     1      45.926   3.139  12.930  0.00  0.00    +0.000 NA
ATOM     24  C   UNL     1      44.796   2.710  12.362  0.00  0.00    +0.000 A 
ATOM     25  N   UNL     1      43.861   3.454  11.778  0.00  0.00    +0.000 NA
ATOM     26  C   UNL     1      44.135   4.769  11.815  0.00  0.00    +0.000 A 
ATOM     27  S   UNL     1      43.054   5.870  11.108  0.00  0.00    +0.000 S 
ATOM     28  C   UNL     1      44.027   7.190  11.558  0.00  0.00    +0.000 A 
ATOM     29  C   UNL     1      45.175   6.831  12.253  0.00  0.00    +0.000 A 
ATOM     30  C   UNL     1      45.249   5.377  12.385  0.00  0.00    +0.000 A 
BRANCH  22  32
ATOM     31  C   UNL     1      47.236   4.954  14.963  0.00  0.00    +0.000 C 
ATOM     32  O   UNL     1      47.324   4.910  13.541  0.00  0.00    +0.000 OA
ENDBRANCH  22  32
ENDBRANCH  18  29
ENDBRANCH   1  20
TORSDOF 8
ENDMDL
MODEL 9
REMARK VINA RESULT:    -6.005      1.914      2.655
REMARK INTER + INTRA:         -10.273
REMARK INTER:                  -8.985
REMARK INTRA:                  -1.289
REMARK UNBOUND:                -1.460
REMARK  Name = 
REMARK  9 active torsions:
REMARK  status: ('A' for Active; 'I' for Inactive)
REMARK    1  A    between atoms: C_1  and  O_2
REMARK    2  A    between atoms: O_2  and  C_3
REMARK    3  A    between atoms: C_10  and  C_11
REMARK    4  A    between atoms: N_13  and  C_14
REMARK    5  A    between atoms: C_14  and  C_15
REMARK    6  A    between atoms: C_18  and  N_19
REMARK    7  A    between atoms: N_19  and  C_20
REMARK    8  A    between atoms: C_20  and  C_21
REMARK    9  A    between atoms: C_21  and  C_22
REMARK                            x       y       z     vdW  Elec       q    Type
REMARK                         _______ _______ _______ _____ _____    ______ ____
ROOT
ATOM      1  C   UNL     1      49.379   8.680  14.374  0.00  0.00    +0.000 C 
ENDROOT
BRANCH   1   2
ATOM      2  C   UNL     1      48.488   7.950  13.403  0.00  0.00    +0.000 A 
ATOM      3  C   UNL     1      48.932   7.667  12.108  0.00  0.00    +0.000 A 
ATOM      4  C   UNL     1      48.116   6.967  11.213  0.00  0.00    +0.000 A 
ATOM      5  C   UNL     1      46.849   6.516  11.597  0.00  0.00    +0.000 A 
ATOM      6  C   UNL     1      46.372   6.892  12.856  0.00  0.00    +0.000 A 
ATOM      7  C   UNL     1      47.183   7.588  13.759  0.00  0.00    +0.000 A 
BRANCH   5   8
ATOM      8  N   UNL     1      45.997   5.772  10.767  0.00  0.00    +0.000 N 
ATOM      9  H   UNL     1      46.237   4.784  10.835  0.00  0.00    +0.000 HD
BRANCH   8  10
ATOM     10  C   UNL     1      44.546   5.980  10.907  0.00  0.00    +0.000 C 
BRANCH  10  11
ATOM     11  C   UNL     1      43.757   4.790  10.352  0.00  0.00    +0.000 C 
BRANCH  11  12
ATOM     12  C   UNL     1      44.590   3.955   9.417  0.00  0.00    +0.000 A 
ATOM     13  C   UNL     1      44.752   2.591   9.641  0.00  0.00    +0.000 A 
ATOM     14  C   UNL     1      45.559   1.860   8.774  0.00  0.00    +0.000 A 
ATOM     15  C   UNL     1      46.188   2.510   7.718  0.00  0.00    +0.000 A 
ATOM     16  C   UNL     1      45.985   3.870   7.574  0.00  0.00    +0.000 A 
ATOM     17  N   UNL     1      45.203   4.604   8.395  0.00  0.00    +0.000 NA
ENDBRANCH  11  12
ENDBRANCH  10  11
ENDBRANCH   8  10
ENDBRANCH   5   8
ENDBRANCH   1   2
BRANCH   1  20
ATOM     18  C   UNL     1      48.596   8.550  16.701  0.00  0.00    +0.000 C 
ATOM     19  O   UNL     1      47.909   9.561  16.567  0.00  0.00    +0.000 OA
ATOM     20  N   UNL     1      49.338   8.055  15.669  0.00  0.00    +0.000 N 
ATOM     21  H   UNL     1      49.909   7.232  15.803  0.00  0.00    +0.000 HD
BRANCH  18  29
ATOM     22  C   UNL     1      48.593   5.218  17.563  0.00  0.00    +0.000 A 
ATOM     23  N   UNL     1      48.668   4.014  18.164  0.00  0.00    +0.000 NA
ATOM     24  C   UNL     1      48.806   3.984  19.493  0.00  0.00    +0.000 A 
ATOM     25  N   UNL     1      48.868   5.027  20.315  0.00  0.00    +0.000 NA
ATOM     26  C   UNL     1      48.799   6.207  19.676  0.00  0.00    +0.000 A 
ATOM     27  S   UNL     1      48.855   7.649  20.570  0.00  0.00    +0.000 S 
ATOM     28  C   UNL     1      48.742   8.587  19.157  0.00  0.00    +0.000 A 
ATOM     29  C   UNL     1      48.668   7.838  17.988  0.00  0.00    +0.000 A 
ATOM     30  C   UNL     1      48.679   6.411  18.305  0.00  0.00    +0.000 A 
BRANCH  22  32
ATOM     31  C   UNL     1      47.349   4.517  15.707  0.00  0.00    +0.000 C 
ATOM     32  O   UNL     1      48.472   5.251  16.191  0.00  0.00    +0.000 OA
ENDBRANCH  22  32
ENDBRANCH  18  29
ENDBRANCH   1  20
TORSDOF 8
ENDMDL
