MODEL 1
REMARK VINA RESULT:    -6.588      0.000      0.000
REMARK INTER + INTRA:         -11.870
REMARK INTER:                 -10.825
REMARK INTRA:                  -1.045
REMARK UNBOUND:                -1.045
REMARK  Name = 
REMARK  13 active torsions:
REMARK  status: ('A' for Active; 'I' for Inactive)
REMARK    1  A    between atoms: C_1  and  N_2
REMARK    2  A    between atoms: N_2  and  C_3
REMARK    3  A    between atoms: N_2  and  C_4
REMARK    4  A    between atoms: C_4  and  C_5
REMARK    5  A    between atoms: C_5  and  N_6
REMARK    6  A    between atoms: C_7  and  C_9
REMARK    7  A    between atoms: C_9  and  O_10
REMARK    8  A    between atoms: O_10  and  C_11
REMARK    9  A    between atoms: C_14  and  C_15
REMARK   10  A    between atoms: C_16  and  C_17
REMARK   11  A    between atoms: C_17  and  N_18
REMARK   12  A    between atoms: N_18  and  C_19
REMARK   13  A    between atoms: C_23  and  C_24
REMARK                            x       y       z     vdW  Elec       q    Type
REMARK                         _______ _______ _______ _____ _____    ______ ____
ROOT
ATOM      1  C   UNL     1      48.748   7.004  14.197  0.00  0.00    +0.000 A 
ATOM      2  C   UNL     1      48.584   7.628  12.970  0.00  0.00    +0.000 A 
ATOM      3  C   UNL     1      47.597   7.150  12.105  0.00  0.00    +0.000 A 
ATOM      4  C   UNL     1      46.823   6.054  12.483  0.00  0.00    +0.000 A 
ATOM      5  C   UNL     1      47.103   5.463  13.708  0.00  0.00    +0.000 A 
ATOM      6  N   UNL     1      48.044   5.917  14.577  0.00  0.00    +0.000 NA
ENDROOT
BRANCH   4   7
ATOM      7  C   UNL     1      45.753   5.588  11.651  0.00  0.00    +0.000 C 
ATOM      8  C   UNL     1      44.870   5.169  10.949  0.00  0.00    +0.000 C 
BRANCH   8   9
ATOM      9  C   UNL     1      43.757   4.653  10.136  0.00  0.00    +0.000 C 
BRANCH   9  10
ATOM     10  N   UNL     1      44.171   4.481   8.743  0.00  0.00    +0.000 N 
ATOM     11  H   UNL     1      44.527   5.348   8.347  0.00  0.00    +0.000 HD
BRANCH  10  12
ATOM     12  C   UNL     1      44.980   3.377   8.430  0.00  0.00    +0.000 A 
ATOM     13  C   UNL     1      44.898   2.131   9.059  0.00  0.00    +0.000 A 
ATOM     14  N   UNL     1      45.637   1.038   8.735  0.00  0.00    +0.000 NA
ATOM     15  C   UNL     1      46.484   1.169   7.693  0.00  0.00    +0.000 A 
ATOM     16  C   UNL     1      46.619   2.336   6.961  0.00  0.00    +0.000 A 
ATOM     17  C   UNL     1      45.843   3.443   7.327  0.00  0.00    +0.000 A 
BRANCH  16  18
ATOM     18  C   UNL     1      47.534   2.396   5.863  0.00  0.00    +0.000 C 
ATOM     19  N   UNL     1      48.284   2.445   4.981  0.00  0.00    +0.000 NA
ENDBRANCH  16  18
ENDBRANCH  10  12
ENDBRANCH   9  10
ENDBRANCH   8   9
ENDBRANCH   4   7
BRANCH   1  20
ATOM     20  O   UNL     1      49.714   7.526  15.037  0.00  0.00    +0.000 OA
BRANCH  20  21
ATOM     21  C   UNL     1      49.144   8.121  16.202  0.00  0.00    +0.000 C 
BRANCH  21  23
ATOM     22  N   UNL     1      49.240   6.017  17.498  0.00  0.00    +0.000 N 
ATOM     23  C   UNL     1      49.484   7.374  17.495  0.00  0.00    +0.000 C 
ATOM     24  O   UNL     1      49.932   7.962  18.478  0.00  0.00    +0.000 OA
ATOM     25  H   UNL     1      49.027   5.556  16.617  0.00  0.00    +0.000 HD
BRANCH  22  26
ATOM     26  C   UNL     1      49.537   5.211  18.665  0.00  0.00    +0.000 C 
BRANCH  26  27
ATOM     27  C   UNL     1      49.239   3.710  18.481  0.00  0.00    +0.000 C 
BRANCH  27  29
ATOM     28  C   UNL     1      50.253   2.035  17.032  0.00  0.00    +0.000 C 
ATOM     29  N   UNL     1      49.377   3.209  17.094  0.00  0.00    +0.000 NA
ATOM     30  C   UNL     1      48.055   2.847  16.565  0.00  0.00    +0.000 C 
ENDBRANCH  27  29
ENDBRANCH  26  27
ENDBRANCH  22  26
ENDBRANCH  21  23
ENDBRANCH  20  21
ENDBRANCH   1  20
TORSDOF 11
ENDMDL
MODEL 2
REMARK VINA RESULT:    -6.526      1.312      1.740
REMARK INTER + INTRA:         -11.769
REMARK INTER:                 -11.120
REMARK INTRA:                  -0.648
REMARK UNBOUND:                -1.045
REMARK  Name = 
REMARK  13 active torsions:
REMARK  status: ('A' for Active; 'I' for Inactive)
REMARK    1  A    between atoms: C_1  and  N_2
REMARK    2  A    between atoms: N_2  and  C_3
REMARK    3  A    between atoms: N_2  and  C_4
REMARK    4  A    between atoms: C_4  and  C_5
REMARK    5  A    between atoms: C_5  and  N_6
REMARK    6  A    between atoms: C_7  and  C_9
REMARK    7  A    between atoms: C_9  and  O_10
REMARK    8  A    between atoms: O_10  and  C_11
REMARK    9  A    between atoms: C_14  and  C_15
REMARK   10  A    between atoms: C_16  and  C_17
REMARK   11  A    between atoms: C_17  and  N_18
REMARK   12  A    between atoms: N_18  and  C_19
REMARK   13  A    between atoms: C_23  and  C_24
REMARK                            x       y       z     vdW  Elec       q    Type
REMARK                         _______ _______ _______ _____ _____    ______ ____
ROOT
ATOM      1  C   UNL     1      48.469   6.597  14.432  0.00  0.00    +0.000 A 
ATOM      2  C   UNL     1      47.984   6.953  13.183  0.00  0.00    +0.000 A 
ATOM      3  C   UNL     1      46.991   6.161  12.603  0.00  0.00    +0.000 A 
ATOM      4  C   UNL     1      46.531   5.031  13.277  0.00  0.00    +0.000 A 
ATOM      5  C   UNL     1      47.121   4.727  14.497  0.00  0.00    +0.000 A 
ATOM      6  N   UNL     1      48.075   5.488  15.094  0.00  0.00    +0.000 NA
ENDROOT
BRANCH   4   7
ATOM      7  C   UNL     1      45.460   4.241  12.744  0.00  0.00    +0.000 C 
ATOM      8  C   UNL     1      44.541   3.595  12.313  0.00  0.00    +0.000 C 
BRANCH   8   9
ATOM      9  C   UNL     1      43.423   2.830  11.736  0.00  0.00    +0.000 C 
BRANCH   9  10
ATOM     10  N   UNL     1      43.885   2.004  10.620  0.00  0.00    +0.000 N 
ATOM     11  H   UNL     1      43.154   1.378  10.288  0.00  0.00    +0.000 HD
BRANCH  10  12
ATOM     12  C   UNL     1      44.564   2.639   9.569  0.00  0.00    +0.000 A 
ATOM     13  C   UNL     1      44.452   3.999   9.261  0.00  0.00    +0.000 A 
ATOM     14  N   UNL     1      45.140   4.641   8.280  0.00  0.00    +0.000 NA
ATOM     15  C   UNL     1      46.028   3.902   7.583  0.00  0.00    +0.000 A 
ATOM     16  C   UNL     1      46.263   2.560   7.826  0.00  0.00    +0.000 A 
ATOM     17  C   UNL     1      45.532   1.932   8.843  0.00  0.00    +0.000 A 
BRANCH  16  18
ATOM     18  C   UNL     1      47.227   1.844   7.048  0.00  0.00    +0.000 C 
ATOM     19  N   UNL     1      48.015   1.265   6.426  0.00  0.00    +0.000 NA
ENDBRANCH  16  18
ENDBRANCH  10  12
ENDBRANCH   9  10
ENDBRANCH   8   9
ENDBRANCH   4   7
BRANCH   1  20
ATOM     20  O   UNL     1      49.429   7.424  14.987  0.00  0.00    +0.000 OA
BRANCH  20  21
ATOM     21  C   UNL     1      48.856   8.402  15.852  0.00  0.00    +0.000 C 
BRANCH  21  23
ATOM     22  N   UNL     1      49.484   6.791  17.621  0.00  0.00    +0.000 N 
ATOM     23  C   UNL     1      48.874   7.992  17.329  0.00  0.00    +0.000 C 
ATOM     24  O   UNL     1      48.353   8.692  18.196  0.00  0.00    +0.000 OA
ATOM     25  H   UNL     1      50.037   6.335  16.900  0.00  0.00    +0.000 HD
BRANCH  22  26
ATOM     26  C   UNL     1      49.569   6.314  18.986  0.00  0.00    +0.000 C 
BRANCH  26  27
ATOM     27  C   UNL     1      50.006   4.841  19.108  0.00  0.00    +0.000 C 
BRANCH  27  29
ATOM     28  C   UNL     1      51.554   3.470  17.820  0.00  0.00    +0.000 C 
ATOM     29  N   UNL     1      50.256   4.153  17.821  0.00  0.00    +0.000 NA
ATOM     30  C   UNL     1      49.197   3.165  17.573  0.00  0.00    +0.000 C 
ENDBRANCH  27  29
ENDBRANCH  26  27
ENDBRANCH  22  26
ENDBRANCH  21  23
ENDBRANCH  20  21
ENDBRANCH   1  20
TORSDOF 11
ENDMDL
MODEL 3
REMARK VINA RESULT:    -6.390      2.734      9.230
REMARK INTER + INTRA:         -11.544
REMARK INTER:                 -10.741
REMARK INTRA:                  -0.803
REMARK UNBOUND:                -1.045
REMARK  Name = 
REMARK  13 active torsions:
REMARK  status: ('A' for Active; 'I' for Inactive)
REMARK    1  A    between atoms: C_1  and  N_2
REMARK    2  A    between atoms: N_2  and  C_3
REMARK    3  A    between atoms: N_2  and  C_4
REMARK    4  A    between atoms: C_4  and  C_5
REMARK    5  A    between atoms: C_5  and  N_6
REMARK    6  A    between atoms: C_7  and  C_9
REMARK    7  A    between atoms: C_9  and  O_10
REMARK    8  A    between atoms: O_10  and  C_11
REMARK    9  A    between atoms: C_14  and  C_15
REMARK   10  A    between atoms: C_16  and  C_17
REMARK   11  A    between atoms: C_17  and  N_18
REMARK   12  A    between atoms: N_18  and  C_19
REMARK   13  A    between atoms: C_23  and  C_24
REMARK                            x       y       z     vdW  Elec       q    Type
REMARK                         _______ _______ _______ _____ _____    ______ ____
ROOT
ATOM      1  C   UNL     1      44.691   5.487  12.647  0.00  0.00    +0.000 A 
ATOM      2  C   UNL     1      45.393   4.535  13.370  0.00  0.00    +0.000 A 
ATOM      3  C   UNL     1      46.619   4.895  13.933  0.00  0.00    +0.000 A 
ATOM      4  C   UNL     1      47.113   6.184  13.740  0.00  0.00    +0.000 A 
ATOM      5  C   UNL     1      46.362   7.047  12.952  0.00  0.00    +0.000 A 
ATOM      6  N   UNL     1      45.158   6.731  12.407  0.00  0.00    +0.000 NA
ENDROOT
BRANCH   4   7
ATOM      7  C   UNL     1      48.329   6.608  14.368  0.00  0.00    +0.000 C 
ATOM      8  C   UNL     1      49.336   6.990  14.904  0.00  0.00    +0.000 C 
BRANCH   8   9
ATOM      9  C   UNL     1      50.561   7.418  15.600  0.00  0.00    +0.000 C 
BRANCH   9  10
ATOM     10  N   UNL     1      50.404   7.289  17.049  0.00  0.00    +0.000 N 
ATOM     11  H   UNL     1      49.974   8.117  17.456  0.00  0.00    +0.000 HD
BRANCH  10  12
ATOM     12  C   UNL     1      49.851   6.099  17.547  0.00  0.00    +0.000 A 
ATOM     13  C   UNL     1      48.661   6.024  18.278  0.00  0.00    +0.000 A 
ATOM     14  N   UNL     1      48.084   4.877  18.723  0.00  0.00    +0.000 NA
ATOM     15  C   UNL     1      48.700   3.723  18.392  0.00  0.00    +0.000 A 
ATOM     16  C   UNL     1      49.856   3.665  17.633  0.00  0.00    +0.000 A 
ATOM     17  C   UNL     1      50.422   4.869  17.194  0.00  0.00    +0.000 A 
BRANCH  16  18
ATOM     18  C   UNL     1      50.448   2.402  17.315  0.00  0.00    +0.000 C 
ATOM     19  N   UNL     1      50.930   1.383  17.048  0.00  0.00    +0.000 NA
ENDBRANCH  16  18
ENDBRANCH  10  12
ENDBRANCH   9  10
ENDBRANCH   8   9
ENDBRANCH   4   7
BRANCH   1  20
ATOM     20  O   UNL     1      43.467   5.101  12.131  0.00  0.00    +0.000 OA
BRANCH  20  21
ATOM     21  C   UNL     1      43.397   5.298  10.720  0.00  0.00    +0.000 C 
BRANCH  21  23
ATOM     22  N   UNL     1      44.647   4.432   8.770  0.00  0.00    +0.000 N 
ATOM     23  C   UNL     1      43.946   4.117   9.914  0.00  0.00    +0.000 C 
ATOM     24  O   UNL     1      43.752   2.953  10.264  0.00  0.00    +0.000 OA
ATOM     25  H   UNL     1      44.917   5.400   8.613  0.00  0.00    +0.000 HD
BRANCH  22  26
ATOM     26  C   UNL     1      45.221   3.394   7.939  0.00  0.00    +0.000 C 
BRANCH  26  27
ATOM     27  C   UNL     1      46.598   3.755   7.347  0.00  0.00    +0.000 C 
BRANCH  27  29
ATOM     28  C   UNL     1      46.913   1.351   7.583  0.00  0.00    +0.000 C 
ATOM     29  N   UNL     1      47.479   2.599   7.061  0.00  0.00    +0.000 NA
ATOM     30  C   UNL     1      47.667   2.468   5.610  0.00  0.00    +0.000 C 
ENDBRANCH  27  29
ENDBRANCH  26  27
ENDBRANCH  22  26
ENDBRANCH  21  23
ENDBRANCH  20  21
ENDBRANCH   1  20
TORSDOF 11
ENDMDL
MODEL 4
REMARK VINA RESULT:    -6.367      2.518      3.714
REMARK INTER + INTRA:         -11.506
REMARK INTER:                 -10.743
REMARK INTRA:                  -0.764
REMARK UNBOUND:                -1.045
REMARK  Name = 
REMARK  13 active torsions:
REMARK  status: ('A' for Active; 'I' for Inactive)
REMARK    1  A    between atoms: C_1  and  N_2
REMARK    2  A    between atoms: N_2  and  C_3
REMARK    3  A    between atoms: N_2  and  C_4
REMARK    4  A    between atoms: C_4  and  C_5
REMARK    5  A    between atoms: C_5  and  N_6
REMARK    6  A    between atoms: C_7  and  C_9
REMARK    7  A    between atoms: C_9  and  O_10
REMARK    8  A    between atoms: O_10  and  C_11
REMARK    9  A    between atoms: C_14  and  C_15
REMARK   10  A    between atoms: C_16  and  C_17
REMARK   11  A    between atoms: C_17  and  N_18
REMARK   12  A    between atoms: N_18  and  C_19
REMARK   13  A    between atoms: C_23  and  C_24
REMARK                            x       y       z     vdW  Elec       q    Type
REMARK                         _______ _______ _______ _____ _____    ______ ____
ROOT
ATOM      1  C   UNL     1      48.478   4.781  16.569  0.00  0.00    +0.000 A 
ATOM      2  C   UNL     1      47.368   4.069  16.144  0.00  0.00    +0.000 A 
ATOM      3  C   UNL     1      46.728   4.469  14.969  0.00  0.00    +0.000 A 
ATOM      4  C   UNL     1      47.203   5.578  14.270  0.00  0.00    +0.000 A 
ATOM      5  C   UNL     1      48.287   6.259  14.809  0.00  0.00    +0.000 A 
ATOM      6  N   UNL     1      48.940   5.882  15.940  0.00  0.00    +0.000 NA
ENDROOT
BRANCH   4   7
ATOM      7  C   UNL     1      46.616   5.968  13.023  0.00  0.00    +0.000 C 
ATOM      8  C   UNL     1      46.143   6.276  11.960  0.00  0.00    +0.000 C 
BRANCH   8   9
ATOM      9  C   UNL     1      45.517   6.625  10.674  0.00  0.00    +0.000 C 
BRANCH   9  10
ATOM     10  N   UNL     1      44.395   5.732  10.386  0.00  0.00    +0.000 N 
ATOM     11  H   UNL     1      43.644   6.216   9.899  0.00  0.00    +0.000 HD
BRANCH  10  12
ATOM     12  C   UNL     1      44.680   4.479   9.822  0.00  0.00    +0.000 A 
ATOM     13  C   UNL     1      44.206   3.260  10.317  0.00  0.00    +0.000 A 
ATOM     14  N   UNL     1      44.429   2.043   9.755  0.00  0.00    +0.000 NA
ATOM     15  C   UNL     1      45.133   2.030   8.604  0.00  0.00    +0.000 A 
ATOM     16  C   UNL     1      45.614   3.174   7.990  0.00  0.00    +0.000 A 
ATOM     17  C   UNL     1      45.367   4.409   8.602  0.00  0.00    +0.000 A 
BRANCH  16  18
ATOM     18  C   UNL     1      46.348   3.081   6.765  0.00  0.00    +0.000 C 
ATOM     19  N   UNL     1      46.935   3.012   5.769  0.00  0.00    +0.000 NA
ENDBRANCH  16  18
ENDBRANCH  10  12
ENDBRANCH   9  10
ENDBRANCH   8   9
ENDBRANCH   4   7
BRANCH   1  20
ATOM     20  O   UNL     1      49.102   4.334  17.720  0.00  0.00    +0.000 OA
BRANCH  20  21
ATOM     21  C   UNL     1      48.951   2.927  17.897  0.00  0.00    +0.000 C 
BRANCH  21  23
ATOM     22  N   UNL     1      51.199   1.901  17.994  0.00  0.00    +0.000 N 
ATOM     23  C   UNL     1      50.066   2.109  17.238  0.00  0.00    +0.000 C 
ATOM     24  O   UNL     1      49.956   1.681  16.090  0.00  0.00    +0.000 OA
ATOM     25  H   UNL     1      51.176   2.132  18.984  0.00  0.00    +0.000 HD
BRANCH  22  26
ATOM     26  C   UNL     1      52.310   1.130  17.473  0.00  0.00    +0.000 C 
BRANCH  26  27
ATOM     27  C   UNL     1      53.667   1.473  18.119  0.00  0.00    +0.000 C 
BRANCH  27  29
ATOM     28  C   UNL     1      54.574   2.536  20.114  0.00  0.00    +0.000 C 
ATOM     29  N   UNL     1      53.668   2.685  18.969  0.00  0.00    +0.000 NA
ATOM     30  C   UNL     1      54.090   3.846  18.175  0.00  0.00    +0.000 C 
ENDBRANCH  27  29
ENDBRANCH  26  27
ENDBRANCH  22  26
ENDBRANCH  21  23
ENDBRANCH  20  21
ENDBRANCH   1  20
TORSDOF 11
ENDMDL
MODEL 5
REMARK VINA RESULT:    -6.307      4.375      8.081
REMARK INTER + INTRA:         -11.409
REMARK INTER:                 -10.572
REMARK INTRA:                  -0.837
REMARK UNBOUND:                -1.045
REMARK  Name = 
REMARK  13 active torsions:
REMARK  status: ('A' for Active; 'I' for Inactive)
REMARK    1  A    between atoms: C_1  and  N_2
REMARK    2  A    between atoms: N_2  and  C_3
REMARK    3  A    between atoms: N_2  and  C_4
REMARK    4  A    between atoms: C_4  and  C_5
REMARK    5  A    between atoms: C_5  and  N_6
REMARK    6  A    between atoms: C_7  and  C_9
REMARK    7  A    between atoms: C_9  and  O_10
REMARK    8  A    between atoms: O_10  and  C_11
REMARK    9  A    between atoms: C_14  and  C_15
REMARK   10  A    between atoms: C_16  and  C_17
REMARK   11  A    between atoms: C_17  and  N_18
REMARK   12  A    between atoms: N_18  and  C_19
REMARK   13  A    between atoms: C_23  and  C_24
REMARK                            x       y       z     vdW  Elec       q    Type
REMARK                         _______ _______ _______ _____ _____    ______ ____
ROOT
ATOM      1  C   UNL     1      44.645   5.912  12.831  0.00  0.00    +0.000 A 
ATOM      2  C   UNL     1      45.735   5.242  13.364  0.00  0.00    +0.000 A 
ATOM      3  C   UNL     1      47.010   5.777  13.162  0.00  0.00    +0.000 A 
ATOM      4  C   UNL     1      47.155   6.947  12.418  0.00  0.00    +0.000 A 
ATOM      5  C   UNL     1      46.006   7.511  11.878  0.00  0.00    +0.000 A 
ATOM      6  N   UNL     1      44.752   7.024  12.073  0.00  0.00    +0.000 NA
ENDROOT
BRANCH   4   7
ATOM      7  C   UNL     1      48.439   7.562  12.258  0.00  0.00    +0.000 C 
ATOM      8  C   UNL     1      49.521   8.063  12.095  0.00  0.00    +0.000 C 
BRANCH   8   9
ATOM      9  C   UNL     1      50.819   8.726  11.887  0.00  0.00    +0.000 C 
BRANCH   9  10
ATOM     10  N   UNL     1      51.820   7.767  11.421  0.00  0.00    +0.000 N 
ATOM     11  H   UNL     1      51.568   6.811  11.666  0.00  0.00    +0.000 HD
BRANCH  10  12
ATOM     12  C   UNL     1      52.271   7.879  10.097  0.00  0.00    +0.000 A 
ATOM     13  C   UNL     1      52.729   9.064   9.513  0.00  0.00    +0.000 A 
ATOM     14  N   UNL     1      53.217   9.181   8.250  0.00  0.00    +0.000 NA
ATOM     15  C   UNL     1      53.296   8.045   7.526  0.00  0.00    +0.000 A 
ATOM     16  C   UNL     1      52.919   6.804   8.009  0.00  0.00    +0.000 A 
ATOM     17  C   UNL     1      52.418   6.725   9.315  0.00  0.00    +0.000 A 
BRANCH  16  18
ATOM     18  C   UNL     1      53.039   5.642   7.184  0.00  0.00    +0.000 C 
ATOM     19  N   UNL     1      53.128   4.697   6.519  0.00  0.00    +0.000 NA
ENDBRANCH  16  18
ENDBRANCH  10  12
ENDBRANCH   9  10
ENDBRANCH   8   9
ENDBRANCH   4   7
BRANCH   1  20
ATOM     20  O   UNL     1      43.397   5.367  13.079  0.00  0.00    +0.000 OA
BRANCH  20  21
ATOM     21  C   UNL     1      42.687   5.089  11.874  0.00  0.00    +0.000 C 
BRANCH  21  23
ATOM     22  N   UNL     1      43.918   4.184   9.930  0.00  0.00    +0.000 N 
ATOM     23  C   UNL     1      43.248   3.893  11.099  0.00  0.00    +0.000 C 
ATOM     24  O   UNL     1      43.089   2.739  11.495  0.00  0.00    +0.000 OA
ATOM     25  H   UNL     1      44.163   5.151   9.734  0.00  0.00    +0.000 HD
BRANCH  22  26
ATOM     26  C   UNL     1      44.500   3.129   9.126  0.00  0.00    +0.000 C 
BRANCH  26  27
ATOM     27  C   UNL     1      45.260   3.637   7.884  0.00  0.00    +0.000 C 
BRANCH  27  29
ATOM     28  C   UNL     1      46.388   1.480   7.987  0.00  0.00    +0.000 C 
ATOM     29  N   UNL     1      46.483   2.875   7.544  0.00  0.00    +0.000 NA
ATOM     30  C   UNL     1      46.695   2.900   6.091  0.00  0.00    +0.000 C 
ENDBRANCH  27  29
ENDBRANCH  26  27
ENDBRANCH  22  26
ENDBRANCH  21  23
ENDBRANCH  20  21
ENDBRANCH   1  20
TORSDOF 11
ENDMDL
MODEL 6
REMARK VINA RESULT:    -6.245      2.313      2.815
REMARK INTER + INTRA:         -11.307
REMARK INTER:                 -10.750
REMARK INTRA:                  -0.556
REMARK UNBOUND:                -1.045
REMARK  Name = 
REMARK  13 active torsions:
REMARK  status: ('A' for Active; 'I' for Inactive)
REMARK    1  A    between atoms: C_1  and  N_2
REMARK    2  A    between atoms: N_2  and  C_3
REMARK    3  A    between atoms: N_2  and  C_4
REMARK    4  A    between atoms: C_4  and  C_5
REMARK    5  A    between atoms: C_5  and  N_6
REMARK    6  A    between atoms: C_7  and  C_9
REMARK    7  A    between atoms: C_9  and  O_10
REMARK    8  A    between atoms: O_10  and  C_11
REMARK    9  A    between atoms: C_14  and  C_15
REMARK   10  A    between atoms: C_16  and  C_17
REMARK   11  A    between atoms: C_17  and  N_18
REMARK   12  A    between atoms: N_18  and  C_19
REMARK   13  A    between atoms: C_23  and  C_24
REMARK                            x       y       z     vdW  Elec       q    Type
REMARK                         _______ _______ _______ _____ _____    ______ ____
ROOT
ATOM      1  C   UNL     1      48.476   5.954  15.358  0.00  0.00    +0.000 A 
ATOM      2  C   UNL     1      48.167   6.542  14.142  0.00  0.00    +0.000 A 
ATOM      3  C   UNL     1      47.201   5.936  13.335  0.00  0.00    +0.000 A 
ATOM      4  C   UNL     1      46.593   4.755  13.757  0.00  0.00    +0.000 A 
ATOM      5  C   UNL     1      47.014   4.215  14.966  0.00  0.00    +0.000 A 
ATOM      6  N   UNL     1      47.936   4.791  15.780  0.00  0.00    +0.000 NA
ENDROOT
BRANCH   4   7
ATOM      7  C   UNL     1      45.546   4.151  12.989  0.00  0.00    +0.000 C 
ATOM      8  C   UNL     1      44.686   3.620  12.335  0.00  0.00    +0.000 C 
BRANCH   8   9
ATOM      9  C   UNL     1      43.609   2.957  11.582  0.00  0.00    +0.000 C 
BRANCH   9  10
ATOM     10  N   UNL     1      44.161   2.142  10.500  0.00  0.00    +0.000 N 
ATOM     11  H   UNL     1      43.477   1.479  10.142  0.00  0.00    +0.000 HD
BRANCH  10  12
ATOM     12  C   UNL     1      44.860   2.797   9.475  0.00  0.00    +0.000 A 
ATOM     13  C   UNL     1      44.828   4.177   9.251  0.00  0.00    +0.000 A 
ATOM     14  N   UNL     1      45.536   4.835   8.296  0.00  0.00    +0.000 NA
ATOM     15  C   UNL     1      46.364   4.087   7.536  0.00  0.00    +0.000 A 
ATOM     16  C   UNL     1      46.519   2.721   7.693  0.00  0.00    +0.000 A 
ATOM     17  C   UNL     1      45.769   2.078   8.687  0.00  0.00    +0.000 A 
BRANCH  16  18
ATOM     18  C   UNL     1      47.422   1.997   6.854  0.00  0.00    +0.000 C 
ATOM     19  N   UNL     1      48.162   1.414   6.178  0.00  0.00    +0.000 NA
ENDBRANCH  16  18
ENDBRANCH  10  12
ENDBRANCH   9  10
ENDBRANCH   8   9
ENDBRANCH   4   7
BRANCH   1  20
ATOM     20  O   UNL     1      49.414   6.601  16.143  0.00  0.00    +0.000 OA
BRANCH  20  21
ATOM     21  C   UNL     1      49.372   6.160  17.498  0.00  0.00    +0.000 C 
BRANCH  21  23
ATOM     22  N   UNL     1      51.405   4.762  17.330  0.00  0.00    +0.000 N 
ATOM     23  C   UNL     1      50.740   5.736  18.042  0.00  0.00    +0.000 C 
ATOM     24  O   UNL     1      51.204   6.230  19.070  0.00  0.00    +0.000 OA
ATOM     25  H   UNL     1      51.059   4.507  16.408  0.00  0.00    +0.000 HD
BRANCH  22  26
ATOM     26  C   UNL     1      52.711   4.296  17.748  0.00  0.00    +0.000 C 
BRANCH  26  27
ATOM     27  C   UNL     1      52.692   2.923  18.449  0.00  0.00    +0.000 C 
BRANCH  27  29
ATOM     28  C   UNL     1      55.026   2.948  19.144  0.00  0.00    +0.000 C 
ATOM     29  N   UNL     1      53.635   2.784  19.581  0.00  0.00    +0.000 NA
ATOM     30  C   UNL     1      53.334   3.794  20.604  0.00  0.00    +0.000 C 
ENDBRANCH  27  29
ENDBRANCH  26  27
ENDBRANCH  22  26
ENDBRANCH  21  23
ENDBRANCH  20  21
ENDBRANCH   1  20
TORSDOF 11
ENDMDL
MODEL 7
REMARK VINA RESULT:    -6.177      2.194      4.219
REMARK INTER + INTRA:         -11.194
REMARK INTER:                 -10.354
REMARK INTRA:                  -0.840
REMARK UNBOUND:                -1.045
REMARK  Name = 
REMARK  13 active torsions:
REMARK  status: ('A' for Active; 'I' for Inactive)
REMARK    1  A    between atoms: C_1  and  N_2
REMARK    2  A    between atoms: N_2  and  C_3
REMARK    3  A    between atoms: N_2  and  C_4
REMARK    4  A    between atoms: C_4  and  C_5
REMARK    5  A    between atoms: C_5  and  N_6
REMARK    6  A    between atoms: C_7  and  C_9
REMARK    7  A    between atoms: C_9  and  O_10
REMARK    8  A    between atoms: O_10  and  C_11
REMARK    9  A    between atoms: C_14  and  C_15
REMARK   10  A    between atoms: C_16  and  C_17
REMARK   11  A    between atoms: C_17  and  N_18
REMARK   12  A    between atoms: N_18  and  C_19
REMARK   13  A    between atoms: C_23  and  C_24
REMARK                            x       y       z     vdW  Elec       q    Type
REMARK                         _______ _______ _______ _____ _____    ______ ____
ROOT
ATOM      1  C   UNL     1      48.665   6.398  14.781  0.00  0.00    +0.000 A 
ATOM      2  C   UNL     1      48.275   6.783  13.508  0.00  0.00    +0.000 A 
ATOM      3  C   UNL     1      47.244   6.076  12.884  0.00  0.00    +0.000 A 
ATOM      4  C   UNL     1      46.653   4.999  13.541  0.00  0.00    +0.000 A 
ATOM      5  C   UNL     1      47.154   4.656  14.791  0.00  0.00    +0.000 A 
ATOM      6  N   UNL     1      48.142   5.336  15.429  0.00  0.00    +0.000 NA
ENDROOT
BRANCH   4   7
ATOM      7  C   UNL     1      45.543   4.302  12.961  0.00  0.00    +0.000 C 
ATOM      8  C   UNL     1      44.591   3.737  12.490  0.00  0.00    +0.000 C 
BRANCH   8   9
ATOM      9  C   UNL     1      43.439   3.068  11.863  0.00  0.00    +0.000 C 
BRANCH   9  10
ATOM     10  N   UNL     1      43.881   2.168  10.797  0.00  0.00    +0.000 N 
ATOM     11  H   UNL     1      43.144   1.524  10.519  0.00  0.00    +0.000 HD
BRANCH  10  12
ATOM     12  C   UNL     1      44.543   2.731   9.695  0.00  0.00    +0.000 A 
ATOM     13  C   UNL     1      44.446   4.073   9.313  0.00  0.00    +0.000 A 
ATOM     14  N   UNL     1      45.119   4.646   8.281  0.00  0.00    +0.000 NA
ATOM     15  C   UNL     1      45.977   3.853   7.605  0.00  0.00    +0.000 A 
ATOM     16  C   UNL     1      46.196   2.523   7.918  0.00  0.00    +0.000 A 
ATOM     17  C   UNL     1      45.481   1.967   8.987  0.00  0.00    +0.000 A 
BRANCH  16  18
ATOM     18  C   UNL     1      47.128   1.748   7.159  0.00  0.00    +0.000 C 
ATOM     19  N   UNL     1      47.886   1.114   6.553  0.00  0.00    +0.000 NA
ENDBRANCH  16  18
ENDBRANCH  10  12
ENDBRANCH   9  10
ENDBRANCH   8   9
ENDBRANCH   4   7
BRANCH   1  20
ATOM     20  O   UNL     1      49.668   7.142  15.377  0.00  0.00    +0.000 OA
BRANCH  20  21
ATOM     21  C   UNL     1      49.201   7.841  16.529  0.00  0.00    +0.000 C 
BRANCH  21  23
ATOM     22  N   UNL     1      49.399   9.907  15.185  0.00  0.00    +0.000 N 
ATOM     23  C   UNL     1      48.761   9.278  16.232  0.00  0.00    +0.000 C 
ATOM     24  O   UNL     1      47.898   9.838  16.907  0.00  0.00    +0.000 OA
ATOM     25  H   UNL     1      49.980   9.352  14.562  0.00  0.00    +0.000 HD
BRANCH  22  26
ATOM     26  C   UNL     1      49.052  11.262  14.809  0.00  0.00    +0.000 C 
BRANCH  26  27
ATOM     27  C   UNL     1      48.730  11.434  13.311  0.00  0.00    +0.000 C 
BRANCH  27  29
ATOM     28  C   UNL     1      46.926  10.321  12.110  0.00  0.00    +0.000 C 
ATOM     29  N   UNL     1      48.297  10.199  12.618  0.00  0.00    +0.000 NA
ATOM     30  C   UNL     1      49.199   9.920  11.494  0.00  0.00    +0.000 C 
ENDBRANCH  27  29
ENDBRANCH  26  27
ENDBRANCH  22  26
ENDBRANCH  21  23
ENDBRANCH  20  21
ENDBRANCH   1  20
TORSDOF 11
ENDMDL
MODEL 8
REMARK VINA RESULT:    -5.909      2.484      9.190
REMARK INTER + INTRA:         -10.754
REMARK INTER:                 -10.068
REMARK INTRA:                  -0.687
REMARK UNBOUND:                -1.045
REMARK  Name = 
REMARK  13 active torsions:
REMARK  status: ('A' for Active; 'I' for Inactive)
REMARK    1  A    between atoms: C_1  and  N_2
REMARK    2  A    between atoms: N_2  and  C_3
REMARK    3  A    between atoms: N_2  and  C_4
REMARK    4  A    between atoms: C_4  and  C_5
REMARK    5  A    between atoms: C_5  and  N_6
REMARK    6  A    between atoms: C_7  and  C_9
REMARK    7  A    between atoms: C_9  and  O_10
REMARK    8  A    between atoms: O_10  and  C_11
REMARK    9  A    between atoms: C_14  and  C_15
REMARK   10  A    between atoms: C_16  and  C_17
REMARK   11  A    between atoms: C_17  and  N_18
REMARK   12  A    between atoms: N_18  and  C_19
REMARK   13  A    between atoms: C_23  and  C_24
REMARK                            x       y       z     vdW  Elec       q    Type
REMARK                         _______ _______ _______ _____ _____    ______ ____
ROOT
ATOM      1  C   UNL     1      46.267   6.200  11.974  0.00  0.00    +0.000 A 
ATOM      2  C   UNL     1      47.176   7.197  11.658  0.00  0.00    +0.000 A 
ATOM      3  C   UNL     1      48.193   7.486  12.571  0.00  0.00    +0.000 A 
ATOM      4  C   UNL     1      48.255   6.787  13.776  0.00  0.00    +0.000 A 
ATOM      5  C   UNL     1      47.263   5.847  14.024  0.00  0.00    +0.000 A 
ATOM      6  N   UNL     1      46.274   5.532  13.147  0.00  0.00    +0.000 NA
ENDROOT
BRANCH   4   7
ATOM      7  C   UNL     1      49.329   7.007  14.699  0.00  0.00    +0.000 C 
ATOM      8  C   UNL     1      50.225   7.164  15.487  0.00  0.00    +0.000 C 
BRANCH   8   9
ATOM      9  C   UNL     1      51.357   7.349  16.409  0.00  0.00    +0.000 C 
BRANCH   9  10
ATOM     10  N   UNL     1      51.151   6.586  17.640  0.00  0.00    +0.000 N 
ATOM     11  H   UNL     1      50.577   7.098  18.308  0.00  0.00    +0.000 HD
BRANCH  10  12
ATOM     12  C   UNL     1      50.766   5.241  17.524  0.00  0.00    +0.000 A 
ATOM     13  C   UNL     1      51.653   4.161  17.521  0.00  0.00    +0.000 A 
ATOM     14  N   UNL     1      51.296   2.851  17.460  0.00  0.00    +0.000 NA
ATOM     15  C   UNL     1      49.972   2.587  17.442  0.00  0.00    +0.000 A 
ATOM     16  C   UNL     1      48.997   3.567  17.489  0.00  0.00    +0.000 A 
ATOM     17  C   UNL     1      49.405   4.906  17.548  0.00  0.00    +0.000 A 
BRANCH  16  18
ATOM     18  C   UNL     1      47.612   3.208  17.474  0.00  0.00    +0.000 C 
ATOM     19  N   UNL     1      46.492   2.914  17.452  0.00  0.00    +0.000 NA
ENDBRANCH  16  18
ENDBRANCH  10  12
ENDBRANCH   9  10
ENDBRANCH   8   9
ENDBRANCH   4   7
BRANCH   1  20
ATOM     20  O   UNL     1      45.294   5.922  11.031  0.00  0.00    +0.000 OA
BRANCH  20  21
ATOM     21  C   UNL     1      44.565   4.737  11.348  0.00  0.00    +0.000 C 
BRANCH  21  23
ATOM     22  N   UNL     1      45.014   4.169   8.984  0.00  0.00    +0.000 N 
ATOM     23  C   UNL     1      44.425   3.774  10.165  0.00  0.00    +0.000 C 
ATOM     24  O   UNL     1      43.804   2.717  10.268  0.00  0.00    +0.000 OA
ATOM     25  H   UNL     1      45.648   4.964   8.995  0.00  0.00    +0.000 HD
BRANCH  22  26
ATOM     26  C   UNL     1      44.953   3.329   7.805  0.00  0.00    +0.000 C 
BRANCH  26  27
ATOM     27  C   UNL     1      46.213   3.401   6.920  0.00  0.00    +0.000 C 
BRANCH  27  29
ATOM     28  C   UNL     1      48.087   2.226   5.899  0.00  0.00    +0.000 C 
ATOM     29  N   UNL     1      46.750   2.090   6.487  0.00  0.00    +0.000 NA
ATOM     30  C   UNL     1      46.826   1.182   7.639  0.00  0.00    +0.000 C 
ENDBRANCH  27  29
ENDBRANCH  26  27
ENDBRANCH  22  26
ENDBRANCH  21  23
ENDBRANCH  20  21
ENDBRANCH   1  20
TORSDOF 11
ENDMDL
MODEL 9
REMARK VINA RESULT:    -5.909      2.884      9.115
REMARK INTER + INTRA:         -10.754
REMARK INTER:                  -9.842
REMARK INTRA:                  -0.912
REMARK UNBOUND:                -1.045
REMARK  Name = 
REMARK  13 active torsions:
REMARK  status: ('A' for Active; 'I' for Inactive)
REMARK    1  A    between atoms: C_1  and  N_2
REMARK    2  A    between atoms: N_2  and  C_3
REMARK    3  A    between atoms: N_2  and  C_4
REMARK    4  A    between atoms: C_4  and  C_5
REMARK    5  A    between atoms: C_5  and  N_6
REMARK    6  A    between atoms: C_7  and  C_9
REMARK    7  A    between atoms: C_9  and  O_10
REMARK    8  A    between atoms: O_10  and  C_11
REMARK    9  A    between atoms: C_14  and  C_15
REMARK   10  A    between atoms: C_16  and  C_17
REMARK   11  A    between atoms: C_17  and  N_18
REMARK   12  A    between atoms: N_18  and  C_19
REMARK   13  A    between atoms: C_23  and  C_24
REMARK                            x       y       z     vdW  Elec       q    Type
REMARK                         _______ _______ _______ _____ _____    ______ ____
ROOT
ATOM      1  C   UNL     1      44.588   5.628  12.857  0.00  0.00    +0.000 A 
ATOM      2  C   UNL     1      45.616   5.038  13.575  0.00  0.00    +0.000 A 
ATOM      3  C   UNL     1      46.911   5.541  13.421  0.00  0.00    +0.000 A 
ATOM      4  C   UNL     1      47.139   6.598  12.542  0.00  0.00    +0.000 A 
ATOM      5  C   UNL     1      46.051   7.082  11.826  0.00  0.00    +0.000 A 
ATOM      6  N   UNL     1      44.779   6.626  11.968  0.00  0.00    +0.000 NA
ENDROOT
BRANCH   4   7
ATOM      7  C   UNL     1      48.440   7.185  12.419  0.00  0.00    +0.000 C 
ATOM      8  C   UNL     1      49.521   7.705  12.327  0.00  0.00    +0.000 C 
BRANCH   8   9
ATOM      9  C   UNL     1      50.862   8.309  12.257  0.00  0.00    +0.000 C 
BRANCH   9  10
ATOM     10  N   UNL     1      51.616   8.036  13.481  0.00  0.00    +0.000 N 
ATOM     11  H   UNL     1      52.538   8.467  13.459  0.00  0.00    +0.000 HD
BRANCH  10  12
ATOM     12  C   UNL     1      50.965   8.225  14.710  0.00  0.00    +0.000 A 
ATOM     13  C   UNL     1      50.553   9.467  15.205  0.00  0.00    +0.000 A 
ATOM     14  N   UNL     1      49.877   9.663  16.368  0.00  0.00    +0.000 NA
ATOM     15  C   UNL     1      49.550   8.558  17.070  0.00  0.00    +0.000 A 
ATOM     16  C   UNL     1      49.859   7.273  16.660  0.00  0.00    +0.000 A 
ATOM     17  C   UNL     1      50.559   7.111  15.457  0.00  0.00    +0.000 A 
BRANCH  16  18
ATOM     18  C   UNL     1      49.471   6.149  17.455  0.00  0.00    +0.000 C 
ATOM     19  N   UNL     1      49.146   5.242  18.098  0.00  0.00    +0.000 NA
ENDBRANCH  16  18
ENDBRANCH  10  12
ENDBRANCH   9  10
ENDBRANCH   8   9
ENDBRANCH   4   7
BRANCH   1  20
ATOM     20  O   UNL     1      43.316   5.123  13.060  0.00  0.00    +0.000 OA
BRANCH  20  21
ATOM     21  C   UNL     1      42.693   4.739  11.836  0.00  0.00    +0.000 C 
BRANCH  21  23
ATOM     22  N   UNL     1      44.224   3.716  10.185  0.00  0.00    +0.000 N 
ATOM     23  C   UNL     1      43.318   3.494  11.200  0.00  0.00    +0.000 C 
ATOM     24  O   UNL     1      43.009   2.361  11.566  0.00  0.00    +0.000 OA
ATOM     25  H   UNL     1      44.565   4.662  10.033  0.00  0.00    +0.000 HD
BRANCH  22  26
ATOM     26  C   UNL     1      44.885   2.611   9.523  0.00  0.00    +0.000 C 
BRANCH  26  27
ATOM     27  C   UNL     1      45.203   2.871   8.037  0.00  0.00    +0.000 C 
BRANCH  27  29
ATOM     28  C   UNL     1      46.784   1.051   7.687  0.00  0.00    +0.000 C 
ATOM     29  N   UNL     1      46.574   2.501   7.616  0.00  0.00    +0.000 NA
ATOM     30  C   UNL     1      46.807   2.950   6.238  0.00  0.00    +0.000 C 
ENDBRANCH  27  29
ENDBRANCH  26  27
ENDBRANCH  22  26
ENDBRANCH  21  23
ENDBRANCH  20  21
ENDBRANCH   1  20
TORSDOF 11
ENDMDL
