MODEL 1
REMARK VINA RESULT:    -6.880      0.000      0.000
REMARK INTER + INTRA:          -8.433
REMARK INTER:                  -8.086
REMARK INTRA:                  -0.347
REMARK UNBOUND:                -0.347
REMARK  Name = 
REMARK  4 active torsions:
REMARK  status: ('A' for Active; 'I' for Inactive)
REMARK    1  A    between atoms: C_1  and  S_2
REMARK    2  A    between atoms: S_2  and  C_3
REMARK    3  A    between atoms: N_7  and  C_8
REMARK    4  A    between atoms: C_8  and  C_9
REMARK                            x       y       z     vdW  Elec       q    Type
REMARK                         _______ _______ _______ _____ _____    ______ ____
ROOT
ATOM      1  C   UNL     1      46.431   4.969  13.338  0.00  0.00    +0.000 A 
ATOM      2  C   UNL     1      46.842   6.009  12.515  0.00  0.00    +0.000 A 
ATOM      3  C   UNL     1      46.343   6.094  11.216  0.00  0.00    +0.000 A 
ATOM      4  C   UNL     1      45.470   5.118  10.743  0.00  0.00    +0.000 A 
ATOM      5  N   UNL     1      45.086   5.196   9.405  0.00  0.00    +0.000 N 
ATOM      6  N   UNL     1      45.058   4.102  11.523  0.00  0.00    +0.000 NA
ATOM      7  C   UNL     1      45.541   4.051  12.792  0.00  0.00    +0.000 A 
ATOM      8  H   UNL     1      44.601   6.065   9.218  0.00  0.00    +0.000 HD
ENDROOT
BRANCH   1  10
ATOM      9  C   UNL     1      48.279   6.190  14.959  0.00  0.00    +0.000 C 
ATOM     10  S   UNL     1      47.093   4.821  14.979  0.00  0.00    +0.000 S 
ENDBRANCH   1  10
BRANCH   5  11
ATOM     11  C   UNL     1      44.417   4.035   8.840  0.00  0.00    +0.000 C 
BRANCH  11  12
ATOM     12  C   UNL     1      45.471   3.140   8.237  0.00  0.00    +0.000 A 
ATOM     13  C   UNL     1      46.392   3.636   7.305  0.00  0.00    +0.000 A 
ATOM     14  C   UNL     1      47.353   2.794   6.758  0.00  0.00    +0.000 A 
ATOM     15  C   UNL     1      47.374   1.475   7.172  0.00  0.00    +0.000 A 
ATOM     16  N   UNL     1      46.516   0.958   8.079  0.00  0.00    +0.000 NA
ATOM     17  C   UNL     1      45.589   1.801   8.593  0.00  0.00    +0.000 A 
ENDBRANCH  11  12
ENDBRANCH   5  11
TORSDOF 3
ENDMDL
MODEL 2
REMARK VINA RESULT:    -6.449      1.557      2.215
REMARK INTER + INTRA:          -7.926
REMARK INTER:                  -7.704
REMARK INTRA:                  -0.223
REMARK UNBOUND:                -0.347
REMARK  Name = 
REMARK  4 active torsions:
REMARK  status: ('A' for Active; 'I' for Inactive)
REMARK    1  A    between atoms: C_1  and  S_2
REMARK    2  A    between atoms: S_2  and  C_3
REMARK    3  A    between atoms: N_7  and  C_8
REMARK    4  A    between atoms: C_8  and  C_9
REMARK                            x       y       z     vdW  Elec       q    Type
REMARK                         _______ _______ _______ _____ _____    ______ ____
ROOT
ATOM      1  C   UNL     1      45.834   6.592  12.380  0.00  0.00    +0.000 A 
ATOM      2  C   UNL     1      45.818   5.447  13.165  0.00  0.00    +0.000 A 
ATOM      3  C   UNL     1      45.555   4.213  12.572  0.00  0.00    +0.000 A 
ATOM      4  C   UNL     1      45.274   4.144  11.211  0.00  0.00    +0.000 A 
ATOM      5  N   UNL     1      44.917   2.900  10.692  0.00  0.00    +0.000 N 
ATOM      6  N   UNL     1      45.285   5.240  10.431  0.00  0.00    +0.000 NA
ATOM      7  C   UNL     1      45.565   6.429  11.026  0.00  0.00    +0.000 A 
ATOM      8  H   UNL     1      45.663   2.226  10.821  0.00  0.00    +0.000 HD
ENDROOT
BRANCH   1  10
ATOM      9  C   UNL     1      45.159   9.227  12.009  0.00  0.00    +0.000 C 
ATOM     10  S   UNL     1      46.121   8.177  13.128  0.00  0.00    +0.000 S 
ENDBRANCH   1  10
BRANCH   5  11
ATOM     11  C   UNL     1      44.351   2.878   9.353  0.00  0.00    +0.000 C 
BRANCH  11  12
ATOM     12  C   UNL     1      45.454   2.519   8.389  0.00  0.00    +0.000 A 
ATOM     13  C   UNL     1      45.976   3.471   7.503  0.00  0.00    +0.000 A 
ATOM     14  C   UNL     1      46.989   3.120   6.619  0.00  0.00    +0.000 A 
ATOM     15  C   UNL     1      47.464   1.821   6.657  0.00  0.00    +0.000 A 
ATOM     16  N   UNL     1      47.002   0.876   7.505  0.00  0.00    +0.000 NA
ATOM     17  C   UNL     1      46.012   1.247   8.353  0.00  0.00    +0.000 A 
ENDBRANCH  11  12
ENDBRANCH   5  11
TORSDOF 3
ENDMDL
MODEL 3
REMARK VINA RESULT:    -6.169      2.652      5.912
REMARK INTER + INTRA:          -7.598
REMARK INTER:                  -7.422
REMARK INTRA:                  -0.176
REMARK UNBOUND:                -0.347
REMARK  Name = 
REMARK  4 active torsions:
REMARK  status: ('A' for Active; 'I' for Inactive)
REMARK    1  A    between atoms: C_1  and  S_2
REMARK    2  A    between atoms: S_2  and  C_3
REMARK    3  A    between atoms: N_7  and  C_8
REMARK    4  A    between atoms: C_8  and  C_9
REMARK                            x       y       z     vdW  Elec       q    Type
REMARK                         _______ _______ _______ _____ _____    ______ ____
ROOT
ATOM      1  C   UNL     1      46.149   2.470   7.889  0.00  0.00    +0.000 A 
ATOM      2  C   UNL     1      45.376   1.661   8.711  0.00  0.00    +0.000 A 
ATOM      3  C   UNL     1      44.496   2.248   9.618  0.00  0.00    +0.000 A 
ATOM      4  C   UNL     1      44.427   3.635   9.719  0.00  0.00    +0.000 A 
ATOM      5  N   UNL     1      43.607   4.164  10.715  0.00  0.00    +0.000 N 
ATOM      6  N   UNL     1      45.166   4.438   8.933  0.00  0.00    +0.000 NA
ATOM      7  C   UNL     1      46.002   3.844   8.041  0.00  0.00    +0.000 A 
ATOM      8  H   UNL     1      42.643   3.883  10.577  0.00  0.00    +0.000 HD
ENDROOT
BRANCH   1  10
ATOM      9  C   UNL     1      47.085   2.829   5.333  0.00  0.00    +0.000 C 
ATOM     10  S   UNL     1      47.310   1.738   6.761  0.00  0.00    +0.000 S 
ENDBRANCH   1  10
BRANCH   5  11
ATOM     11  C   UNL     1      43.753   5.581  11.008  0.00  0.00    +0.000 C 
BRANCH  11  12
ATOM     12  C   UNL     1      44.970   5.751  11.882  0.00  0.00    +0.000 A 
ATOM     13  C   UNL     1      45.978   6.665  11.546  0.00  0.00    +0.000 A 
ATOM     14  C   UNL     1      47.094   6.804  12.362  0.00  0.00    +0.000 A 
ATOM     15  C   UNL     1      47.164   6.028  13.506  0.00  0.00    +0.000 A 
ATOM     16  N   UNL     1      46.210   5.146  13.876  0.00  0.00    +0.000 NA
ATOM     17  C   UNL     1      45.135   5.031  13.060  0.00  0.00    +0.000 A 
ENDBRANCH  11  12
ENDBRANCH   5  11
TORSDOF 3
ENDMDL
MODEL 4
REMARK VINA RESULT:    -5.877      3.570      7.033
REMARK INTER + INTRA:          -7.254
REMARK INTER:                  -6.948
REMARK INTRA:                  -0.307
REMARK UNBOUND:                -0.347
REMARK  Name = 
REMARK  4 active torsions:
REMARK  status: ('A' for Active; 'I' for Inactive)
REMARK    1  A    between atoms: C_1  and  S_2
REMARK    2  A    between atoms: S_2  and  C_3
REMARK    3  A    between atoms: N_7  and  C_8
REMARK    4  A    between atoms: C_8  and  C_9
REMARK                            x       y       z     vdW  Elec       q    Type
REMARK                         _______ _______ _______ _____ _____    ______ ____
ROOT
ATOM      1  C   UNL     1      45.305   4.606  11.520  0.00  0.00    +0.000 A 
ATOM      2  C   UNL     1      46.010   5.779  11.752  0.00  0.00    +0.000 A 
ATOM      3  C   UNL     1      46.708   5.934  12.949  0.00  0.00    +0.000 A 
ATOM      4  C   UNL     1      46.662   4.932  13.913  0.00  0.00    +0.000 A 
ATOM      5  N   UNL     1      47.292   5.185  15.131  0.00  0.00    +0.000 N 
ATOM      6  N   UNL     1      45.986   3.787  13.710  0.00  0.00    +0.000 NA
ATOM      7  C   UNL     1      45.330   3.649  12.528  0.00  0.00    +0.000 A 
ATOM      8  H   UNL     1      48.284   5.348  14.999  0.00  0.00    +0.000 HD
ENDROOT
BRANCH   1  10
ATOM      9  C   UNL     1      44.595   2.637   9.744  0.00  0.00    +0.000 C 
ATOM     10  S   UNL     1      44.372   4.413  10.021  0.00  0.00    +0.000 S 
ENDBRANCH   1  10
BRANCH   5  11
ATOM     11  C   UNL     1      47.005   4.275  16.227  0.00  0.00    +0.000 C 
BRANCH  11  12
ATOM     12  C   UNL     1      48.288   3.574  16.597  0.00  0.00    +0.000 A 
ATOM     13  C   UNL     1      49.187   4.147  17.507  0.00  0.00    +0.000 A 
ATOM     14  C   UNL     1      50.366   3.487  17.832  0.00  0.00    +0.000 A 
ATOM     15  C   UNL     1      50.607   2.259  17.243  0.00  0.00    +0.000 A 
ATOM     16  N   UNL     1      49.762   1.663  16.374  0.00  0.00    +0.000 NA
ATOM     17  C   UNL     1      48.622   2.330  16.074  0.00  0.00    +0.000 A 
ENDBRANCH  11  12
ENDBRANCH   5  11
TORSDOF 3
ENDMDL
MODEL 5
REMARK VINA RESULT:    -5.224      3.542      7.684
REMARK INTER + INTRA:          -6.487
REMARK INTER:                  -6.248
REMARK INTRA:                  -0.239
REMARK UNBOUND:                -0.347
REMARK  Name = 
REMARK  4 active torsions:
REMARK  status: ('A' for Active; 'I' for Inactive)
REMARK    1  A    between atoms: C_1  and  S_2
REMARK    2  A    between atoms: S_2  and  C_3
REMARK    3  A    between atoms: N_7  and  C_8
REMARK    4  A    between atoms: C_8  and  C_9
REMARK                            x       y       z     vdW  Elec       q    Type
REMARK                         _______ _______ _______ _____ _____    ______ ____
ROOT
ATOM      1  C   UNL     1      45.100   4.416  11.313  0.00  0.00    +0.000 A 
ATOM      2  C   UNL     1      45.626   5.673  11.580  0.00  0.00    +0.000 A 
ATOM      3  C   UNL     1      46.364   5.874  12.746  0.00  0.00    +0.000 A 
ATOM      4  C   UNL     1      46.532   4.828  13.649  0.00  0.00    +0.000 A 
ATOM      5  N   UNL     1      47.188   5.114  14.846  0.00  0.00    +0.000 N 
ATOM      6  N   UNL     1      46.030   3.602  13.411  0.00  0.00    +0.000 NA
ATOM      7  C   UNL     1      45.334   3.424  12.258  0.00  0.00    +0.000 A 
ATOM      8  H   UNL     1      48.132   5.439  14.673  0.00  0.00    +0.000 HD
ENDROOT
BRANCH   1  10
ATOM      9  C   UNL     1      44.706   2.511   9.377  0.00  0.00    +0.000 C 
ATOM     10  S   UNL     1      44.119   4.156   9.855  0.00  0.00    +0.000 S 
ENDBRANCH   1  10
BRANCH   5  11
ATOM     11  C   UNL     1      47.112   4.113  15.898  0.00  0.00    +0.000 C 
BRANCH  11  12
ATOM     12  C   UNL     1      48.026   4.546  17.016  0.00  0.00    +0.000 A 
ATOM     13  C   UNL     1      48.761   5.735  16.928  0.00  0.00    +0.000 A 
ATOM     14  C   UNL     1      49.601   6.115  17.968  0.00  0.00    +0.000 A 
ATOM     15  C   UNL     1      49.672   5.295  19.080  0.00  0.00    +0.000 A 
ATOM     16  N   UNL     1      48.970   4.148  19.213  0.00  0.00    +0.000 NA
ATOM     17  C   UNL     1      48.161   3.802  18.183  0.00  0.00    +0.000 A 
ENDBRANCH  11  12
ENDBRANCH   5  11
TORSDOF 3
ENDMDL
MODEL 6
REMARK VINA RESULT:    -5.169      3.606      5.657
REMARK INTER + INTRA:          -6.422
REMARK INTER:                  -6.155
REMARK INTRA:                  -0.266
REMARK UNBOUND:                -0.347
REMARK  Name = 
REMARK  4 active torsions:
REMARK  status: ('A' for Active; 'I' for Inactive)
REMARK    1  A    between atoms: C_1  and  S_2
REMARK    2  A    between atoms: S_2  and  C_3
REMARK    3  A    between atoms: N_7  and  C_8
REMARK    4  A    between atoms: C_8  and  C_9
REMARK                            x       y       z     vdW  Elec       q    Type
REMARK                         _______ _______ _______ _____ _____    ______ ____
ROOT
ATOM      1  C   UNL     1      48.531   5.765  17.955  0.00  0.00    +0.000 A 
ATOM      2  C   UNL     1      47.671   4.700  18.193  0.00  0.00    +0.000 A 
ATOM      3  C   UNL     1      47.136   3.998  17.114  0.00  0.00    +0.000 A 
ATOM      4  C   UNL     1      47.435   4.391  15.814  0.00  0.00    +0.000 A 
ATOM      5  N   UNL     1      46.789   3.719  14.777  0.00  0.00    +0.000 N 
ATOM      6  N   UNL     1      48.265   5.419  15.560  0.00  0.00    +0.000 NA
ATOM      7  C   UNL     1      48.793   6.075  16.626  0.00  0.00    +0.000 A 
ATOM      8  H   UNL     1      47.015   2.731  14.789  0.00  0.00    +0.000 HD
ENDROOT
BRANCH   1  10
ATOM      9  C   UNL     1      50.478   5.562  19.880  0.00  0.00    +0.000 C 
ATOM     10  S   UNL     1      49.185   6.699  19.317  0.00  0.00    +0.000 S 
ENDBRANCH   1  10
BRANCH   5  11
ATOM     11  C   UNL     1      46.876   4.308  13.450  0.00  0.00    +0.000 C 
BRANCH  11  12
ATOM     12  C   UNL     1      45.490   4.317  12.855  0.00  0.00    +0.000 A 
ATOM     13  C   UNL     1      44.583   5.343  13.153  0.00  0.00    +0.000 A 
ATOM     14  C   UNL     1      43.309   5.331  12.597  0.00  0.00    +0.000 A 
ATOM     15  C   UNL     1      42.981   4.293  11.744  0.00  0.00    +0.000 A 
ATOM     16  N   UNL     1      43.829   3.292  11.417  0.00  0.00    +0.000 NA
ATOM     17  C   UNL     1      45.062   3.329  11.976  0.00  0.00    +0.000 A 
ENDBRANCH  11  12
ENDBRANCH   5  11
TORSDOF 3
ENDMDL
MODEL 7
REMARK VINA RESULT:    -5.046      2.331      3.338
REMARK INTER + INTRA:          -6.278
REMARK INTER:                  -5.978
REMARK INTRA:                  -0.300
REMARK UNBOUND:                -0.347
REMARK  Name = 
REMARK  4 active torsions:
REMARK  status: ('A' for Active; 'I' for Inactive)
REMARK    1  A    between atoms: C_1  and  S_2
REMARK    2  A    between atoms: S_2  and  C_3
REMARK    3  A    between atoms: N_7  and  C_8
REMARK    4  A    between atoms: C_8  and  C_9
REMARK                            x       y       z     vdW  Elec       q    Type
REMARK                         _______ _______ _______ _____ _____    ______ ____
ROOT
ATOM      1  C   UNL     1      47.937   8.065  13.316  0.00  0.00    +0.000 A 
ATOM      2  C   UNL     1      48.059   6.906  14.071  0.00  0.00    +0.000 A 
ATOM      3  C   UNL     1      47.329   5.774  13.713  0.00  0.00    +0.000 A 
ATOM      4  C   UNL     1      46.457   5.825  12.629  0.00  0.00    +0.000 A 
ATOM      5  N   UNL     1      45.676   4.697  12.381  0.00  0.00    +0.000 N 
ATOM      6  N   UNL     1      46.323   6.937  11.883  0.00  0.00    +0.000 NA
ATOM      7  C   UNL     1      47.061   8.022  12.237  0.00  0.00    +0.000 A 
ATOM      8  H   UNL     1      46.257   3.890  12.186  0.00  0.00    +0.000 HD
ENDROOT
BRANCH   1  10
ATOM      9  C   UNL     1      48.300  10.649  12.463  0.00  0.00    +0.000 C 
ATOM     10  S   UNL     1      48.825   9.529  13.787  0.00  0.00    +0.000 S 
ENDBRANCH   1  10
BRANCH   5  11
ATOM     11  C   UNL     1      44.575   4.848  11.444  0.00  0.00    +0.000 C 
BRANCH  11  12
ATOM     12  C   UNL     1      44.958   4.152  10.162  0.00  0.00    +0.000 A 
ATOM     13  C   UNL     1      44.829   2.764  10.027  0.00  0.00    +0.000 A 
ATOM     14  C   UNL     1      45.191   2.140   8.840  0.00  0.00    +0.000 A 
ATOM     15  C   UNL     1      45.664   2.932   7.808  0.00  0.00    +0.000 A 
ATOM     16  N   UNL     1      45.790   4.275   7.888  0.00  0.00    +0.000 NA
ATOM     17  C   UNL     1      45.431   4.854   9.059  0.00  0.00    +0.000 A 
ENDBRANCH  11  12
ENDBRANCH   5  11
TORSDOF 3
ENDMDL
MODEL 8
REMARK VINA RESULT:    -4.938      3.023      6.141
REMARK INTER + INTRA:          -6.151
REMARK INTER:                  -5.805
REMARK INTRA:                  -0.346
REMARK UNBOUND:                -0.347
REMARK  Name = 
REMARK  4 active torsions:
REMARK  status: ('A' for Active; 'I' for Inactive)
REMARK    1  A    between atoms: C_1  and  S_2
REMARK    2  A    between atoms: S_2  and  C_3
REMARK    3  A    between atoms: N_7  and  C_8
REMARK    4  A    between atoms: C_8  and  C_9
REMARK                            x       y       z     vdW  Elec       q    Type
REMARK                         _______ _______ _______ _____ _____    ______ ____
ROOT
ATOM      1  C   UNL     1      44.809   3.366  10.346  0.00  0.00    +0.000 A 
ATOM      2  C   UNL     1      44.954   3.011  11.680  0.00  0.00    +0.000 A 
ATOM      3  C   UNL     1      45.175   4.004  12.633  0.00  0.00    +0.000 A 
ATOM      4  C   UNL     1      45.286   5.333  12.236  0.00  0.00    +0.000 A 
ATOM      5  N   UNL     1      45.611   6.270  13.217  0.00  0.00    +0.000 N 
ATOM      6  N   UNL     1      45.148   5.700  10.949  0.00  0.00    +0.000 NA
ATOM      7  C   UNL     1      44.912   4.718  10.040  0.00  0.00    +0.000 A 
ATOM      8  H   UNL     1      44.905   6.292  13.944  0.00  0.00    +0.000 HD
ENDROOT
BRANCH   1  10
ATOM      9  C   UNL     1      46.095   2.325   8.155  0.00  0.00    +0.000 C 
ATOM     10  S   UNL     1      44.574   2.108   9.114  0.00  0.00    +0.000 S 
ENDBRANCH   1  10
BRANCH   5  11
ATOM     11  C   UNL     1      46.006   7.593  12.764  0.00  0.00    +0.000 C 
BRANCH  11  12
ATOM     12  C   UNL     1      47.507   7.694  12.877  0.00  0.00    +0.000 A 
ATOM     13  C   UNL     1      48.302   7.918  11.746  0.00  0.00    +0.000 A 
ATOM     14  C   UNL     1      49.684   8.003  11.870  0.00  0.00    +0.000 A 
ATOM     15  C   UNL     1      50.233   7.873  13.133  0.00  0.00    +0.000 A 
ATOM     16  N   UNL     1      49.503   7.672  14.252  0.00  0.00    +0.000 NA
ATOM     17  C   UNL     1      48.159   7.591  14.100  0.00  0.00    +0.000 A 
ENDBRANCH  11  12
ENDBRANCH   5  11
TORSDOF 3
ENDMDL
MODEL 9
REMARK VINA RESULT:    -4.734      3.119      7.216
REMARK INTER + INTRA:          -5.911
REMARK INTER:                  -5.651
REMARK INTRA:                  -0.261
REMARK UNBOUND:                -0.347
REMARK  Name = 
REMARK  4 active torsions:
REMARK  status: ('A' for Active; 'I' for Inactive)
REMARK    1  A    between atoms: C_1  and  S_2
REMARK    2  A    between atoms: S_2  and  C_3
REMARK    3  A    between atoms: N_7  and  C_8
REMARK    4  A    between atoms: C_8  and  C_9
REMARK                            x       y       z     vdW  Elec       q    Type
REMARK                         _______ _______ _______ _____ _____    ______ ____
ROOT
ATOM      1  C   UNL     1      45.135   4.579  10.479  0.00  0.00    +0.000 A 
ATOM      2  C   UNL     1      45.033   3.812  11.631  0.00  0.00    +0.000 A 
ATOM      3  C   UNL     1      45.552   4.302  12.829  0.00  0.00    +0.000 A 
ATOM      4  C   UNL     1      46.198   5.533  12.852  0.00  0.00    +0.000 A 
ATOM      5  N   UNL     1      46.788   5.925  14.053  0.00  0.00    +0.000 N 
ATOM      6  N   UNL     1      46.308   6.294  11.748  0.00  0.00    +0.000 NA
ATOM      7  C   UNL     1      45.777   5.806  10.596  0.00  0.00    +0.000 A 
ATOM      8  H   UNL     1      46.095   6.002  14.789  0.00  0.00    +0.000 HD
ENDROOT
BRANCH   1  10
ATOM      9  C   UNL     1      44.834   2.181   9.177  0.00  0.00    +0.000 C 
ATOM     10  S   UNL     1      44.522   3.949   8.936  0.00  0.00    +0.000 S 
ENDBRANCH   1  10
BRANCH   5  11
ATOM     11  C   UNL     1      47.698   7.058  14.006  0.00  0.00    +0.000 C 
BRANCH  11  12
ATOM     12  C   UNL     1      48.813   6.799  14.987  0.00  0.00    +0.000 A 
ATOM     13  C   UNL     1      48.624   5.953  16.088  0.00  0.00    +0.000 A 
ATOM     14  C   UNL     1      49.662   5.729  16.984  0.00  0.00    +0.000 A 
ATOM     15  C   UNL     1      50.874   6.353  16.744  0.00  0.00    +0.000 A 
ATOM     16  N   UNL     1      51.105   7.164  15.688  0.00  0.00    +0.000 NA
ATOM     17  C   UNL     1      50.073   7.365  14.833  0.00  0.00    +0.000 A 
ENDBRANCH  11  12
ENDBRANCH   5  11
TORSDOF 3
ENDMDL
