MODEL 1
REMARK VINA RESULT:    -9.221      0.000      0.000
REMARK INTER + INTRA:         -11.946
REMARK INTER:                 -11.916
REMARK INTRA:                  -0.029
REMARK UNBOUND:                -0.029
REMARK  Name = 
REMARK  5 active torsions:
REMARK  status: ('A' for Active; 'I' for Inactive)
REMARK    1  A    between atoms: C_2  and  C_4
REMARK    2  A    between atoms: C_7  and  O_8
REMARK    3  A    between atoms: O_8  and  C_9
REMARK    4  A    between atoms: C_9  and  C_10
REMARK    5  A    between atoms: C_14  and  C_15
REMARK                            x       y       z     vdW  Elec       q    Type
REMARK                         _______ _______ _______ _____ _____    ______ ____
ROOT
ATOM      1  C   UNL     1      43.773   4.991  11.064  0.00  0.00    +0.000 C 
ATOM      2  C   UNL     1      42.976   3.946  11.835  0.00  0.00    +0.000 C 
ATOM      3  C   UNL     1      42.560   5.376  11.879  0.00  0.00    +0.000 C 
ENDROOT
BRANCH   1   4
ATOM      4  C   UNL     1      45.135   5.461  11.540  0.00  0.00    +0.000 A 
ATOM      5  C   UNL     1      45.794   6.533  10.927  0.00  0.00    +0.000 A 
ATOM      6  C   UNL     1      46.975   7.050  11.457  0.00  0.00    +0.000 A 
ATOM      7  C   UNL     1      47.519   6.504  12.622  0.00  0.00    +0.000 A 
ATOM      8  C   UNL     1      46.901   5.430  13.281  0.00  0.00    +0.000 A 
ATOM      9  C   UNL     1      45.728   4.913  12.702  0.00  0.00    +0.000 A 
BRANCH   8  10
ATOM     10  C   UNL     1      47.407   4.927  14.571  0.00  0.00    +0.000 A 
ATOM     11  C   UNL     1      48.243   5.674  15.390  0.00  0.00    +0.000 A 
ATOM     12  N   UNL     1      48.712   5.281  16.596  0.00  0.00    +0.000 NA
ATOM     13  C   UNL     1      48.306   4.073  17.003  0.00  0.00    +0.000 A 
ATOM     14  N   UNL     1      47.503   3.244  16.322  0.00  0.00    +0.000 NA
ATOM     15  C   UNL     1      47.073   3.699  15.121  0.00  0.00    +0.000 A 
ENDBRANCH   8  10
ENDBRANCH   1   4
BRANCH   1  16
ATOM     16  O   UNL     1      43.652   4.698   9.653  0.00  0.00    +0.000 OA
BRANCH  16  20
ATOM     17  C   UNL     1      46.426   2.342   7.768  0.00  0.00    +0.000 A 
ATOM     18  C   UNL     1      45.565   1.786   8.711  0.00  0.00    +0.000 A 
ATOM     19  C   UNL     1      44.661   2.618   9.361  0.00  0.00    +0.000 A 
ATOM     20  C   UNL     1      44.651   3.970   9.044  0.00  0.00    +0.000 A 
ATOM     21  N   UNL     1      45.486   4.547   8.154  0.00  0.00    +0.000 NA
ATOM     22  C   UNL     1      46.373   3.715   7.547  0.00  0.00    +0.000 A 
BRANCH  17  24
ATOM     23  N   UNL     1      48.495   2.164   6.510  0.00  0.00    +0.000 N 
ATOM     24  C   UNL     1      47.384   1.525   6.997  0.00  0.00    +0.000 C 
ATOM     25  O   UNL     1      47.214   0.329   6.830  0.00  0.00    +0.000 OA
ATOM     26  H   UNL     1      49.194   1.573   6.075  0.00  0.00    +0.000 HD
ATOM     27  H   UNL     1      48.790   3.073   6.837  0.00  0.00    +0.000 HD
ENDBRANCH  17  24
ENDBRANCH  16  20
ENDBRANCH   1  16
TORSDOF 5
ENDMDL
MODEL 2
REMARK VINA RESULT:    -9.099      1.946      2.893
REMARK INTER + INTRA:         -11.788
REMARK INTER:                 -10.767
REMARK INTRA:                  -1.021
REMARK UNBOUND:                -0.029
REMARK  Name = 
REMARK  5 active torsions:
REMARK  status: ('A' for Active; 'I' for Inactive)
REMARK    1  A    between atoms: C_2  and  C_4
REMARK    2  A    between atoms: C_7  and  O_8
REMARK    3  A    between atoms: O_8  and  C_9
REMARK    4  A    between atoms: C_9  and  C_10
REMARK    5  A    between atoms: C_14  and  C_15
REMARK                            x       y       z     vdW  Elec       q    Type
REMARK                         _______ _______ _______ _____ _____    ______ ____
ROOT
ATOM      1  C   UNL     1      43.746   4.940  11.223  0.00  0.00    +0.000 C 
ATOM      2  C   UNL     1      42.386   5.339  11.783  0.00  0.00    +0.000 C 
ATOM      3  C   UNL     1      43.160   6.307  10.958  0.00  0.00    +0.000 C 
ENDROOT
BRANCH   1   4
ATOM      4  C   UNL     1      44.973   4.846  12.110  0.00  0.00    +0.000 A 
ATOM      5  C   UNL     1      45.290   3.668  12.797  0.00  0.00    +0.000 A 
ATOM      6  C   UNL     1      46.491   3.542  13.494  0.00  0.00    +0.000 A 
ATOM      7  C   UNL     1      47.405   4.598  13.513  0.00  0.00    +0.000 A 
ATOM      8  C   UNL     1      47.142   5.802  12.841  0.00  0.00    +0.000 A 
ATOM      9  C   UNL     1      45.908   5.906  12.174  0.00  0.00    +0.000 A 
BRANCH   8  10
ATOM     10  C   UNL     1      48.151   6.873  12.761  0.00  0.00    +0.000 A 
ATOM     11  C   UNL     1      49.121   7.063  13.736  0.00  0.00    +0.000 A 
ATOM     12  N   UNL     1      50.090   8.006  13.702  0.00  0.00    +0.000 NA
ATOM     13  C   UNL     1      50.089   8.791  12.619  0.00  0.00    +0.000 A 
ATOM     14  N   UNL     1      49.219   8.724  11.602  0.00  0.00    +0.000 NA
ATOM     15  C   UNL     1      48.273   7.760  11.702  0.00  0.00    +0.000 A 
ENDBRANCH   8  10
ENDBRANCH   1   4
BRANCH   1  16
ATOM     16  O   UNL     1      43.546   3.857  10.286  0.00  0.00    +0.000 OA
BRANCH  16  20
ATOM     17  C   UNL     1      46.427   2.702   7.608  0.00  0.00    +0.000 A 
ATOM     18  C   UNL     1      45.851   1.764   8.461  0.00  0.00    +0.000 A 
ATOM     19  C   UNL     1      44.905   2.192   9.384  0.00  0.00    +0.000 A 
ATOM     20  C   UNL     1      44.570   3.540   9.419  0.00  0.00    +0.000 A 
ATOM     21  N   UNL     1      45.123   4.480   8.625  0.00  0.00    +0.000 NA
ATOM     22  C   UNL     1      46.060   4.038   7.745  0.00  0.00    +0.000 A 
BRANCH  17  24
ATOM     23  N   UNL     1      47.360   3.029   5.391  0.00  0.00    +0.000 N 
ATOM     24  C   UNL     1      47.404   2.327   6.567  0.00  0.00    +0.000 C 
ATOM     25  O   UNL     1      48.235   1.455   6.756  0.00  0.00    +0.000 OA
ATOM     26  H   UNL     1      48.100   2.835   4.727  0.00  0.00    +0.000 HD
ATOM     27  H   UNL     1      46.866   3.906   5.296  0.00  0.00    +0.000 HD
ENDBRANCH  17  24
ENDBRANCH  16  20
ENDBRANCH   1  16
TORSDOF 5
ENDMDL
MODEL 3
REMARK VINA RESULT:    -7.931      1.993      2.760
REMARK INTER + INTRA:         -10.278
REMARK INTER:                 -10.552
REMARK INTRA:                   0.273
REMARK UNBOUND:                -0.029
REMARK  Name = 
REMARK  5 active torsions:
REMARK  status: ('A' for Active; 'I' for Inactive)
REMARK    1  A    between atoms: C_2  and  C_4
REMARK    2  A    between atoms: C_7  and  O_8
REMARK    3  A    between atoms: O_8  and  C_9
REMARK    4  A    between atoms: C_9  and  C_10
REMARK    5  A    between atoms: C_14  and  C_15
REMARK                            x       y       z     vdW  Elec       q    Type
REMARK                         _______ _______ _______ _____ _____    ______ ____
ROOT
ATOM      1  C   UNL     1      44.185   4.440  11.564  0.00  0.00    +0.000 C 
ATOM      2  C   UNL     1      44.865   3.273  12.270  0.00  0.00    +0.000 C 
ATOM      3  C   UNL     1      43.643   3.886  12.862  0.00  0.00    +0.000 C 
ENDROOT
BRANCH   1   4
ATOM      4  C   UNL     1      44.785   5.833  11.575  0.00  0.00    +0.000 A 
ATOM      5  C   UNL     1      44.010   6.964  11.291  0.00  0.00    +0.000 A 
ATOM      6  C   UNL     1      44.532   8.249  11.442  0.00  0.00    +0.000 A 
ATOM      7  C   UNL     1      45.843   8.426  11.887  0.00  0.00    +0.000 A 
ATOM      8  C   UNL     1      46.665   7.329  12.188  0.00  0.00    +0.000 A 
ATOM      9  C   UNL     1      46.118   6.048  11.996  0.00  0.00    +0.000 A 
BRANCH   8  10
ATOM     10  C   UNL     1      48.008   7.512  12.768  0.00  0.00    +0.000 A 
ATOM     11  C   UNL     1      48.319   7.138  14.068  0.00  0.00    +0.000 A 
ATOM     12  N   UNL     1      49.538   7.252  14.644  0.00  0.00    +0.000 NA
ATOM     13  C   UNL     1      50.497   7.759  13.861  0.00  0.00    +0.000 A 
ATOM     14  N   UNL     1      50.344   8.161  12.592  0.00  0.00    +0.000 NA
ATOM     15  C   UNL     1      49.098   8.023  12.079  0.00  0.00    +0.000 A 
ENDBRANCH   8  10
ENDBRANCH   1   4
BRANCH   1  16
ATOM     16  O   UNL     1      43.683   3.965  10.293  0.00  0.00    +0.000 OA
BRANCH  16  20
ATOM     17  C   UNL     1      46.544   2.619   7.684  0.00  0.00    +0.000 A 
ATOM     18  C   UNL     1      46.264   3.981   7.770  0.00  0.00    +0.000 A 
ATOM     19  C   UNL     1      45.263   4.403   8.636  0.00  0.00    +0.000 A 
ATOM     20  C   UNL     1      44.581   3.450   9.382  0.00  0.00    +0.000 A 
ATOM     21  N   UNL     1      44.808   2.122   9.307  0.00  0.00    +0.000 NA
ATOM     22  C   UNL     1      45.779   1.735   8.438  0.00  0.00    +0.000 A 
BRANCH  17  24
ATOM     23  N   UNL     1      48.157   2.945   5.898  0.00  0.00    +0.000 N 
ATOM     24  C   UNL     1      47.622   2.089   6.826  0.00  0.00    +0.000 C 
ATOM     25  O   UNL     1      48.042   0.951   6.958  0.00  0.00    +0.000 OA
ATOM     26  H   UNL     1      48.964   2.603   5.389  0.00  0.00    +0.000 HD
ATOM     27  H   UNL     1      48.014   3.945   5.931  0.00  0.00    +0.000 HD
ENDBRANCH  17  24
ENDBRANCH  16  20
ENDBRANCH   1  16
TORSDOF 5
ENDMDL
MODEL 4
REMARK VINA RESULT:    -7.680      2.543      7.324
REMARK INTER + INTRA:          -9.954
REMARK INTER:                  -9.282
REMARK INTRA:                  -0.672
REMARK UNBOUND:                -0.029
REMARK  Name = 
REMARK  5 active torsions:
REMARK  status: ('A' for Active; 'I' for Inactive)
REMARK    1  A    between atoms: C_2  and  C_4
REMARK    2  A    between atoms: C_7  and  O_8
REMARK    3  A    between atoms: O_8  and  C_9
REMARK    4  A    between atoms: C_9  and  C_10
REMARK    5  A    between atoms: C_14  and  C_15
REMARK                            x       y       z     vdW  Elec       q    Type
REMARK                         _______ _______ _______ _____ _____    ______ ____
ROOT
ATOM      1  C   UNL     1      46.545   7.344  12.555  0.00  0.00    +0.000 C 
ATOM      2  C   UNL     1      46.863   8.730  12.007  0.00  0.00    +0.000 C 
ATOM      3  C   UNL     1      46.029   8.592  13.234  0.00  0.00    +0.000 C 
ENDROOT
BRANCH   1   4
ATOM      4  C   UNL     1      45.542   6.433  11.873  0.00  0.00    +0.000 A 
ATOM      5  C   UNL     1      44.165   6.569  12.090  0.00  0.00    +0.000 A 
ATOM      6  C   UNL     1      43.244   5.824  11.354  0.00  0.00    +0.000 A 
ATOM      7  C   UNL     1      43.685   4.930  10.378  0.00  0.00    +0.000 A 
ATOM      8  C   UNL     1      45.052   4.753  10.115  0.00  0.00    +0.000 A 
ATOM      9  C   UNL     1      45.955   5.497  10.896  0.00  0.00    +0.000 A 
BRANCH   8  10
ATOM     10  C   UNL     1      45.518   3.899   9.008  0.00  0.00    +0.000 A 
ATOM     11  C   UNL     1      46.047   4.416   7.833  0.00  0.00    +0.000 A 
ATOM     12  N   UNL     1      46.518   3.684   6.799  0.00  0.00    +0.000 NA
ATOM     13  C   UNL     1      46.464   2.357   6.962  0.00  0.00    +0.000 A 
ATOM     14  N   UNL     1      45.982   1.719   8.037  0.00  0.00    +0.000 NA
ATOM     15  C   UNL     1      45.523   2.512   9.035  0.00  0.00    +0.000 A 
ENDBRANCH   8  10
ENDBRANCH   1   4
BRANCH   1  16
ATOM     16  O   UNL     1      47.785   6.733  12.978  0.00  0.00    +0.000 OA
BRANCH  16  20
ATOM     17  C   UNL     1      47.620   4.434  16.368  0.00  0.00    +0.000 A 
ATOM     18  C   UNL     1      48.253   5.675  16.396  0.00  0.00    +0.000 A 
ATOM     19  C   UNL     1      48.326   6.414  15.222  0.00  0.00    +0.000 A 
ATOM     20  C   UNL     1      47.764   5.887  14.066  0.00  0.00    +0.000 A 
ATOM     21  N   UNL     1      47.165   4.680  13.996  0.00  0.00    +0.000 NA
ATOM     22  C   UNL     1      47.125   3.969  15.154  0.00  0.00    +0.000 A 
BRANCH  17  24
ATOM     23  N   UNL     1      48.170   3.977  18.688  0.00  0.00    +0.000 N 
ATOM     24  C   UNL     1      47.456   3.605  17.578  0.00  0.00    +0.000 C 
ATOM     25  O   UNL     1      46.695   2.653  17.601  0.00  0.00    +0.000 OA
ATOM     26  H   UNL     1      47.970   3.465  19.540  0.00  0.00    +0.000 HD
ATOM     27  H   UNL     1      48.604   4.885  18.781  0.00  0.00    +0.000 HD
ENDBRANCH  17  24
ENDBRANCH  16  20
ENDBRANCH   1  16
TORSDOF 5
ENDMDL
MODEL 5
REMARK VINA RESULT:    -7.415      2.574      7.707
REMARK INTER + INTRA:          -9.612
REMARK INTER:                  -8.899
REMARK INTRA:                  -0.713
REMARK UNBOUND:                -0.029
REMARK  Name = 
REMARK  5 active torsions:
REMARK  status: ('A' for Active; 'I' for Inactive)
REMARK    1  A    between atoms: C_2  and  C_4
REMARK    2  A    between atoms: C_7  and  O_8
REMARK    3  A    between atoms: O_8  and  C_9
REMARK    4  A    between atoms: C_9  and  C_10
REMARK    5  A    between atoms: C_14  and  C_15
REMARK                            x       y       z     vdW  Elec       q    Type
REMARK                         _______ _______ _______ _____ _____    ______ ____
ROOT
ATOM      1  C   UNL     1      45.505   5.655  12.182  0.00  0.00    +0.000 C 
ATOM      2  C   UNL     1      45.042   7.040  11.745  0.00  0.00    +0.000 C 
ATOM      3  C   UNL     1      44.456   6.413  12.963  0.00  0.00    +0.000 C 
ENDROOT
BRANCH   1   4
ATOM      4  C   UNL     1      45.080   4.404  11.437  0.00  0.00    +0.000 A 
ATOM      5  C   UNL     1      43.916   3.707  11.783  0.00  0.00    +0.000 A 
ATOM      6  C   UNL     1      43.456   2.645  11.007  0.00  0.00    +0.000 A 
ATOM      7  C   UNL     1      44.152   2.261   9.859  0.00  0.00    +0.000 A 
ATOM      8  C   UNL     1      45.323   2.925   9.461  0.00  0.00    +0.000 A 
ATOM      9  C   UNL     1      45.776   3.972  10.284  0.00  0.00    +0.000 A 
BRANCH   8  10
ATOM     10  C   UNL     1      45.996   2.601   8.190  0.00  0.00    +0.000 A 
ATOM     11  C   UNL     1      46.552   1.355   7.933  0.00  0.00    +0.000 A 
ATOM     12  N   UNL     1      47.152   0.990   6.778  0.00  0.00    +0.000 NA
ATOM     13  C   UNL     1      47.181   1.928   5.825  0.00  0.00    +0.000 A 
ATOM     14  N   UNL     1      46.687   3.169   5.930  0.00  0.00    +0.000 NA
ATOM     15  C   UNL     1      46.103   3.470   7.114  0.00  0.00    +0.000 A 
ENDBRANCH   8  10
ENDBRANCH   1   4
BRANCH   1  16
ATOM     16  O   UNL     1      46.902   5.742  12.546  0.00  0.00    +0.000 OA
BRANCH  16  20
ATOM     17  C   UNL     1      47.929   4.864  16.417  0.00  0.00    +0.000 A 
ATOM     18  C   UNL     1      48.387   6.038  15.822  0.00  0.00    +0.000 A 
ATOM     19  C   UNL     1      48.054   6.289  14.497  0.00  0.00    +0.000 A 
ATOM     20  C   UNL     1      47.276   5.361  13.818  0.00  0.00    +0.000 A 
ATOM     21  N   UNL     1      46.834   4.203  14.353  0.00  0.00    +0.000 NA
ATOM     22  C   UNL     1      47.191   3.973  15.644  0.00  0.00    +0.000 A 
BRANCH  17  24
ATOM     23  N   UNL     1      47.261   4.946  18.750  0.00  0.00    +0.000 N 
ATOM     24  C   UNL     1      48.196   4.541  17.832  0.00  0.00    +0.000 C 
ATOM     25  O   UNL     1      49.185   3.912  18.168  0.00  0.00    +0.000 OA
ATOM     26  H   UNL     1      47.403   4.628  19.701  0.00  0.00    +0.000 HD
ATOM     27  H   UNL     1      46.329   5.238  18.489  0.00  0.00    +0.000 HD
ENDBRANCH  17  24
ENDBRANCH  16  20
ENDBRANCH   1  16
TORSDOF 5
ENDMDL
MODEL 6
REMARK VINA RESULT:    -7.262      2.436      7.398
REMARK INTER + INTRA:          -9.414
REMARK INTER:                  -8.813
REMARK INTRA:                  -0.601
REMARK UNBOUND:                -0.029
REMARK  Name = 
REMARK  5 active torsions:
REMARK  status: ('A' for Active; 'I' for Inactive)
REMARK    1  A    between atoms: C_2  and  C_4
REMARK    2  A    between atoms: C_7  and  O_8
REMARK    3  A    between atoms: O_8  and  C_9
REMARK    4  A    between atoms: C_9  and  C_10
REMARK    5  A    between atoms: C_14  and  C_15
REMARK                            x       y       z     vdW  Elec       q    Type
REMARK                         _______ _______ _______ _____ _____    ______ ____
ROOT
ATOM      1  C   UNL     1      44.500   5.679  11.221  0.00  0.00    +0.000 C 
ATOM      2  C   UNL     1      43.251   6.531  11.030  0.00  0.00    +0.000 C 
ATOM      3  C   UNL     1      43.515   5.890  12.348  0.00  0.00    +0.000 C 
ENDROOT
BRANCH   1   4
ATOM      4  C   UNL     1      44.614   4.292  10.619  0.00  0.00    +0.000 A 
ATOM      5  C   UNL     1      43.773   3.248  11.023  0.00  0.00    +0.000 A 
ATOM      6  C   UNL     1      43.787   2.018  10.367  0.00  0.00    +0.000 A 
ATOM      7  C   UNL     1      44.643   1.810   9.284  0.00  0.00    +0.000 A 
ATOM      8  C   UNL     1      45.506   2.821   8.833  0.00  0.00    +0.000 A 
ATOM      9  C   UNL     1      45.488   4.038   9.536  0.00  0.00    +0.000 A 
BRANCH   8  10
ATOM     10  C   UNL     1      46.325   2.646   7.620  0.00  0.00    +0.000 A 
ATOM     11  C   UNL     1      47.166   1.557   7.434  0.00  0.00    +0.000 A 
ATOM     12  N   UNL     1      47.916   1.326   6.333  0.00  0.00    +0.000 NA
ATOM     13  C   UNL     1      47.802   2.238   5.360  0.00  0.00    +0.000 A 
ATOM     14  N   UNL     1      47.034   3.335   5.399  0.00  0.00    +0.000 NA
ATOM     15  C   UNL     1      46.312   3.507   6.532  0.00  0.00    +0.000 A 
ENDBRANCH   8  10
ENDBRANCH   1   4
BRANCH   1  16
ATOM     16  O   UNL     1      45.655   6.538  11.081  0.00  0.00    +0.000 OA
BRANCH  16  20
ATOM     17  C   UNL     1      48.218   6.936  14.256  0.00  0.00    +0.000 A 
ATOM     18  C   UNL     1      47.966   8.023  13.422  0.00  0.00    +0.000 A 
ATOM     19  C   UNL     1      47.123   7.847  12.332  0.00  0.00    +0.000 A 
ATOM     20  C   UNL     1      46.563   6.594  12.118  0.00  0.00    +0.000 A 
ATOM     21  N   UNL     1      46.803   5.513  12.890  0.00  0.00    +0.000 NA
ATOM     22  C   UNL     1      47.646   5.708  13.937  0.00  0.00    +0.000 A 
BRANCH  17  24
ATOM     23  N   UNL     1      48.965   8.207  16.185  0.00  0.00    +0.000 N 
ATOM     24  C   UNL     1      49.062   7.046  15.462  0.00  0.00    +0.000 C 
ATOM     25  O   UNL     1      49.789   6.134  15.818  0.00  0.00    +0.000 OA
ATOM     26  H   UNL     1      49.469   8.227  17.065  0.00  0.00    +0.000 HD
ATOM     27  H   UNL     1      48.206   8.863  16.066  0.00  0.00    +0.000 HD
ENDBRANCH  17  24
ENDBRANCH  16  20
ENDBRANCH   1  16
TORSDOF 5
ENDMDL
MODEL 7
REMARK VINA RESULT:    -7.071      3.081      4.806
REMARK INTER + INTRA:          -9.167
REMARK INTER:                  -8.540
REMARK INTRA:                  -0.627
REMARK UNBOUND:                -0.029
REMARK  Name = 
REMARK  5 active torsions:
REMARK  status: ('A' for Active; 'I' for Inactive)
REMARK    1  A    between atoms: C_2  and  C_4
REMARK    2  A    between atoms: C_7  and  O_8
REMARK    3  A    between atoms: O_8  and  C_9
REMARK    4  A    between atoms: C_9  and  C_10
REMARK    5  A    between atoms: C_14  and  C_15
REMARK                            x       y       z     vdW  Elec       q    Type
REMARK                         _______ _______ _______ _____ _____    ______ ____
ROOT
ATOM      1  C   UNL     1      48.035   8.021  12.613  0.00  0.00    +0.000 C 
ATOM      2  C   UNL     1      48.826   8.976  11.727  0.00  0.00    +0.000 C 
ATOM      3  C   UNL     1      49.041   7.507  11.609  0.00  0.00    +0.000 C 
ENDROOT
BRANCH   1   4
ATOM      4  C   UNL     1      48.350   7.863  14.088  0.00  0.00    +0.000 A 
ATOM      5  C   UNL     1      48.531   8.975  14.920  0.00  0.00    +0.000 A 
ATOM      6  C   UNL     1      48.677   8.825  16.299  0.00  0.00    +0.000 A 
ATOM      7  C   UNL     1      48.640   7.554  16.874  0.00  0.00    +0.000 A 
ATOM      8  C   UNL     1      48.460   6.404  16.090  0.00  0.00    +0.000 A 
ATOM      9  C   UNL     1      48.346   6.588  14.700  0.00  0.00    +0.000 A 
BRANCH   8  10
ATOM     10  C   UNL     1      48.304   5.073  16.704  0.00  0.00    +0.000 A 
ATOM     11  C   UNL     1      49.339   4.426  17.366  0.00  0.00    +0.000 A 
ATOM     12  N   UNL     1      49.247   3.222  17.974  0.00  0.00    +0.000 NA
ATOM     13  C   UNL     1      48.042   2.644  17.923  0.00  0.00    +0.000 A 
ATOM     14  N   UNL     1      46.955   3.147  17.323  0.00  0.00    +0.000 NA
ATOM     15  C   UNL     1      47.118   4.354  16.730  0.00  0.00    +0.000 A 
ENDBRANCH   8  10
ENDBRANCH   1   4
BRANCH   1  16
ATOM     16  O   UNL     1      46.637   8.138  12.263  0.00  0.00    +0.000 OA
BRANCH  16  20
ATOM     17  C   UNL     1      44.692   4.591  11.597  0.00  0.00    +0.000 A 
ATOM     18  C   UNL     1      45.362   5.226  10.554  0.00  0.00    +0.000 A 
ATOM     19  C   UNL     1      45.980   6.446  10.801  0.00  0.00    +0.000 A 
ATOM     20  C   UNL     1      45.905   6.984  12.080  0.00  0.00    +0.000 A 
ATOM     21  N   UNL     1      45.246   6.410  13.107  0.00  0.00    +0.000 NA
ATOM     22  C   UNL     1      44.634   5.228  12.834  0.00  0.00    +0.000 A 
BRANCH  17  24
ATOM     23  N   UNL     1      43.853   2.532  12.572  0.00  0.00    +0.000 N 
ATOM     24  C   UNL     1      44.050   3.272  11.435  0.00  0.00    +0.000 C 
ATOM     25  O   UNL     1      43.680   2.872  10.344  0.00  0.00    +0.000 OA
ATOM     26  H   UNL     1      43.318   1.679  12.462  0.00  0.00    +0.000 HD
ATOM     27  H   UNL     1      43.913   2.929  13.500  0.00  0.00    +0.000 HD
ENDBRANCH  17  24
ENDBRANCH  16  20
ENDBRANCH   1  16
TORSDOF 5
ENDMDL
MODEL 8
REMARK VINA RESULT:    -6.922      3.291      8.019
REMARK INTER + INTRA:          -8.975
REMARK INTER:                  -8.225
REMARK INTRA:                  -0.749
REMARK UNBOUND:                -0.029
REMARK  Name = 
REMARK  5 active torsions:
REMARK  status: ('A' for Active; 'I' for Inactive)
REMARK    1  A    between atoms: C_2  and  C_4
REMARK    2  A    between atoms: C_7  and  O_8
REMARK    3  A    between atoms: O_8  and  C_9
REMARK    4  A    between atoms: C_9  and  C_10
REMARK    5  A    between atoms: C_14  and  C_15
REMARK                            x       y       z     vdW  Elec       q    Type
REMARK                         _______ _______ _______ _____ _____    ______ ____
ROOT
ATOM      1  C   UNL     1      48.383   7.519  13.696  0.00  0.00    +0.000 C 
ATOM      2  C   UNL     1      49.499   8.424  13.188  0.00  0.00    +0.000 C 
ATOM      3  C   UNL     1      48.754   8.790  14.424  0.00  0.00    +0.000 C 
ENDROOT
BRANCH   1   4
ATOM      4  C   UNL     1      47.035   7.456  13.004  0.00  0.00    +0.000 A 
ATOM      5  C   UNL     1      46.149   8.540  13.030  0.00  0.00    +0.000 A 
ATOM      6  C   UNL     1      44.977   8.529  12.276  0.00  0.00    +0.000 A 
ATOM      7  C   UNL     1      44.670   7.429  11.472  0.00  0.00    +0.000 A 
ATOM      8  C   UNL     1      45.521   6.315  11.405  0.00  0.00    +0.000 A 
ATOM      9  C   UNL     1      46.680   6.347  12.202  0.00  0.00    +0.000 A 
BRANCH   8  10
ATOM     10  C   UNL     1      45.261   5.205  10.471  0.00  0.00    +0.000 A 
ATOM     11  C   UNL     1      45.742   5.193   9.169  0.00  0.00    +0.000 A 
ATOM     12  N   UNL     1      45.564   4.191   8.279  0.00  0.00    +0.000 NA
ATOM     13  C   UNL     1      44.872   3.138   8.730  0.00  0.00    +0.000 A 
ATOM     14  N   UNL     1      44.349   3.011   9.957  0.00  0.00    +0.000 NA
ATOM     15  C   UNL     1      44.562   4.052  10.797  0.00  0.00    +0.000 A 
ENDBRANCH   8  10
ENDBRANCH   1   4
BRANCH   1  16
ATOM     16  O   UNL     1      48.970   6.253  14.077  0.00  0.00    +0.000 OA
BRANCH  16  20
ATOM     17  C   UNL     1      48.746   4.864  17.927  0.00  0.00    +0.000 A 
ATOM     18  C   UNL     1      47.703   4.621  17.036  0.00  0.00    +0.000 A 
ATOM     19  C   UNL     1      47.791   5.137  15.749  0.00  0.00    +0.000 A 
ATOM     20  C   UNL     1      48.915   5.874  15.402  0.00  0.00    +0.000 A 
ATOM     21  N   UNL     1      49.933   6.150  16.245  0.00  0.00    +0.000 NA
ATOM     22  C   UNL     1      49.813   5.650  17.503  0.00  0.00    +0.000 A 
BRANCH  17  24
ATOM     23  N   UNL     1      48.291   3.034  19.457  0.00  0.00    +0.000 N 
ATOM     24  C   UNL     1      48.756   4.314  19.297  0.00  0.00    +0.000 C 
ATOM     25  O   UNL     1      49.190   4.956  20.239  0.00  0.00    +0.000 OA
ATOM     26  H   UNL     1      48.401   2.632  20.381  0.00  0.00    +0.000 HD
ATOM     27  H   UNL     1      48.165   2.398  18.683  0.00  0.00    +0.000 HD
ENDBRANCH  17  24
ENDBRANCH  16  20
ENDBRANCH   1  16
TORSDOF 5
ENDMDL
MODEL 9
REMARK VINA RESULT:    -6.716      4.023      8.271
REMARK INTER + INTRA:          -8.708
REMARK INTER:                  -7.742
REMARK INTRA:                  -0.966
REMARK UNBOUND:                -0.029
REMARK  Name = 
REMARK  5 active torsions:
REMARK  status: ('A' for Active; 'I' for Inactive)
REMARK    1  A    between atoms: C_2  and  C_4
REMARK    2  A    between atoms: C_7  and  O_8
REMARK    3  A    between atoms: O_8  and  C_9
REMARK    4  A    between atoms: C_9  and  C_10
REMARK    5  A    between atoms: C_14  and  C_15
REMARK                            x       y       z     vdW  Elec       q    Type
REMARK                         _______ _______ _______ _____ _____    ______ ____
ROOT
ATOM      1  C   UNL     1      49.052   7.623  13.458  0.00  0.00    +0.000 C 
ATOM      2  C   UNL     1      50.064   7.634  12.319  0.00  0.00    +0.000 C 
ATOM      3  C   UNL     1      49.885   8.849  13.162  0.00  0.00    +0.000 C 
ENDROOT
BRANCH   1   4
ATOM      4  C   UNL     1      47.560   7.690  13.195  0.00  0.00    +0.000 A 
ATOM      5  C   UNL     1      46.902   8.914  13.023  0.00  0.00    +0.000 A 
ATOM      6  C   UNL     1      45.562   8.962  12.641  0.00  0.00    +0.000 A 
ATOM      7  C   UNL     1      44.852   7.780  12.418  0.00  0.00    +0.000 A 
ATOM      8  C   UNL     1      45.460   6.525  12.574  0.00  0.00    +0.000 A 
ATOM      9  C   UNL     1      46.804   6.512  12.989  0.00  0.00    +0.000 A 
BRANCH   8  10
ATOM     10  C   UNL     1      44.751   5.280  12.227  0.00  0.00    +0.000 A 
ATOM     11  C   UNL     1      45.035   4.063  12.831  0.00  0.00    +0.000 A 
ATOM     12  N   UNL     1      44.399   2.897  12.578  0.00  0.00    +0.000 NA
ATOM     13  C   UNL     1      43.414   2.965  11.675  0.00  0.00    +0.000 A 
ATOM     14  N   UNL     1      43.030   4.065  11.014  0.00  0.00    +0.000 NA
ATOM     15  C   UNL     1      43.712   5.197  11.312  0.00  0.00    +0.000 A 
ENDBRANCH   8  10
ENDBRANCH   1   4
BRANCH   1  16
ATOM     16  O   UNL     1      49.490   6.653  14.438  0.00  0.00    +0.000 OA
BRANCH  16  20
ATOM     17  C   UNL     1      48.178   6.702  18.322  0.00  0.00    +0.000 A 
ATOM     18  C   UNL     1      48.073   5.538  17.565  0.00  0.00    +0.000 A 
ATOM     19  C   UNL     1      48.491   5.563  16.240  0.00  0.00    +0.000 A 
ATOM     20  C   UNL     1      48.998   6.748  15.723  0.00  0.00    +0.000 A 
ATOM     21  N   UNL     1      49.093   7.901  16.419  0.00  0.00    +0.000 NA
ATOM     22  C   UNL     1      48.659   7.854  17.706  0.00  0.00    +0.000 A 
BRANCH  17  24
ATOM     23  N   UNL     1      47.132   5.667  20.253  0.00  0.00    +0.000 N 
ATOM     24  C   UNL     1      47.803   6.751  19.749  0.00  0.00    +0.000 C 
ATOM     25  O   UNL     1      48.103   7.698  20.456  0.00  0.00    +0.000 OA
ATOM     26  H   UNL     1      46.974   5.667  21.254  0.00  0.00    +0.000 HD
ATOM     27  H   UNL     1      47.092   4.778  19.773  0.00  0.00    +0.000 HD
ENDBRANCH  17  24
ENDBRANCH  16  20
ENDBRANCH   1  16
TORSDOF 5
ENDMDL
