MODEL 1
REMARK VINA RESULT:    -8.462      0.000      0.000
REMARK INTER + INTRA:         -11.383
REMARK INTER:                 -10.688
REMARK INTRA:                  -0.695
REMARK UNBOUND:                -0.695
REMARK  Name = 
REMARK  5 active torsions:
REMARK  status: ('A' for Active; 'I' for Inactive)
REMARK    1  A    between atoms: C_2  and  C_4
REMARK    2  A    between atoms: C_7  and  C_8
REMARK    3  A    between atoms: C_8  and  C_9
REMARK    4  A    between atoms: C_9  and  C_10
REMARK    5  A    between atoms: C_18  and  O_19
REMARK                            x       y       z     vdW  Elec       q    Type
REMARK                         _______ _______ _______ _____ _____    ______ ____
ROOT
ATOM      1  C   UNL     1      43.783   4.670  10.068  0.00  0.00    +0.000 C 
ENDROOT
BRANCH   1   5
ATOM      2  C   UNL     1      46.532   2.549   7.680  0.00  0.00    +0.000 A 
ATOM      3  N   UNL     1      45.810   1.817   8.561  0.00  0.00    +0.000 NA
ATOM      4  C   UNL     1      44.957   2.520   9.334  0.00  0.00    +0.000 A 
ATOM      5  C   UNL     1      44.811   3.893   9.290  0.00  0.00    +0.000 A 
ATOM      6  C   UNL     1      45.610   4.523   8.350  0.00  0.00    +0.000 A 
ATOM      7  N   UNL     1      46.474   3.886   7.537  0.00  0.00    +0.000 NA
BRANCH   2   9
ATOM      8  N   UNL     1      48.496   2.478   6.227  0.00  0.00    +0.000 N 
ATOM      9  C   UNL     1      47.429   1.773   6.741  0.00  0.00    +0.000 C 
ATOM     10  O   UNL     1      47.267   0.595   6.448  0.00  0.00    +0.000 OA
ATOM     11  H   UNL     1      49.162   1.997   5.641  0.00  0.00    +0.000 HD
ATOM     12  H   UNL     1      48.650   3.439   6.508  0.00  0.00    +0.000 HD
ENDBRANCH   2   9
ENDBRANCH   1   5
BRANCH   1  13
ATOM     13  C   UNL     1      44.004   4.716  11.580  0.00  0.00    +0.000 C 
ATOM     14  C   UNL     1      43.356   3.628  12.428  0.00  0.00    +0.000 C 
ATOM     15  C   UNL     1      42.751   4.994  12.420  0.00  0.00    +0.000 C 
BRANCH  13  16
ATOM     16  C   UNL     1      45.322   5.337  12.048  0.00  0.00    +0.000 A 
ATOM     17  C   UNL     1      46.112   4.714  13.033  0.00  0.00    +0.000 A 
ATOM     18  C   UNL     1      47.346   5.241  13.422  0.00  0.00    +0.000 A 
ATOM     19  C   UNL     1      47.803   6.413  12.836  0.00  0.00    +0.000 A 
ATOM     20  F   UNL     1      48.997   6.908  13.186  0.00  0.00    +0.000 F 
ATOM     21  C   UNL     1      47.043   7.071  11.882  0.00  0.00    +0.000 A 
ATOM     22  C   UNL     1      45.813   6.536  11.494  0.00  0.00    +0.000 A 
ENDBRANCH  13  16
BRANCH  15  23
ATOM     23  O   UNL     1      42.898   5.756  13.629  0.00  0.00    +0.000 OA
ATOM     24  H   UNL     1      43.825   5.967  13.834  0.00  0.00    +0.000 HD
ENDBRANCH  15  23
ENDBRANCH   1  13
TORSDOF 5
ENDMDL
MODEL 2
REMARK VINA RESULT:    -7.668      1.155      1.955
REMARK INTER + INTRA:         -10.380
REMARK INTER:                 -10.094
REMARK INTRA:                  -0.286
REMARK UNBOUND:                -0.695
REMARK  Name = 
REMARK  5 active torsions:
REMARK  status: ('A' for Active; 'I' for Inactive)
REMARK    1  A    between atoms: C_2  and  C_4
REMARK    2  A    between atoms: C_7  and  C_8
REMARK    3  A    between atoms: C_8  and  C_9
REMARK    4  A    between atoms: C_9  and  C_10
REMARK    5  A    between atoms: C_18  and  O_19
REMARK                            x       y       z     vdW  Elec       q    Type
REMARK                         _______ _______ _______ _____ _____    ______ ____
ROOT
ATOM      1  C   UNL     1      43.710   4.871   9.939  0.00  0.00    +0.000 C 
ENDROOT
BRANCH   1   5
ATOM      2  C   UNL     1      46.159   2.040   8.004  0.00  0.00    +0.000 A 
ATOM      3  N   UNL     1      46.391   3.339   7.707  0.00  0.00    +0.000 NA
ATOM      4  C   UNL     1      45.578   4.226   8.316  0.00  0.00    +0.000 A 
ATOM      5  C   UNL     1      44.547   3.884   9.170  0.00  0.00    +0.000 A 
ATOM      6  C   UNL     1      44.412   2.523   9.386  0.00  0.00    +0.000 A 
ATOM      7  N   UNL     1      45.194   1.581   8.824  0.00  0.00    +0.000 NA
BRANCH   2   9
ATOM      8  N   UNL     1      46.835  -0.287   7.682  0.00  0.00    +0.000 N 
ATOM      9  C   UNL     1      47.116   1.033   7.403  0.00  0.00    +0.000 C 
ATOM     10  O   UNL     1      48.071   1.326   6.697  0.00  0.00    +0.000 OA
ATOM     11  H   UNL     1      47.403  -1.007   7.261  0.00  0.00    +0.000 HD
ATOM     12  H   UNL     1      46.017  -0.527   8.230  0.00  0.00    +0.000 HD
ENDBRANCH   2   9
ENDBRANCH   1   5
BRANCH   1  13
ATOM     13  C   UNL     1      44.048   4.998  11.424  0.00  0.00    +0.000 C 
ATOM     14  C   UNL     1      43.984   3.739  12.280  0.00  0.00    +0.000 C 
ATOM     15  C   UNL     1      42.883   4.743  12.388  0.00  0.00    +0.000 C 
BRANCH  13  16
ATOM     16  C   UNL     1      45.044   6.099  11.795  0.00  0.00    +0.000 A 
ATOM     17  C   UNL     1      44.763   7.454  11.535  0.00  0.00    +0.000 A 
ATOM     18  C   UNL     1      45.639   8.471  11.925  0.00  0.00    +0.000 A 
ATOM     19  C   UNL     1      46.820   8.142  12.574  0.00  0.00    +0.000 A 
ATOM     20  F   UNL     1      47.651   9.113  12.975  0.00  0.00    +0.000 F 
ATOM     21  C   UNL     1      47.146   6.818  12.825  0.00  0.00    +0.000 A 
ATOM     22  C   UNL     1      46.264   5.807  12.436  0.00  0.00    +0.000 A 
ENDBRANCH  13  16
BRANCH  15  23
ATOM     23  O   UNL     1      42.834   5.495  13.612  0.00  0.00    +0.000 OA
ATOM     24  H   UNL     1      42.626   4.945  14.386  0.00  0.00    +0.000 HD
ENDBRANCH  15  23
ENDBRANCH   1  13
TORSDOF 5
ENDMDL
MODEL 3
REMARK VINA RESULT:    -6.432      4.137      6.522
REMARK INTER + INTRA:          -8.819
REMARK INTER:                  -8.514
REMARK INTRA:                  -0.305
REMARK UNBOUND:                -0.695
REMARK  Name = 
REMARK  5 active torsions:
REMARK  status: ('A' for Active; 'I' for Inactive)
REMARK    1  A    between atoms: C_2  and  C_4
REMARK    2  A    between atoms: C_7  and  C_8
REMARK    3  A    between atoms: C_8  and  C_9
REMARK    4  A    between atoms: C_9  and  C_10
REMARK    5  A    between atoms: C_18  and  O_19
REMARK                            x       y       z     vdW  Elec       q    Type
REMARK                         _______ _______ _______ _____ _____    ______ ____
ROOT
ATOM      1  C   UNL     1      45.677   3.815  13.225  0.00  0.00    +0.000 C 
ENDROOT
BRANCH   1   5
ATOM      2  C   UNL     1      48.698   6.214  14.919  0.00  0.00    +0.000 A 
ATOM      3  N   UNL     1      48.461   6.389  13.598  0.00  0.00    +0.000 NA
ATOM      4  C   UNL     1      47.510   5.591  13.071  0.00  0.00    +0.000 A 
ATOM      5  C   UNL     1      46.816   4.628  13.778  0.00  0.00    +0.000 A 
ATOM      6  C   UNL     1      47.156   4.548  15.119  0.00  0.00    +0.000 A 
ATOM      7  N   UNL     1      48.085   5.319  15.716  0.00  0.00    +0.000 NA
BRANCH   2   9
ATOM      8  N   UNL     1      50.835   7.396  14.812  0.00  0.00    +0.000 N 
ATOM      9  C   UNL     1      49.697   7.159  15.551  0.00  0.00    +0.000 C 
ATOM     10  O   UNL     1      49.535   7.712  16.632  0.00  0.00    +0.000 OA
ATOM     11  H   UNL     1      51.510   8.063  15.154  0.00  0.00    +0.000 HD
ATOM     12  H   UNL     1      50.944   6.971  13.898  0.00  0.00    +0.000 HD
ENDBRANCH   2   9
ENDBRANCH   1   5
BRANCH   1  13
ATOM     13  C   UNL     1      44.771   4.545  12.234  0.00  0.00    +0.000 C 
ATOM     14  C   UNL     1      44.301   5.948  12.599  0.00  0.00    +0.000 C 
ATOM     15  C   UNL     1      43.341   4.810  12.720  0.00  0.00    +0.000 C 
BRANCH  13  16
ATOM     16  C   UNL     1      44.961   4.185  10.758  0.00  0.00    +0.000 A 
ATOM     17  C   UNL     1      45.485   5.118   9.843  0.00  0.00    +0.000 A 
ATOM     18  C   UNL     1      45.720   4.779   8.507  0.00  0.00    +0.000 A 
ATOM     19  C   UNL     1      45.421   3.499   8.066  0.00  0.00    +0.000 A 
ATOM     20  F   UNL     1      45.668   3.160   6.794  0.00  0.00    +0.000 F 
ATOM     21  C   UNL     1      44.879   2.560   8.930  0.00  0.00    +0.000 A 
ATOM     22  C   UNL     1      44.652   2.903  10.264  0.00  0.00    +0.000 A 
ENDBRANCH  13  16
BRANCH  15  23
ATOM     23  O   UNL     1      42.276   4.777  11.756  0.00  0.00    +0.000 OA
ATOM     24  H   UNL     1      42.455   5.330  10.976  0.00  0.00    +0.000 HD
ENDBRANCH  15  23
ENDBRANCH   1  13
TORSDOF 5
ENDMDL
MODEL 4
REMARK VINA RESULT:    -6.423      4.043      6.134
REMARK INTER + INTRA:          -8.808
REMARK INTER:                  -9.868
REMARK INTRA:                   1.060
REMARK UNBOUND:                -0.695
REMARK  Name = 
REMARK  5 active torsions:
REMARK  status: ('A' for Active; 'I' for Inactive)
REMARK    1  A    between atoms: C_2  and  C_4
REMARK    2  A    between atoms: C_7  and  C_8
REMARK    3  A    between atoms: C_8  and  C_9
REMARK    4  A    between atoms: C_9  and  C_10
REMARK    5  A    between atoms: C_18  and  O_19
REMARK                            x       y       z     vdW  Elec       q    Type
REMARK                         _______ _______ _______ _____ _____    ______ ____
ROOT
ATOM      1  C   UNL     1      45.701   5.707  11.830  0.00  0.00    +0.000 C 
ENDROOT
BRANCH   1   5
ATOM      2  C   UNL     1      47.532   3.670  15.032  0.00  0.00    +0.000 A 
ATOM      3  N   UNL     1      47.060   2.903  14.022  0.00  0.00    +0.000 NA
ATOM      4  C   UNL     1      46.454   3.573  13.021  0.00  0.00    +0.000 A 
ATOM      5  C   UNL     1      46.275   4.943  12.992  0.00  0.00    +0.000 A 
ATOM      6  C   UNL     1      46.799   5.611  14.087  0.00  0.00    +0.000 A 
ATOM      7  N   UNL     1      47.427   5.010  15.116  0.00  0.00    +0.000 NA
BRANCH   2   9
ATOM      8  N   UNL     1      48.058   3.397  17.403  0.00  0.00    +0.000 N 
ATOM      9  C   UNL     1      48.295   2.950  16.122  0.00  0.00    +0.000 C 
ATOM     10  O   UNL     1      49.063   2.016  15.924  0.00  0.00    +0.000 OA
ATOM     11  H   UNL     1      48.493   2.917  18.177  0.00  0.00    +0.000 HD
ATOM     12  H   UNL     1      47.388   4.140  17.565  0.00  0.00    +0.000 HD
ENDBRANCH   2   9
ENDBRANCH   1   5
BRANCH   1  13
ATOM     13  C   UNL     1      44.609   4.981  11.045  0.00  0.00    +0.000 C 
ATOM     14  C   UNL     1      43.228   5.623  10.985  0.00  0.00    +0.000 C 
ATOM     15  C   UNL     1      43.439   4.447  11.882  0.00  0.00    +0.000 C 
BRANCH  13  16
ATOM     16  C   UNL     1      45.083   4.127   9.867  0.00  0.00    +0.000 A 
ATOM     17  C   UNL     1      45.672   4.714   8.731  0.00  0.00    +0.000 A 
ATOM     18  C   UNL     1      46.164   3.938   7.678  0.00  0.00    +0.000 A 
ATOM     19  C   UNL     1      46.061   2.556   7.743  0.00  0.00    +0.000 A 
ATOM     20  F   UNL     1      46.554   1.806   6.749  0.00  0.00    +0.000 F 
ATOM     21  C   UNL     1      45.463   1.941   8.831  0.00  0.00    +0.000 A 
ATOM     22  C   UNL     1      44.978   2.722   9.882  0.00  0.00    +0.000 A 
ENDBRANCH  13  16
BRANCH  15  23
ATOM     23  O   UNL     1      42.813   3.221  11.473  0.00  0.00    +0.000 OA
ATOM     24  H   UNL     1      43.397   2.449  11.565  0.00  0.00    +0.000 HD
ENDBRANCH  15  23
ENDBRANCH   1  13
TORSDOF 5
ENDMDL
MODEL 5
REMARK VINA RESULT:    -6.164      3.837      6.216
REMARK INTER + INTRA:          -8.481
REMARK INTER:                  -8.813
REMARK INTRA:                   0.332
REMARK UNBOUND:                -0.695
REMARK  Name = 
REMARK  5 active torsions:
REMARK  status: ('A' for Active; 'I' for Inactive)
REMARK    1  A    between atoms: C_2  and  C_4
REMARK    2  A    between atoms: C_7  and  C_8
REMARK    3  A    between atoms: C_8  and  C_9
REMARK    4  A    between atoms: C_9  and  C_10
REMARK    5  A    between atoms: C_18  and  O_19
REMARK                            x       y       z     vdW  Elec       q    Type
REMARK                         _______ _______ _______ _____ _____    ______ ____
ROOT
ATOM      1  C   UNL     1      45.618   4.330  12.639  0.00  0.00    +0.000 C 
ENDROOT
BRANCH   1   5
ATOM      2  C   UNL     1      46.458   8.445  12.298  0.00  0.00    +0.000 A 
ATOM      3  N   UNL     1      47.461   7.597  11.971  0.00  0.00    +0.000 NA
ATOM      4  C   UNL     1      47.179   6.286  12.115  0.00  0.00    +0.000 A 
ATOM      5  C   UNL     1      45.978   5.790  12.584  0.00  0.00    +0.000 A 
ATOM      6  C   UNL     1      45.038   6.762  12.887  0.00  0.00    +0.000 A 
ATOM      7  N   UNL     1      45.244   8.087  12.757  0.00  0.00    +0.000 NA
BRANCH   2   9
ATOM      8  N   UNL     1      45.615  10.735  12.150  0.00  0.00    +0.000 N 
ATOM      9  C   UNL     1      46.720   9.916  12.060  0.00  0.00    +0.000 C 
ATOM     10  O   UNL     1      47.823  10.391  11.822  0.00  0.00    +0.000 OA
ATOM     11  H   UNL     1      45.737  11.732  12.059  0.00  0.00    +0.000 HD
ATOM     12  H   UNL     1      44.712  10.342  12.391  0.00  0.00    +0.000 HD
ENDBRANCH   2   9
ENDBRANCH   1   5
BRANCH   1  13
ATOM     13  C   UNL     1      44.520   3.890  11.672  0.00  0.00    +0.000 C 
ATOM     14  C   UNL     1      43.104   4.395  11.921  0.00  0.00    +0.000 C 
ATOM     15  C   UNL     1      43.439   2.982  12.271  0.00  0.00    +0.000 C 
BRANCH  13  16
ATOM     16  C   UNL     1      44.965   3.606  10.234  0.00  0.00    +0.000 A 
ATOM     17  C   UNL     1      45.193   4.654   9.323  0.00  0.00    +0.000 A 
ATOM     18  C   UNL     1      45.659   4.409   8.028  0.00  0.00    +0.000 A 
ATOM     19  C   UNL     1      45.892   3.102   7.623  0.00  0.00    +0.000 A 
ATOM     20  F   UNL     1      46.363   2.863   6.392  0.00  0.00    +0.000 F 
ATOM     21  C   UNL     1      45.655   2.041   8.482  0.00  0.00    +0.000 A 
ATOM     22  C   UNL     1      45.194   2.294   9.776  0.00  0.00    +0.000 A 
ENDBRANCH  13  16
BRANCH  15  23
ATOM     23  O   UNL     1      42.858   1.970  11.432  0.00  0.00    +0.000 OA
ATOM     24  H   UNL     1      41.893   2.059  11.345  0.00  0.00    +0.000 HD
ENDBRANCH  15  23
ENDBRANCH   1  13
TORSDOF 5
ENDMDL
MODEL 6
REMARK VINA RESULT:    -6.103      4.243      6.522
REMARK INTER + INTRA:          -8.404
REMARK INTER:                  -9.049
REMARK INTRA:                   0.646
REMARK UNBOUND:                -0.695
REMARK  Name = 
REMARK  5 active torsions:
REMARK  status: ('A' for Active; 'I' for Inactive)
REMARK    1  A    between atoms: C_2  and  C_4
REMARK    2  A    between atoms: C_7  and  C_8
REMARK    3  A    between atoms: C_8  and  C_9
REMARK    4  A    between atoms: C_9  and  C_10
REMARK    5  A    between atoms: C_18  and  O_19
REMARK                            x       y       z     vdW  Elec       q    Type
REMARK                         _______ _______ _______ _____ _____    ______ ____
ROOT
ATOM      1  C   UNL     1      47.098   6.271  12.272  0.00  0.00    +0.000 C 
ENDROOT
BRANCH   1   5
ATOM      2  C   UNL     1      47.715   4.203  15.892  0.00  0.00    +0.000 A 
ATOM      3  N   UNL     1      46.971   3.569  14.955  0.00  0.00    +0.000 NA
ATOM      4  C   UNL     1      46.763   4.261  13.816  0.00  0.00    +0.000 A 
ATOM      5  C   UNL     1      47.230   5.540  13.581  0.00  0.00    +0.000 A 
ATOM      6  C   UNL     1      47.973   6.076  14.619  0.00  0.00    +0.000 A 
ATOM      7  N   UNL     1      48.231   5.441  15.778  0.00  0.00    +0.000 NA
BRANCH   2   9
ATOM      8  N   UNL     1      46.966   2.770  17.724  0.00  0.00    +0.000 N 
ATOM      9  C   UNL     1      48.036   3.413  17.141  0.00  0.00    +0.000 C 
ATOM     10  O   UNL     1      49.158   3.308  17.621  0.00  0.00    +0.000 OA
ATOM     11  H   UNL     1      47.129   2.179  18.526  0.00  0.00    +0.000 HD
ATOM     12  H   UNL     1      46.049   2.823  17.298  0.00  0.00    +0.000 HD
ENDBRANCH   2   9
ENDBRANCH   1   5
BRANCH   1  13
ATOM     13  C   UNL     1      45.694   6.287  11.670  0.00  0.00    +0.000 C 
ATOM     14  C   UNL     1      45.038   7.641  11.426  0.00  0.00    +0.000 C 
ATOM     15  C   UNL     1      44.588   6.819  12.590  0.00  0.00    +0.000 C 
BRANCH  13  16
ATOM     16  C   UNL     1      45.345   5.115  10.748  0.00  0.00    +0.000 A 
ATOM     17  C   UNL     1      44.731   3.952  11.250  0.00  0.00    +0.000 A 
ATOM     18  C   UNL     1      44.352   2.903  10.406  0.00  0.00    +0.000 A 
ATOM     19  C   UNL     1      44.596   3.001   9.044  0.00  0.00    +0.000 A 
ATOM     20  F   UNL     1      44.211   2.012   8.228  0.00  0.00    +0.000 F 
ATOM     21  C   UNL     1      45.222   4.119   8.515  0.00  0.00    +0.000 A 
ATOM     22  C   UNL     1      45.594   5.165   9.362  0.00  0.00    +0.000 A 
ENDBRANCH  13  16
BRANCH  15  23
ATOM     23  O   UNL     1      43.277   6.240  12.484  0.00  0.00    +0.000 OA
ATOM     24  H   UNL     1      43.032   5.714  13.265  0.00  0.00    +0.000 HD
ENDBRANCH  15  23
ENDBRANCH   1  13
TORSDOF 5
ENDMDL
MODEL 7
REMARK VINA RESULT:    -5.579      4.099      6.413
REMARK INTER + INTRA:          -7.742
REMARK INTER:                  -8.677
REMARK INTRA:                   0.935
REMARK UNBOUND:                -0.695
REMARK  Name = 
REMARK  5 active torsions:
REMARK  status: ('A' for Active; 'I' for Inactive)
REMARK    1  A    between atoms: C_2  and  C_4
REMARK    2  A    between atoms: C_7  and  C_8
REMARK    3  A    between atoms: C_8  and  C_9
REMARK    4  A    between atoms: C_9  and  C_10
REMARK    5  A    between atoms: C_18  and  O_19
REMARK                            x       y       z     vdW  Elec       q    Type
REMARK                         _______ _______ _______ _____ _____    ______ ____
ROOT
ATOM      1  C   UNL     1      44.178   6.138  11.266  0.00  0.00    +0.000 C 
ENDROOT
BRANCH   1   5
ATOM      2  C   UNL     1      47.280   8.170  13.266  0.00  0.00    +0.000 A 
ATOM      3  N   UNL     1      46.060   8.754  13.298  0.00  0.00    +0.000 NA
ATOM      4  C   UNL     1      45.089   8.101  12.628  0.00  0.00    +0.000 A 
ATOM      5  C   UNL     1      45.278   6.930  11.920  0.00  0.00    +0.000 A 
ATOM      6  C   UNL     1      46.573   6.440  11.963  0.00  0.00    +0.000 A 
ATOM      7  N   UNL     1      47.589   7.030  12.620  0.00  0.00    +0.000 NA
BRANCH   2   9
ATOM      8  N   UNL     1      47.939   9.444  15.246  0.00  0.00    +0.000 N 
ATOM      9  C   UNL     1      48.365   8.837  14.084  0.00  0.00    +0.000 C 
ATOM     10  O   UNL     1      49.552   8.843  13.783  0.00  0.00    +0.000 OA
ATOM     11  H   UNL     1      48.624   9.854  15.862  0.00  0.00    +0.000 HD
ATOM     12  H   UNL     1      46.962   9.398  15.513  0.00  0.00    +0.000 HD
ENDBRANCH   2   9
ENDBRANCH   1   5
BRANCH   1  13
ATOM     13  C   UNL     1      44.333   4.620  11.338  0.00  0.00    +0.000 C 
ATOM     14  C   UNL     1      43.394   3.850  12.258  0.00  0.00    +0.000 C 
ATOM     15  C   UNL     1      44.807   4.069  12.688  0.00  0.00    +0.000 C 
BRANCH  13  16
ATOM     16  C   UNL     1      44.858   3.937  10.072  0.00  0.00    +0.000 A 
ATOM     17  C   UNL     1      45.520   4.671   9.070  0.00  0.00    +0.000 A 
ATOM     18  C   UNL     1      46.057   4.048   7.940  0.00  0.00    +0.000 A 
ATOM     19  C   UNL     1      45.927   2.674   7.792  0.00  0.00    +0.000 A 
ATOM     20  F   UNL     1      46.462   2.067   6.725  0.00  0.00    +0.000 F 
ATOM     21  C   UNL     1      45.259   1.920   8.744  0.00  0.00    +0.000 A 
ATOM     22  C   UNL     1      44.729   2.549   9.873  0.00  0.00    +0.000 A 
ENDBRANCH  13  16
BRANCH  15  23
ATOM     23  O   UNL     1      45.653   2.907  12.691  0.00  0.00    +0.000 OA
ATOM     24  H   UNL     1      45.162   2.081  12.539  0.00  0.00    +0.000 HD
ENDBRANCH  15  23
ENDBRANCH   1  13
TORSDOF 5
ENDMDL
MODEL 8
REMARK VINA RESULT:    -5.555      1.951      2.912
REMARK INTER + INTRA:          -7.711
REMARK INTER:                  -7.073
REMARK INTRA:                  -0.638
REMARK UNBOUND:                -0.695
REMARK  Name = 
REMARK  5 active torsions:
REMARK  status: ('A' for Active; 'I' for Inactive)
REMARK    1  A    between atoms: C_2  and  C_4
REMARK    2  A    between atoms: C_7  and  C_8
REMARK    3  A    between atoms: C_8  and  C_9
REMARK    4  A    between atoms: C_9  and  C_10
REMARK    5  A    between atoms: C_18  and  O_19
REMARK                            x       y       z     vdW  Elec       q    Type
REMARK                         _______ _______ _______ _____ _____    ______ ____
ROOT
ATOM      1  C   UNL     1      45.045   5.105  12.384  0.00  0.00    +0.000 C 
ENDROOT
BRANCH   1   5
ATOM      2  C   UNL     1      45.685   3.834   8.418  0.00  0.00    +0.000 A 
ATOM      3  N   UNL     1      45.978   5.127   8.690  0.00  0.00    +0.000 NA
ATOM      4  C   UNL     1      45.740   5.520   9.958  0.00  0.00    +0.000 A 
ATOM      5  C   UNL     1      45.208   4.708  10.942  0.00  0.00    +0.000 A 
ATOM      6  C   UNL     1      44.949   3.410  10.532  0.00  0.00    +0.000 A 
ATOM      7  N   UNL     1      45.173   2.945   9.289  0.00  0.00    +0.000 NA
BRANCH   2   9
ATOM      8  N   UNL     1      47.240   3.779   6.533  0.00  0.00    +0.000 N 
ATOM      9  C   UNL     1      46.028   3.347   7.027  0.00  0.00    +0.000 C 
ATOM     10  O   UNL     1      45.318   2.604   6.361  0.00  0.00    +0.000 OA
ATOM     11  H   UNL     1      47.550   3.440   5.635  0.00  0.00    +0.000 HD
ATOM     12  H   UNL     1      47.844   4.358   7.105  0.00  0.00    +0.000 HD
ENDBRANCH   2   9
ENDBRANCH   1   5
BRANCH   1  13
ATOM     13  C   UNL     1      46.345   5.243  13.176  0.00  0.00    +0.000 C 
ATOM     14  C   UNL     1      47.123   3.972  13.494  0.00  0.00    +0.000 C 
ATOM     15  C   UNL     1      46.329   4.623  14.579  0.00  0.00    +0.000 C 
BRANCH  13  16
ATOM     16  C   UNL     1      47.109   6.556  12.991  0.00  0.00    +0.000 A 
ATOM     17  C   UNL     1      48.488   6.562  12.709  0.00  0.00    +0.000 A 
ATOM     18  C   UNL     1      49.182   7.753  12.477  0.00  0.00    +0.000 A 
ATOM     19  C   UNL     1      48.503   8.961  12.538  0.00  0.00    +0.000 A 
ATOM     20  F   UNL     1      49.156  10.104  12.291  0.00  0.00    +0.000 F 
ATOM     21  C   UNL     1      47.151   8.999  12.840  0.00  0.00    +0.000 A 
ATOM     22  C   UNL     1      46.462   7.805  13.065  0.00  0.00    +0.000 A 
ENDBRANCH  13  16
BRANCH  15  23
ATOM     23  O   UNL     1      47.088   5.266  15.616  0.00  0.00    +0.000 OA
ATOM     24  H   UNL     1      47.314   6.188  15.403  0.00  0.00    +0.000 HD
ENDBRANCH  15  23
ENDBRANCH   1  13
TORSDOF 5
ENDMDL
MODEL 9
REMARK VINA RESULT:    -5.544      4.796      6.634
REMARK INTER + INTRA:          -7.697
REMARK INTER:                  -7.484
REMARK INTRA:                  -0.213
REMARK UNBOUND:                -0.695
REMARK  Name = 
REMARK  5 active torsions:
REMARK  status: ('A' for Active; 'I' for Inactive)
REMARK    1  A    between atoms: C_2  and  C_4
REMARK    2  A    between atoms: C_7  and  C_8
REMARK    3  A    between atoms: C_8  and  C_9
REMARK    4  A    between atoms: C_9  and  C_10
REMARK    5  A    between atoms: C_18  and  O_19
REMARK                            x       y       z     vdW  Elec       q    Type
REMARK                         _______ _______ _______ _____ _____    ______ ____
ROOT
ATOM      1  C   UNL     1      48.001   5.410  15.694  0.00  0.00    +0.000 C 
ENDROOT
BRANCH   1   5
ATOM      2  C   UNL     1      45.575   3.889  12.603  0.00  0.00    +0.000 A 
ATOM      3  N   UNL     1      46.361   2.995  13.247  0.00  0.00    +0.000 NA
ATOM      4  C   UNL     1      47.149   3.508  14.213  0.00  0.00    +0.000 A 
ATOM      5  C   UNL     1      47.209   4.848  14.544  0.00  0.00    +0.000 A 
ATOM      6  C   UNL     1      46.359   5.657  13.808  0.00  0.00    +0.000 A 
ATOM      7  N   UNL     1      45.537   5.214  12.839  0.00  0.00    +0.000 NA
BRANCH   2   9
ATOM      8  N   UNL     1      43.614   2.525  12.083  0.00  0.00    +0.000 N 
ATOM      9  C   UNL     1      44.617   3.323  11.577  0.00  0.00    +0.000 C 
ATOM     10  O   UNL     1      44.680   3.551  10.376  0.00  0.00    +0.000 OA
ATOM     11  H   UNL     1      42.911   2.167  11.455  0.00  0.00    +0.000 HD
ATOM     12  H   UNL     1      43.541   2.376  13.083  0.00  0.00    +0.000 HD
ENDBRANCH   2   9
ENDBRANCH   1   5
BRANCH   1  13
ATOM     13  C   UNL     1      48.108   4.504  16.920  0.00  0.00    +0.000 C 
ATOM     14  C   UNL     1      46.848   3.787  17.389  0.00  0.00    +0.000 C 
ATOM     15  C   UNL     1      47.332   4.974  18.157  0.00  0.00    +0.000 C 
BRANCH  13  16
ATOM     16  C   UNL     1      49.469   3.842  17.149  0.00  0.00    +0.000 A 
ATOM     17  C   UNL     1      50.607   4.606  17.470  0.00  0.00    +0.000 A 
ATOM     18  C   UNL     1      51.839   4.006  17.742  0.00  0.00    +0.000 A 
ATOM     19  C   UNL     1      51.952   2.624  17.683  0.00  0.00    +0.000 A 
ATOM     20  F   UNL     1      53.124   2.041  17.968  0.00  0.00    +0.000 F 
ATOM     21  C   UNL     1      50.862   1.838  17.345  0.00  0.00    +0.000 A 
ATOM     22  C   UNL     1      49.632   2.444  17.080  0.00  0.00    +0.000 A 
ENDBRANCH  13  16
BRANCH  15  23
ATOM     23  O   UNL     1      47.888   4.703  19.454  0.00  0.00    +0.000 OA
ATOM     24  H   UNL     1      47.778   3.775  19.726  0.00  0.00    +0.000 HD
ENDBRANCH  15  23
ENDBRANCH   1  13
TORSDOF 5
ENDMDL
