MODEL 1
REMARK VINA RESULT:    -7.298      0.000      0.000
REMARK INTER + INTRA:         -11.395
REMARK INTER:                 -10.284
REMARK INTRA:                  -1.110
REMARK UNBOUND:                -1.110
REMARK  Name = 
REMARK  7 active torsions:
REMARK  status: ('A' for Active; 'I' for Inactive)
REMARK    1  A    between atoms: C_2  and  C_3
REMARK    2  A    between atoms: C_7  and  C_8
REMARK    3  A    between atoms: N_10  and  C_11
REMARK    4  A    between atoms: C_11  and  C_12
REMARK    5  A    between atoms: C_15  and  C_16
REMARK    6  A    between atoms: C_16  and  N_17
REMARK    7  A    between atoms: C_18  and  C_20
REMARK                            x       y       z     vdW  Elec       q    Type
REMARK                         _______ _______ _______ _____ _____    ______ ____
ROOT
ATOM      1  C   UNL     1      51.318   3.713  17.947  0.00  0.00    +0.000 A 
ATOM      2  C   UNL     1      50.434   4.792  18.069  0.00  0.00    +0.000 A 
ATOM      3  C   UNL     1      49.096   4.671  17.669  0.00  0.00    +0.000 A 
ATOM      4  C   UNL     1      48.608   3.460  17.158  0.00  0.00    +0.000 A 
ATOM      5  C   UNL     1      49.500   2.389  17.014  0.00  0.00    +0.000 A 
ATOM      6  C   UNL     1      50.834   2.509  17.418  0.00  0.00    +0.000 A 
ENDROOT
BRANCH   1   7
ATOM      7  C   UNL     1      52.762   3.839  18.363  0.00  0.00    +0.000 C 
BRANCH   7  10
ATOM      8  C   UNL     1      54.287   1.931  18.692  0.00  0.00    +0.000 C 
ATOM      9  O   UNL     1      54.273   2.050  19.912  0.00  0.00    +0.000 OA
ATOM     10  N   UNL     1      53.592   2.768  17.849  0.00  0.00    +0.000 N 
ATOM     11  H   UNL     1      53.731   2.710  16.849  0.00  0.00    +0.000 HD
BRANCH   8  16
ATOM     12  C   UNL     1      54.157  -0.364  17.648  0.00  0.00    +0.000 C 
ATOM     13  C   UNL     1      54.865  -1.070  16.487  0.00  0.00    +0.000 C 
ATOM     14  C   UNL     1      55.775  -0.030  15.841  0.00  0.00    +0.000 C 
ATOM     15  C   UNL     1      55.574   1.262  16.621  0.00  0.00    +0.000 C 
ATOM     16  C   UNL     1      55.063   0.825  17.991  0.00  0.00    +0.000 C 
BRANCH  12  18
ATOM     17  N   UNL     1      53.831  -2.000  19.682  0.00  0.00    +0.000 NA
ATOM     18  C   UNL     1      53.972  -1.261  18.793  0.00  0.00    +0.000 C 
ENDBRANCH  12  18
ENDBRANCH   8  16
ENDBRANCH   7  10
ENDBRANCH   1   7
BRANCH   4  19
ATOM     19  C   UNL     1      47.158   3.305  16.765  0.00  0.00    +0.000 C 
BRANCH  19  20
ATOM     20  N   UNL     1      46.749   4.308  15.813  0.00  0.00    +0.000 N 
ATOM     21  C   UNL     1      46.808   4.081  14.463  0.00  0.00    +0.000 C 
ATOM     22  O   UNL     1      47.154   3.002  13.991  0.00  0.00    +0.000 OA
ATOM     23  H   UNL     1      46.719   5.264  16.152  0.00  0.00    +0.000 HD
BRANCH  21  24
ATOM     24  C   UNL     1      46.369   5.188  13.599  0.00  0.00    +0.000 A 
ATOM     25  C   UNL     1      47.212   6.266  13.366  0.00  0.00    +0.000 A 
ATOM     26  S   UNL     1      46.554   7.426  12.300  0.00  0.00    +0.000 S 
ATOM     27  C   UNL     1      45.101   6.554  12.157  0.00  0.00    +0.000 A 
ATOM     28  N   UNL     1      44.076   7.016  11.391  0.00  0.00    +0.000 NA
ATOM     29  C   UNL     1      43.027   6.264  11.393  0.00  0.00    +0.000 A 
ATOM     30  N   UNL     1      42.909   5.087  12.087  0.00  0.00    +0.000 N 
ATOM     31  C   UNL     1      43.927   4.569  12.848  0.00  0.00    +0.000 A 
ATOM     32  O   UNL     1      43.807   3.487  13.416  0.00  0.00    +0.000 OA
ATOM     33  C   UNL     1      45.126   5.382  12.893  0.00  0.00    +0.000 A 
ATOM     34  H   UNL     1      42.066   4.536  12.038  0.00  0.00    +0.000 HD
ENDBRANCH  21  24
ENDBRANCH  19  20
ENDBRANCH   4  19
TORSDOF 7
ENDMDL
MODEL 2
REMARK VINA RESULT:    -7.168      3.331      5.111
REMARK INTER + INTRA:         -11.212
REMARK INTER:                  -9.928
REMARK INTRA:                  -1.284
REMARK UNBOUND:                -1.110
REMARK  Name = 
REMARK  7 active torsions:
REMARK  status: ('A' for Active; 'I' for Inactive)
REMARK    1  A    between atoms: C_2  and  C_3
REMARK    2  A    between atoms: C_7  and  C_8
REMARK    3  A    between atoms: N_10  and  C_11
REMARK    4  A    between atoms: C_11  and  C_12
REMARK    5  A    between atoms: C_15  and  C_16
REMARK    6  A    between atoms: C_16  and  N_17
REMARK    7  A    between atoms: C_18  and  C_20
REMARK                            x       y       z     vdW  Elec       q    Type
REMARK                         _______ _______ _______ _____ _____    ______ ____
ROOT
ATOM      1  C   UNL     1      50.352   7.353  15.128  0.00  0.00    +0.000 A 
ATOM      2  C   UNL     1      50.676   8.061  13.963  0.00  0.00    +0.000 A 
ATOM      3  C   UNL     1      49.758   8.166  12.910  0.00  0.00    +0.000 A 
ATOM      4  C   UNL     1      48.486   7.582  13.007  0.00  0.00    +0.000 A 
ATOM      5  C   UNL     1      48.173   6.854  14.162  0.00  0.00    +0.000 A 
ATOM      6  C   UNL     1      49.088   6.753  15.215  0.00  0.00    +0.000 A 
ENDROOT
BRANCH   1   7
ATOM      7  C   UNL     1      51.339   7.224  16.261  0.00  0.00    +0.000 C 
BRANCH   7  10
ATOM      8  C   UNL     1      50.944   5.486  17.963  0.00  0.00    +0.000 C 
ATOM      9  O   UNL     1      50.373   6.267  18.717  0.00  0.00    +0.000 OA
ATOM     10  N   UNL     1      51.465   5.865  16.747  0.00  0.00    +0.000 N 
ATOM     11  H   UNL     1      52.034   5.220  16.215  0.00  0.00    +0.000 HD
BRANCH   8  16
ATOM     12  C   UNL     1      50.404   3.120  17.267  0.00  0.00    +0.000 C 
ATOM     13  C   UNL     1      51.124   1.770  17.359  0.00  0.00    +0.000 C 
ATOM     14  C   UNL     1      52.501   2.056  17.951  0.00  0.00    +0.000 C 
ATOM     15  C   UNL     1      52.567   3.560  18.180  0.00  0.00    +0.000 C 
ATOM     16  C   UNL     1      51.113   4.011  18.295  0.00  0.00    +0.000 C 
BRANCH  12  18
ATOM     17  N   UNL     1      47.829   2.880  17.745  0.00  0.00    +0.000 NA
ATOM     18  C   UNL     1      48.972   2.988  17.552  0.00  0.00    +0.000 C 
ENDBRANCH  12  18
ENDBRANCH   8  16
ENDBRANCH   7  10
ENDBRANCH   1   7
BRANCH   4  19
ATOM     19  C   UNL     1      47.473   7.725  11.895  0.00  0.00    +0.000 C 
BRANCH  19  20
ATOM     20  N   UNL     1      46.782   6.487  11.635  0.00  0.00    +0.000 N 
ATOM     21  C   UNL     1      45.413   6.428  11.585  0.00  0.00    +0.000 C 
ATOM     22  O   UNL     1      44.706   7.425  11.700  0.00  0.00    +0.000 OA
ATOM     23  H   UNL     1      47.306   5.635  11.801  0.00  0.00    +0.000 HD
BRANCH  21  24
ATOM     24  C   UNL     1      44.831   5.103  11.320  0.00  0.00    +0.000 A 
ATOM     25  C   UNL     1      44.067   4.471  12.291  0.00  0.00    +0.000 A 
ATOM     26  S   UNL     1      43.432   2.968  11.787  0.00  0.00    +0.000 S 
ATOM     27  C   UNL     1      44.200   3.088  10.274  0.00  0.00    +0.000 A 
ATOM     28  N   UNL     1      44.083   2.100   9.346  0.00  0.00    +0.000 NA
ATOM     29  C   UNL     1      44.737   2.313   8.254  0.00  0.00    +0.000 A 
ATOM     30  N   UNL     1      45.492   3.429   7.999  0.00  0.00    +0.000 N 
ATOM     31  C   UNL     1      45.614   4.464   8.894  0.00  0.00    +0.000 A 
ATOM     32  O   UNL     1      46.257   5.472   8.614  0.00  0.00    +0.000 OA
ATOM     33  C   UNL     1      44.911   4.269  10.146  0.00  0.00    +0.000 A 
ATOM     34  H   UNL     1      45.970   3.545   7.118  0.00  0.00    +0.000 HD
ENDBRANCH  21  24
ENDBRANCH  19  20
ENDBRANCH   4  19
TORSDOF 7
ENDMDL
MODEL 3
REMARK VINA RESULT:    -6.895      3.368      5.090
REMARK INTER + INTRA:         -10.827
REMARK INTER:                  -9.604
REMARK INTRA:                  -1.223
REMARK UNBOUND:                -1.110
REMARK  Name = 
REMARK  7 active torsions:
REMARK  status: ('A' for Active; 'I' for Inactive)
REMARK    1  A    between atoms: C_2  and  C_3
REMARK    2  A    between atoms: C_7  and  C_8
REMARK    3  A    between atoms: N_10  and  C_11
REMARK    4  A    between atoms: C_11  and  C_12
REMARK    5  A    between atoms: C_15  and  C_16
REMARK    6  A    between atoms: C_16  and  N_17
REMARK    7  A    between atoms: C_18  and  C_20
REMARK                            x       y       z     vdW  Elec       q    Type
REMARK                         _______ _______ _______ _____ _____    ______ ____
ROOT
ATOM      1  C   UNL     1      48.693   7.653  16.320  0.00  0.00    +0.000 A 
ATOM      2  C   UNL     1      48.732   6.538  15.473  0.00  0.00    +0.000 A 
ATOM      3  C   UNL     1      48.531   6.679  14.093  0.00  0.00    +0.000 A 
ATOM      4  C   UNL     1      48.308   7.943  13.527  0.00  0.00    +0.000 A 
ATOM      5  C   UNL     1      48.245   9.054  14.379  0.00  0.00    +0.000 A 
ATOM      6  C   UNL     1      48.450   8.913  15.756  0.00  0.00    +0.000 A 
ENDROOT
BRANCH   1   7
ATOM      7  C   UNL     1      48.894   7.507  17.808  0.00  0.00    +0.000 C 
BRANCH   7  10
ATOM      8  C   UNL     1      49.306   5.223  18.636  0.00  0.00    +0.000 C 
ATOM      9  O   UNL     1      48.114   5.013  18.833  0.00  0.00    +0.000 OA
ATOM     10  N   UNL     1      49.786   6.418  18.151  0.00  0.00    +0.000 N 
ATOM     11  H   UNL     1      50.782   6.590  18.122  0.00  0.00    +0.000 HD
BRANCH   8  16
ATOM     12  C   UNL     1      51.011   3.688  17.583  0.00  0.00    +0.000 C 
ATOM     13  C   UNL     1      52.382   3.140  17.997  0.00  0.00    +0.000 C 
ATOM     14  C   UNL     1      52.726   3.802  19.327  0.00  0.00    +0.000 C 
ATOM     15  C   UNL     1      51.565   4.730  19.659  0.00  0.00    +0.000 C 
ATOM     16  C   UNL     1      50.372   4.167  18.892  0.00  0.00    +0.000 C 
BRANCH  12  18
ATOM     17  N   UNL     1      49.552   1.870  16.365  0.00  0.00    +0.000 NA
ATOM     18  C   UNL     1      50.199   2.663  16.919  0.00  0.00    +0.000 C 
ENDBRANCH  12  18
ENDBRANCH   8  16
ENDBRANCH   7  10
ENDBRANCH   1   7
BRANCH   4  19
ATOM     19  C   UNL     1      48.134   8.113  12.037  0.00  0.00    +0.000 C 
BRANCH  19  20
ATOM     20  N   UNL     1      47.461   6.985  11.442  0.00  0.00    +0.000 N 
ATOM     21  C   UNL     1      46.094   6.920  11.373  0.00  0.00    +0.000 C 
ATOM     22  O   UNL     1      45.372   7.836  11.756  0.00  0.00    +0.000 OA
ATOM     23  H   UNL     1      47.999   6.127  11.368  0.00  0.00    +0.000 HD
BRANCH  21  24
ATOM     24  C   UNL     1      45.532   5.712  10.749  0.00  0.00    +0.000 A 
ATOM     25  C   UNL     1      45.725   5.473   9.396  0.00  0.00    +0.000 A 
ATOM     26  S   UNL     1      45.046   4.000   8.861  0.00  0.00    +0.000 S 
ATOM     27  C   UNL     1      44.426   3.659  10.409  0.00  0.00    +0.000 A 
ATOM     28  N   UNL     1      43.703   2.531  10.643  0.00  0.00    +0.000 NA
ATOM     29  C   UNL     1      43.276   2.413  11.856  0.00  0.00    +0.000 A 
ATOM     30  N   UNL     1      43.512   3.317  12.860  0.00  0.00    +0.000 N 
ATOM     31  C   UNL     1      44.261   4.453  12.675  0.00  0.00    +0.000 A 
ATOM     32  O   UNL     1      44.496   5.216  13.608  0.00  0.00    +0.000 OA
ATOM     33  C   UNL     1      44.753   4.643  11.326  0.00  0.00    +0.000 A 
ATOM     34  H   UNL     1      43.162   3.162  13.793  0.00  0.00    +0.000 HD
ENDBRANCH  21  24
ENDBRANCH  19  20
ENDBRANCH   4  19
TORSDOF 7
ENDMDL
MODEL 4
REMARK VINA RESULT:    -6.539      2.873     10.733
REMARK INTER + INTRA:         -10.325
REMARK INTER:                  -9.403
REMARK INTRA:                  -0.922
REMARK UNBOUND:                -1.110
REMARK  Name = 
REMARK  7 active torsions:
REMARK  status: ('A' for Active; 'I' for Inactive)
REMARK    1  A    between atoms: C_2  and  C_3
REMARK    2  A    between atoms: C_7  and  C_8
REMARK    3  A    between atoms: N_10  and  C_11
REMARK    4  A    between atoms: C_11  and  C_12
REMARK    5  A    between atoms: C_15  and  C_16
REMARK    6  A    between atoms: C_16  and  N_17
REMARK    7  A    between atoms: C_18  and  C_20
REMARK                            x       y       z     vdW  Elec       q    Type
REMARK                         _______ _______ _______ _____ _____    ______ ____
ROOT
ATOM      1  C   UNL     1      48.674   3.398  17.083  0.00  0.00    +0.000 A 
ATOM      2  C   UNL     1      49.267   2.160  16.802  0.00  0.00    +0.000 A 
ATOM      3  C   UNL     1      50.611   1.921  17.118  0.00  0.00    +0.000 A 
ATOM      4  C   UNL     1      51.387   2.908  17.744  0.00  0.00    +0.000 A 
ATOM      5  C   UNL     1      50.799   4.153  18.001  0.00  0.00    +0.000 A 
ATOM      6  C   UNL     1      49.456   4.391  17.690  0.00  0.00    +0.000 A 
ENDROOT
BRANCH   1   7
ATOM      7  C   UNL     1      47.232   3.668  16.733  0.00  0.00    +0.000 C 
BRANCH   7  10
ATOM      8  C   UNL     1      47.080   4.181  14.327  0.00  0.00    +0.000 C 
ATOM      9  O   UNL     1      47.227   3.007  14.005  0.00  0.00    +0.000 OA
ATOM     10  N   UNL     1      47.085   4.604  15.636  0.00  0.00    +0.000 N 
ATOM     11  H   UNL     1      47.086   5.593  15.850  0.00  0.00    +0.000 HD
BRANCH   8  16
ATOM     12  C   UNL     1      45.377   5.666  13.203  0.00  0.00    +0.000 C 
ATOM     13  C   UNL     1      45.379   7.095  12.648  0.00  0.00    +0.000 C 
ATOM     14  C   UNL     1      46.748   7.681  12.976  0.00  0.00    +0.000 C 
ATOM     15  C   UNL     1      47.514   6.598  13.725  0.00  0.00    +0.000 C 
ATOM     16  C   UNL     1      46.859   5.285  13.303  0.00  0.00    +0.000 C 
BRANCH  12  18
ATOM     17  N   UNL     1      44.040   4.002  11.666  0.00  0.00    +0.000 NA
ATOM     18  C   UNL     1      44.633   4.750  12.331  0.00  0.00    +0.000 C 
ENDBRANCH  12  18
ENDBRANCH   8  16
ENDBRANCH   7  10
ENDBRANCH   1   7
BRANCH   4  19
ATOM     19  C   UNL     1      52.823   2.646  18.128  0.00  0.00    +0.000 C 
BRANCH  19  20
ATOM     20  N   UNL     1      53.312   1.409  17.572  0.00  0.00    +0.000 N 
ATOM     21  C   UNL     1      54.185   0.609  18.262  0.00  0.00    +0.000 C 
ATOM     22  O   UNL     1      54.553   0.867  19.405  0.00  0.00    +0.000 OA
ATOM     23  H   UNL     1      53.243   1.310  16.565  0.00  0.00    +0.000 HD
BRANCH  21  24
ATOM     24  C   UNL     1      54.614  -0.622  17.580  0.00  0.00    +0.000 A 
ATOM     25  C   UNL     1      55.245  -0.552  16.346  0.00  0.00    +0.000 A 
ATOM     26  S   UNL     1      55.716  -2.074  15.734  0.00  0.00    +0.000 S 
ATOM     27  C   UNL     1      55.045  -2.883  17.072  0.00  0.00    +0.000 A 
ATOM     28  N   UNL     1      55.086  -4.239  17.166  0.00  0.00    +0.000 NA
ATOM     29  C   UNL     1      54.518  -4.718  18.222  0.00  0.00    +0.000 A 
ATOM     30  N   UNL     1      53.919  -3.964  19.198  0.00  0.00    +0.000 N 
ATOM     31  C   UNL     1      53.880  -2.592  19.159  0.00  0.00    +0.000 A 
ATOM     32  O   UNL     1      53.380  -1.945  20.074  0.00  0.00    +0.000 OA
ATOM     33  C   UNL     1      54.491  -2.002  17.984  0.00  0.00    +0.000 A 
ATOM     34  H   UNL     1      53.503  -4.397  20.009  0.00  0.00    +0.000 HD
ENDBRANCH  21  24
ENDBRANCH  19  20
ENDBRANCH   4  19
TORSDOF 7
ENDMDL
MODEL 5
REMARK VINA RESULT:    -6.531      6.776      7.962
REMARK INTER + INTRA:         -10.314
REMARK INTER:                  -9.229
REMARK INTRA:                  -1.086
REMARK UNBOUND:                -1.110
REMARK  Name = 
REMARK  7 active torsions:
REMARK  status: ('A' for Active; 'I' for Inactive)
REMARK    1  A    between atoms: C_2  and  C_3
REMARK    2  A    between atoms: C_7  and  C_8
REMARK    3  A    between atoms: N_10  and  C_11
REMARK    4  A    between atoms: C_11  and  C_12
REMARK    5  A    between atoms: C_15  and  C_16
REMARK    6  A    between atoms: C_16  and  N_17
REMARK    7  A    between atoms: C_18  and  C_20
REMARK                            x       y       z     vdW  Elec       q    Type
REMARK                         _______ _______ _______ _____ _____    ______ ____
ROOT
ATOM      1  C   UNL     1      50.320   8.984  11.590  0.00  0.00    +0.000 A 
ATOM      2  C   UNL     1      49.385  10.025  11.652  0.00  0.00    +0.000 A 
ATOM      3  C   UNL     1      48.027   9.757  11.875  0.00  0.00    +0.000 A 
ATOM      4  C   UNL     1      47.578   8.441  12.061  0.00  0.00    +0.000 A 
ATOM      5  C   UNL     1      48.511   7.400  11.974  0.00  0.00    +0.000 A 
ATOM      6  C   UNL     1      49.867   7.668  11.756  0.00  0.00    +0.000 A 
ENDROOT
BRANCH   1   7
ATOM      7  C   UNL     1      51.780   9.264  11.337  0.00  0.00    +0.000 C 
BRANCH   7  10
ATOM      8  C   UNL     1      53.707   8.352  10.099  0.00  0.00    +0.000 C 
ATOM      9  O   UNL     1      54.511   9.034  10.726  0.00  0.00    +0.000 OA
ATOM     10  N   UNL     1      52.349   8.407  10.316  0.00  0.00    +0.000 N 
ATOM     11  H   UNL     1      51.716   7.922   9.694  0.00  0.00    +0.000 HD
BRANCH   8  16
ATOM     12  C   UNL     1      53.566   5.963   9.296  0.00  0.00    +0.000 C 
ATOM     13  C   UNL     1      53.561   5.276   7.926  0.00  0.00    +0.000 C 
ATOM     14  C   UNL     1      53.567   6.392   6.886  0.00  0.00    +0.000 C 
ATOM     15  C   UNL     1      53.561   7.704   7.660  0.00  0.00    +0.000 C 
ATOM     16  C   UNL     1      54.140   7.360   9.030  0.00  0.00    +0.000 C 
BRANCH  12  18
ATOM     17  N   UNL     1      55.011   4.601  11.021  0.00  0.00    +0.000 NA
ATOM     18  C   UNL     1      54.370   5.217  10.271  0.00  0.00    +0.000 C 
ENDBRANCH  12  18
ENDBRANCH   8  16
ENDBRANCH   7  10
ENDBRANCH   1   7
BRANCH   4  19
ATOM     19  C   UNL     1      46.125   8.144  12.345  0.00  0.00    +0.000 C 
BRANCH  19  20
ATOM     20  N   UNL     1      45.781   6.783  12.016  0.00  0.00    +0.000 N 
ATOM     21  C   UNL     1      44.537   6.453  11.543  0.00  0.00    +0.000 C 
ATOM     22  O   UNL     1      43.673   7.296  11.320  0.00  0.00    +0.000 OA
ATOM     23  H   UNL     1      46.358   6.059  12.430  0.00  0.00    +0.000 HD
BRANCH  21  24
ATOM     24  C   UNL     1      44.310   5.029  11.253  0.00  0.00    +0.000 A 
ATOM     25  C   UNL     1      43.544   4.256  12.114  0.00  0.00    +0.000 A 
ATOM     26  S   UNL     1      43.347   2.643  11.589  0.00  0.00    +0.000 S 
ATOM     27  C   UNL     1      44.322   2.911  10.221  0.00  0.00    +0.000 A 
ATOM     28  N   UNL     1      44.586   1.909   9.339  0.00  0.00    +0.000 NA
ATOM     29  C   UNL     1      45.358   2.248   8.361  0.00  0.00    +0.000 A 
ATOM     30  N   UNL     1      45.885   3.500   8.179  0.00  0.00    +0.000 N 
ATOM     31  C   UNL     1      45.623   4.547   9.027  0.00  0.00    +0.000 A 
ATOM     32  O   UNL     1      46.071   5.669   8.807  0.00  0.00    +0.000 OA
ATOM     33  C   UNL     1      44.772   4.218  10.153  0.00  0.00    +0.000 A 
ATOM     34  H   UNL     1      46.473   3.706   7.386  0.00  0.00    +0.000 HD
ENDBRANCH  21  24
ENDBRANCH  19  20
ENDBRANCH   4  19
TORSDOF 7
ENDMDL
MODEL 6
REMARK VINA RESULT:    -6.510      3.338     10.007
REMARK INTER + INTRA:         -10.284
REMARK INTER:                  -9.227
REMARK INTRA:                  -1.058
REMARK UNBOUND:                -1.110
REMARK  Name = 
REMARK  7 active torsions:
REMARK  status: ('A' for Active; 'I' for Inactive)
REMARK    1  A    between atoms: C_2  and  C_3
REMARK    2  A    between atoms: C_7  and  C_8
REMARK    3  A    between atoms: N_10  and  C_11
REMARK    4  A    between atoms: C_11  and  C_12
REMARK    5  A    between atoms: C_15  and  C_16
REMARK    6  A    between atoms: C_16  and  N_17
REMARK    7  A    between atoms: C_18  and  C_20
REMARK                            x       y       z     vdW  Elec       q    Type
REMARK                         _______ _______ _______ _____ _____    ______ ____
ROOT
ATOM      1  C   UNL     1      47.592   7.427  13.194  0.00  0.00    +0.000 A 
ATOM      2  C   UNL     1      47.923   6.258  13.892  0.00  0.00    +0.000 A 
ATOM      3  C   UNL     1      48.451   6.323  15.188  0.00  0.00    +0.000 A 
ATOM      4  C   UNL     1      48.640   7.559  15.824  0.00  0.00    +0.000 A 
ATOM      5  C   UNL     1      48.332   8.727  15.115  0.00  0.00    +0.000 A 
ATOM      6  C   UNL     1      47.800   8.662  13.822  0.00  0.00    +0.000 A 
ENDROOT
BRANCH   1   7
ATOM      7  C   UNL     1      47.036   7.366  11.793  0.00  0.00    +0.000 C 
BRANCH   7  10
ATOM      8  C   UNL     1      44.807   6.412  11.349  0.00  0.00    +0.000 C 
ATOM      9  O   UNL     1      44.272   7.515  11.323  0.00  0.00    +0.000 OA
ATOM     10  N   UNL     1      46.150   6.237  11.588  0.00  0.00    +0.000 N 
ATOM     11  H   UNL     1      46.524   5.307  11.724  0.00  0.00    +0.000 HD
BRANCH   8  16
ATOM     12  C   UNL     1      44.940   4.028  10.531  0.00  0.00    +0.000 C 
ATOM     13  C   UNL     1      44.234   2.716  10.889  0.00  0.00    +0.000 C 
ATOM     14  C   UNL     1      43.325   3.026  12.074  0.00  0.00    +0.000 C 
ATOM     15  C   UNL     1      43.524   4.502  12.395  0.00  0.00    +0.000 C 
ATOM     16  C   UNL     1      44.032   5.126  11.099  0.00  0.00    +0.000 C 
BRANCH  12  18
ATOM     17  N   UNL     1      45.235   4.274   7.929  0.00  0.00    +0.000 NA
ATOM     18  C   UNL     1      45.123   4.163   9.082  0.00  0.00    +0.000 C 
ENDBRANCH  12  18
ENDBRANCH   8  16
ENDBRANCH   7  10
ENDBRANCH   1   7
BRANCH   4  19
ATOM     19  C   UNL     1      49.168   7.639  17.236  0.00  0.00    +0.000 C 
BRANCH  19  20
ATOM     20  N   UNL     1      50.179   6.643  17.490  0.00  0.00    +0.000 N 
ATOM     21  C   UNL     1      50.045   5.728  18.502  0.00  0.00    +0.000 C 
ATOM     22  O   UNL     1      49.041   5.667  19.206  0.00  0.00    +0.000 OA
ATOM     23  H   UNL     1      51.103   6.834  17.118  0.00  0.00    +0.000 HD
BRANCH  21  24
ATOM     24  C   UNL     1      51.150   4.770  18.661  0.00  0.00    +0.000 A 
ATOM     25  C   UNL     1      52.269   5.115  19.406  0.00  0.00    +0.000 A 
ATOM     26  S   UNL     1      53.422   3.862  19.524  0.00  0.00    +0.000 S 
ATOM     27  C   UNL     1      52.490   2.836  18.537  0.00  0.00    +0.000 A 
ATOM     28  N   UNL     1      52.923   1.587  18.215  0.00  0.00    +0.000 NA
ATOM     29  C   UNL     1      52.126   0.929  17.442  0.00  0.00    +0.000 A 
ATOM     30  N   UNL     1      50.930   1.401  16.967  0.00  0.00    +0.000 N 
ATOM     31  C   UNL     1      50.441   2.643  17.290  0.00  0.00    +0.000 A 
ATOM     32  O   UNL     1      49.342   3.016  16.887  0.00  0.00    +0.000 OA
ATOM     33  C   UNL     1      51.304   3.432  18.145  0.00  0.00    +0.000 A 
ATOM     34  H   UNL     1      50.343   0.832  16.375  0.00  0.00    +0.000 HD
ENDBRANCH  21  24
ENDBRANCH  19  20
ENDBRANCH   4  19
TORSDOF 7
ENDMDL
MODEL 7
REMARK VINA RESULT:    -6.495      1.778      2.597
REMARK INTER + INTRA:         -10.264
REMARK INTER:                  -9.093
REMARK INTRA:                  -1.170
REMARK UNBOUND:                -1.110
REMARK  Name = 
REMARK  7 active torsions:
REMARK  status: ('A' for Active; 'I' for Inactive)
REMARK    1  A    between atoms: C_2  and  C_3
REMARK    2  A    between atoms: C_7  and  C_8
REMARK    3  A    between atoms: N_10  and  C_11
REMARK    4  A    between atoms: C_11  and  C_12
REMARK    5  A    between atoms: C_15  and  C_16
REMARK    6  A    between atoms: C_16  and  N_17
REMARK    7  A    between atoms: C_18  and  C_20
REMARK                            x       y       z     vdW  Elec       q    Type
REMARK                         _______ _______ _______ _____ _____    ______ ____
ROOT
ATOM      1  C   UNL     1      51.443   3.387  17.771  0.00  0.00    +0.000 A 
ATOM      2  C   UNL     1      50.664   4.541  17.924  0.00  0.00    +0.000 A 
ATOM      3  C   UNL     1      49.307   4.541  17.575  0.00  0.00    +0.000 A 
ATOM      4  C   UNL     1      48.693   3.380  17.083  0.00  0.00    +0.000 A 
ATOM      5  C   UNL     1      49.479   2.234  16.907  0.00  0.00    +0.000 A 
ATOM      6  C   UNL     1      50.833   2.232  17.261  0.00  0.00    +0.000 A 
ENDROOT
BRANCH   1   7
ATOM      7  C   UNL     1      52.907   3.382  18.132  0.00  0.00    +0.000 C 
BRANCH   7  10
ATOM      8  C   UNL     1      54.812   1.973  17.454  0.00  0.00    +0.000 C 
ATOM      9  O   UNL     1      55.492   2.940  17.129  0.00  0.00    +0.000 OA
ATOM     10  N   UNL     1      53.530   2.088  17.941  0.00  0.00    +0.000 N 
ATOM     11  H   UNL     1      52.963   1.261  18.079  0.00  0.00    +0.000 HD
BRANCH   8  16
ATOM     12  C   UNL     1      54.537  -0.397  18.280  0.00  0.00    +0.000 C 
ATOM     13  C   UNL     1      54.740  -1.789  17.672  0.00  0.00    +0.000 C 
ATOM     14  C   UNL     1      55.118  -1.570  16.211  0.00  0.00    +0.000 C 
ATOM     15  C   UNL     1      55.116  -0.063  15.987  0.00  0.00    +0.000 C 
ATOM     16  C   UNL     1      55.334   0.546  17.370  0.00  0.00    +0.000 C 
BRANCH  12  18
ATOM     17  N   UNL     1      55.360  -0.267  20.775  0.00  0.00    +0.000 NA
ATOM     18  C   UNL     1      55.004  -0.342  19.669  0.00  0.00    +0.000 C 
ENDBRANCH  12  18
ENDBRANCH   8  16
ENDBRANCH   7  10
ENDBRANCH   1   7
BRANCH   4  19
ATOM     19  C   UNL     1      47.222   3.357  16.744  0.00  0.00    +0.000 C 
BRANCH  19  20
ATOM     20  N   UNL     1      46.866   4.405  15.821  0.00  0.00    +0.000 N 
ATOM     21  C   UNL     1      46.914   4.212  14.464  0.00  0.00    +0.000 C 
ATOM     22  O   UNL     1      47.204   3.129  13.964  0.00  0.00    +0.000 OA
ATOM     23  H   UNL     1      46.885   5.352  16.184  0.00  0.00    +0.000 HD
BRANCH  21  24
ATOM     24  C   UNL     1      46.534   5.363  13.631  0.00  0.00    +0.000 A 
ATOM     25  C   UNL     1      45.347   5.341  12.912  0.00  0.00    +0.000 A 
ATOM     26  S   UNL     1      45.048   6.781  12.046  0.00  0.00    +0.000 S 
ATOM     27  C   UNL     1      46.521   7.461  12.558  0.00  0.00    +0.000 A 
ATOM     28  N   UNL     1      46.903   8.702  12.150  0.00  0.00    +0.000 NA
ATOM     29  C   UNL     1      48.053   9.081  12.598  0.00  0.00    +0.000 A 
ATOM     30  N   UNL     1      48.855   8.336  13.424  0.00  0.00    +0.000 N 
ATOM     31  C   UNL     1      48.497   7.093  13.883  0.00  0.00    +0.000 A 
ATOM     32  O   UNL     1      49.216   6.474  14.663  0.00  0.00    +0.000 OA
ATOM     33  C   UNL     1      47.219   6.611  13.399  0.00  0.00    +0.000 A 
ATOM     34  H   UNL     1      49.739   8.694  13.751  0.00  0.00    +0.000 HD
ENDBRANCH  21  24
ENDBRANCH  19  20
ENDBRANCH   4  19
TORSDOF 7
ENDMDL
MODEL 8
REMARK VINA RESULT:    -5.837      2.430      3.750
REMARK INTER + INTRA:          -9.337
REMARK INTER:                  -8.331
REMARK INTRA:                  -1.006
REMARK UNBOUND:                -1.110
REMARK  Name = 
REMARK  7 active torsions:
REMARK  status: ('A' for Active; 'I' for Inactive)
REMARK    1  A    between atoms: C_2  and  C_3
REMARK    2  A    between atoms: C_7  and  C_8
REMARK    3  A    between atoms: N_10  and  C_11
REMARK    4  A    between atoms: C_11  and  C_12
REMARK    5  A    between atoms: C_15  and  C_16
REMARK    6  A    between atoms: C_16  and  N_17
REMARK    7  A    between atoms: C_18  and  C_20
REMARK                            x       y       z     vdW  Elec       q    Type
REMARK                         _______ _______ _______ _____ _____    ______ ____
ROOT
ATOM      1  C   UNL     1      52.942   1.521  17.828  0.00  0.00    +0.000 A 
ATOM      2  C   UNL     1      53.253   2.803  18.300  0.00  0.00    +0.000 A 
ATOM      3  C   UNL     1      52.277   3.808  18.341  0.00  0.00    +0.000 A 
ATOM      4  C   UNL     1      50.962   3.547  17.929  0.00  0.00    +0.000 A 
ATOM      5  C   UNL     1      50.659   2.272  17.434  0.00  0.00    +0.000 A 
ATOM      6  C   UNL     1      51.632   1.267  17.398  0.00  0.00    +0.000 A 
ENDROOT
BRANCH   1   7
ATOM      7  C   UNL     1      53.989   0.438  17.768  0.00  0.00    +0.000 C 
BRANCH   7  10
ATOM      8  C   UNL     1      53.821  -1.571  19.186  0.00  0.00    +0.000 C 
ATOM      9  O   UNL     1      54.630  -1.140  20.000  0.00  0.00    +0.000 OA
ATOM     10  N   UNL     1      53.455  -0.879  18.055  0.00  0.00    +0.000 N 
ATOM     11  H   UNL     1      52.881  -1.323  17.350  0.00  0.00    +0.000 HD
BRANCH   8  16
ATOM     12  C   UNL     1      54.076  -4.080  19.077  0.00  0.00    +0.000 C 
ATOM     13  C   UNL     1      53.477  -5.267  19.839  0.00  0.00    +0.000 C 
ATOM     14  C   UNL     1      52.603  -4.674  20.940  0.00  0.00    +0.000 C 
ATOM     15  C   UNL     1      52.717  -3.161  20.813  0.00  0.00    +0.000 C 
ATOM     16  C   UNL     1      53.124  -2.913  19.363  0.00  0.00    +0.000 C 
BRANCH  12  18
ATOM     17  N   UNL     1      54.246  -4.560  16.496  0.00  0.00    +0.000 NA
ATOM     18  C   UNL     1      54.185  -4.360  17.641  0.00  0.00    +0.000 C 
ENDBRANCH  12  18
ENDBRANCH   8  16
ENDBRANCH   7  10
ENDBRANCH   1   7
BRANCH   4  19
ATOM     19  C   UNL     1      49.893   4.610  18.009  0.00  0.00    +0.000 C 
BRANCH  19  20
ATOM     20  N   UNL     1      49.384   4.960  16.707  0.00  0.00    +0.000 N 
ATOM     21  C   UNL     1      48.954   6.230  16.422  0.00  0.00    +0.000 C 
ATOM     22  O   UNL     1      49.031   7.148  17.234  0.00  0.00    +0.000 OA
ATOM     23  H   UNL     1      49.066   4.191  16.126  0.00  0.00    +0.000 HD
BRANCH  21  24
ATOM     24  C   UNL     1      48.450   6.455  15.059  0.00  0.00    +0.000 A 
ATOM     25  C   UNL     1      48.919   7.525  14.310  0.00  0.00    +0.000 A 
ATOM     26  S   UNL     1      48.261   7.596  12.736  0.00  0.00    +0.000 S 
ATOM     27  C   UNL     1      47.287   6.231  13.021  0.00  0.00    +0.000 A 
ATOM     28  N   UNL     1      46.442   5.758  12.066  0.00  0.00    +0.000 NA
ATOM     29  C   UNL     1      45.748   4.731  12.427  0.00  0.00    +0.000 A 
ATOM     30  N   UNL     1      45.827   4.127  13.655  0.00  0.00    +0.000 N 
ATOM     31  C   UNL     1      46.686   4.552  14.639  0.00  0.00    +0.000 A 
ATOM     32  O   UNL     1      46.768   3.957  15.710  0.00  0.00    +0.000 OA
ATOM     33  C   UNL     1      47.480   5.713  14.290  0.00  0.00    +0.000 A 
ATOM     34  H   UNL     1      45.266   3.317  13.874  0.00  0.00    +0.000 HD
ENDBRANCH  21  24
ENDBRANCH  19  20
ENDBRANCH   4  19
TORSDOF 7
ENDMDL
