MODEL 1
REMARK VINA RESULT:    -8.627      0.000      0.000
REMARK INTER + INTRA:         -12.534
REMARK INTER:                 -11.653
REMARK INTRA:                  -0.881
REMARK UNBOUND:                -0.881
REMARK  Name = 
REMARK  6 active torsions:
REMARK  status: ('A' for Active; 'I' for Inactive)
REMARK    1  A    between atoms: C_2  and  C_4
REMARK    2  A    between atoms: C_2  and  C_14
REMARK    3  A    between atoms: C_4  and  O_5
REMARK    4  A    between atoms: O_5  and  C_6
REMARK    5  A    between atoms: C_18  and  O_19
REMARK    6  A    between atoms: O_19  and  C_20
REMARK                            x       y       z     vdW  Elec       q    Type
REMARK                         _______ _______ _______ _____ _____    ______ ____
ROOT
ATOM      1  F   UNL     1      42.833   4.890  13.195  0.00  0.00    +0.000 F 
ATOM      2  C   UNL     1      43.819   4.262  12.479  0.00  0.00    +0.000 C 
ATOM      3  F   UNL     1      43.811   2.966  12.910  0.00  0.00    +0.000 F 
ENDROOT
BRANCH   2   4
ATOM      4  C   UNL     1      45.177   4.914  12.701  0.00  0.00    +0.000 A 
ATOM      5  C   UNL     1      45.628   5.846  11.768  0.00  0.00    +0.000 A 
ATOM      6  C   UNL     1      46.862   6.458  11.969  0.00  0.00    +0.000 A 
ATOM      7  C   UNL     1      47.608   6.126  13.096  0.00  0.00    +0.000 A 
ATOM      8  C   UNL     1      47.083   5.202  13.983  0.00  0.00    +0.000 A 
ATOM      9  N   UNL     1      45.892   4.595  13.819  0.00  0.00    +0.000 NA
BRANCH   8  10
ATOM     10  O   UNL     1      47.854   4.853  15.076  0.00  0.00    +0.000 OA
BRANCH  10  11
ATOM     11  C   UNL     1      47.264   3.886  15.979  0.00  0.00    +0.000 C 
ATOM     12  C   UNL     1      47.123   4.339  17.440  0.00  0.00    +0.000 C 
ATOM     13  O   UNL     1      47.785   3.149  17.927  0.00  0.00    +0.000 OA
ATOM     14  C   UNL     1      48.139   2.774  16.575  0.00  0.00    +0.000 C 
ENDBRANCH  10  11
ENDBRANCH   8  10
ENDBRANCH   2   4
BRANCH   2  15
ATOM     15  C   UNL     1      43.422   4.298  10.999  0.00  0.00    +0.000 C 
BRANCH  15  16
ATOM     16  O   UNL     1      43.695   3.027  10.394  0.00  0.00    +0.000 OA
BRANCH  16  17
ATOM     17  C   UNL     1      44.566   3.027   9.346  0.00  0.00    +0.000 A 
ATOM     18  C   UNL     1      44.920   4.119   8.557  0.00  0.00    +0.000 A 
ATOM     19  N   UNL     1      45.799   4.056   7.533  0.00  0.00    +0.000 NA
ATOM     20  C   UNL     1      46.354   2.847   7.281  0.00  0.00    +0.000 A 
ATOM     21 CL   UNL     1      47.472   2.887   5.975  0.00  0.00    +0.000 Cl
ATOM     22  C   UNL     1      46.058   1.693   8.000  0.00  0.00    +0.000 A 
ATOM     23 CL   UNL     1      46.762   0.159   7.659  0.00  0.00    +0.000 Cl
ATOM     24  C   UNL     1      45.147   1.795   9.048  0.00  0.00    +0.000 A 
ENDBRANCH  16  17
ENDBRANCH  15  16
ENDBRANCH   2  15
TORSDOF 6
ENDMDL
MODEL 2
REMARK VINA RESULT:    -7.950      1.176      1.838
REMARK INTER + INTRA:         -11.619
REMARK INTER:                 -10.827
REMARK INTRA:                  -0.792
REMARK UNBOUND:                -0.881
REMARK  Name = 
REMARK  6 active torsions:
REMARK  status: ('A' for Active; 'I' for Inactive)
REMARK    1  A    between atoms: C_2  and  C_4
REMARK    2  A    between atoms: C_2  and  C_14
REMARK    3  A    between atoms: C_4  and  O_5
REMARK    4  A    between atoms: O_5  and  C_6
REMARK    5  A    between atoms: C_18  and  O_19
REMARK    6  A    between atoms: O_19  and  C_20
REMARK                            x       y       z     vdW  Elec       q    Type
REMARK                         _______ _______ _______ _____ _____    ______ ____
ROOT
ATOM      1  F   UNL     1      43.272   6.590  11.398  0.00  0.00    +0.000 F 
ATOM      2  C   UNL     1      43.545   5.469  12.137  0.00  0.00    +0.000 C 
ATOM      3  F   UNL     1      42.592   5.439  13.115  0.00  0.00    +0.000 F 
ENDROOT
BRANCH   2   4
ATOM      4  C   UNL     1      44.947   5.512  12.727  0.00  0.00    +0.000 A 
ATOM      5  C   UNL     1      45.710   6.665  12.547  0.00  0.00    +0.000 A 
ATOM      6  C   UNL     1      46.989   6.720  13.095  0.00  0.00    +0.000 A 
ATOM      7  C   UNL     1      47.468   5.626  13.808  0.00  0.00    +0.000 A 
ATOM      8  C   UNL     1      46.643   4.525  13.956  0.00  0.00    +0.000 A 
ATOM      9  N   UNL     1      45.401   4.441  13.441  0.00  0.00    +0.000 NA
BRANCH   8  10
ATOM     10  O   UNL     1      47.149   3.431  14.633  0.00  0.00    +0.000 OA
BRANCH  10  11
ATOM     11  C   UNL     1      47.870   3.725  15.854  0.00  0.00    +0.000 C 
ATOM     12  C   UNL     1      48.464   2.512  16.585  0.00  0.00    +0.000 C 
ATOM     13  O   UNL     1      47.853   2.900  17.836  0.00  0.00    +0.000 OA
ATOM     14  C   UNL     1      47.094   3.933  17.162  0.00  0.00    +0.000 C 
ENDBRANCH  10  11
ENDBRANCH   8  10
ENDBRANCH   2   4
BRANCH   2  15
ATOM     15  C   UNL     1      43.363   4.249  11.226  0.00  0.00    +0.000 C 
BRANCH  15  16
ATOM     16  O   UNL     1      43.799   4.567   9.898  0.00  0.00    +0.000 OA
BRANCH  16  17
ATOM     17  C   UNL     1      44.561   3.630   9.267  0.00  0.00    +0.000 A 
ATOM     18  C   UNL     1      44.717   2.297   9.636  0.00  0.00    +0.000 A 
ATOM     19  N   UNL     1      45.484   1.412   8.961  0.00  0.00    +0.000 NA
ATOM     20  C   UNL     1      46.127   1.877   7.864  0.00  0.00    +0.000 A 
ATOM     21 CL   UNL     1      47.053   0.664   7.072  0.00  0.00    +0.000 Cl
ATOM     22  C   UNL     1      46.050   3.192   7.420  0.00  0.00    +0.000 A 
ATOM     23 CL   UNL     1      46.885   3.773   6.030  0.00  0.00    +0.000 Cl
ATOM     24  C   UNL     1      45.251   4.078   8.140  0.00  0.00    +0.000 A 
ENDBRANCH  16  17
ENDBRANCH  15  16
ENDBRANCH   2  15
TORSDOF 6
ENDMDL
MODEL 3
REMARK VINA RESULT:    -7.586      1.567      1.808
REMARK INTER + INTRA:         -11.128
REMARK INTER:                 -10.362
REMARK INTRA:                  -0.767
REMARK UNBOUND:                -0.881
REMARK  Name = 
REMARK  6 active torsions:
REMARK  status: ('A' for Active; 'I' for Inactive)
REMARK    1  A    between atoms: C_2  and  C_4
REMARK    2  A    between atoms: C_2  and  C_14
REMARK    3  A    between atoms: C_4  and  O_5
REMARK    4  A    between atoms: O_5  and  C_6
REMARK    5  A    between atoms: C_18  and  O_19
REMARK    6  A    between atoms: O_19  and  C_20
REMARK                            x       y       z     vdW  Elec       q    Type
REMARK                         _______ _______ _______ _____ _____    ______ ____
ROOT
ATOM      1  F   UNL     1      43.775   5.621  11.010  0.00  0.00    +0.000 F 
ATOM      2  C   UNL     1      44.418   4.935  12.006  0.00  0.00    +0.000 C 
ATOM      3  F   UNL     1      43.573   4.974  13.078  0.00  0.00    +0.000 F 
ENDROOT
BRANCH   2   4
ATOM      4  C   UNL     1      45.767   5.558  12.338  0.00  0.00    +0.000 A 
ATOM      5  C   UNL     1      46.320   6.468  11.437  0.00  0.00    +0.000 A 
ATOM      6  C   UNL     1      47.545   7.055  11.738  0.00  0.00    +0.000 A 
ATOM      7  C   UNL     1      48.183   6.721  12.929  0.00  0.00    +0.000 A 
ATOM      8  C   UNL     1      47.562   5.821  13.777  0.00  0.00    +0.000 A 
ATOM      9  N   UNL     1      46.375   5.238  13.517  0.00  0.00    +0.000 NA
BRANCH   8  10
ATOM     10  O   UNL     1      48.226   5.469  14.937  0.00  0.00    +0.000 OA
BRANCH  10  11
ATOM     11  C   UNL     1      48.664   6.570  15.770  0.00  0.00    +0.000 C 
ATOM     12  C   UNL     1      50.178   6.657  16.016  0.00  0.00    +0.000 C 
ATOM     13  O   UNL     1      49.994   6.737  17.448  0.00  0.00    +0.000 OA
ATOM     14  C   UNL     1      48.584   6.443  17.298  0.00  0.00    +0.000 C 
ENDBRANCH  10  11
ENDBRANCH   8  10
ENDBRANCH   2   4
BRANCH   2  15
ATOM     15  C   UNL     1      44.577   3.480  11.549  0.00  0.00    +0.000 C 
BRANCH  15  16
ATOM     16  O   UNL     1      44.013   3.320  10.240  0.00  0.00    +0.000 OA
BRANCH  16  17
ATOM     17  C   UNL     1      44.894   3.176   9.211  0.00  0.00    +0.000 A 
ATOM     18  C   UNL     1      45.391   4.187   8.393  0.00  0.00    +0.000 A 
ATOM     19  N   UNL     1      46.273   3.981   7.390  0.00  0.00    +0.000 NA
ATOM     20  C   UNL     1      46.682   2.705   7.193  0.00  0.00    +0.000 A 
ATOM     21 CL   UNL     1      47.818   2.562   5.911  0.00  0.00    +0.000 Cl
ATOM     22  C   UNL     1      46.237   1.623   7.945  0.00  0.00    +0.000 A 
ATOM     23 CL   UNL     1      46.756   0.004   7.674  0.00  0.00    +0.000 Cl
ATOM     24  C   UNL     1      45.327   1.873   8.970  0.00  0.00    +0.000 A 
ENDBRANCH  16  17
ENDBRANCH  15  16
ENDBRANCH   2  15
TORSDOF 6
ENDMDL
MODEL 4
REMARK VINA RESULT:    -7.525      3.951      7.540
REMARK INTER + INTRA:         -11.045
REMARK INTER:                 -10.498
REMARK INTRA:                  -0.548
REMARK UNBOUND:                -0.881
REMARK  Name = 
REMARK  6 active torsions:
REMARK  status: ('A' for Active; 'I' for Inactive)
REMARK    1  A    between atoms: C_2  and  C_4
REMARK    2  A    between atoms: C_2  and  C_14
REMARK    3  A    between atoms: C_4  and  O_5
REMARK    4  A    between atoms: O_5  and  C_6
REMARK    5  A    between atoms: C_18  and  O_19
REMARK    6  A    between atoms: O_19  and  C_20
REMARK                            x       y       z     vdW  Elec       q    Type
REMARK                         _______ _______ _______ _____ _____    ______ ____
ROOT
ATOM      1  F   UNL     1      43.317   6.451  11.413  0.00  0.00    +0.000 F 
ATOM      2  C   UNL     1      44.613   6.010  11.343  0.00  0.00    +0.000 C 
ATOM      3  F   UNL     1      45.337   7.082  10.901  0.00  0.00    +0.000 F 
ENDROOT
BRANCH   2   4
ATOM      4  C   UNL     1      44.753   4.819  10.406  0.00  0.00    +0.000 A 
ATOM      5  C   UNL     1      44.089   3.636  10.728  0.00  0.00    +0.000 A 
ATOM      6  C   UNL     1      44.198   2.546   9.870  0.00  0.00    +0.000 A 
ATOM      7  C   UNL     1      44.963   2.666   8.715  0.00  0.00    +0.000 A 
ATOM      8  C   UNL     1      45.579   3.879   8.457  0.00  0.00    +0.000 A 
ATOM      9  N   UNL     1      45.490   4.954   9.265  0.00  0.00    +0.000 NA
BRANCH   8  10
ATOM     10  O   UNL     1      46.367   3.971   7.326  0.00  0.00    +0.000 OA
BRANCH  10  11
ATOM     11  C   UNL     1      46.583   2.733   6.607  0.00  0.00    +0.000 C 
ATOM     12  C   UNL     1      47.862   1.965   6.971  0.00  0.00    +0.000 C 
ATOM     13  O   UNL     1      48.264   1.871   5.585  0.00  0.00    +0.000 OA
ATOM     14  C   UNL     1      47.196   2.770   5.200  0.00  0.00    +0.000 C 
ENDBRANCH  10  11
ENDBRANCH   8  10
ENDBRANCH   2   4
BRANCH   2  15
ATOM     15  C   UNL     1      45.067   5.655  12.763  0.00  0.00    +0.000 C 
BRANCH  15  16
ATOM     16  O   UNL     1      46.427   5.200  12.737  0.00  0.00    +0.000 OA
BRANCH  16  17
ATOM     17  C   UNL     1      47.137   5.338  13.892  0.00  0.00    +0.000 A 
ATOM     18  C   UNL     1      48.077   6.324  14.179  0.00  0.00    +0.000 A 
ATOM     19  N   UNL     1      48.744   6.413  15.351  0.00  0.00    +0.000 NA
ATOM     20  C   UNL     1      48.461   5.473  16.284  0.00  0.00    +0.000 A 
ATOM     21 CL   UNL     1      49.347   5.694  17.740  0.00  0.00    +0.000 Cl
ATOM     22  C   UNL     1      47.550   4.440  16.092  0.00  0.00    +0.000 A 
ATOM     23 CL   UNL     1      47.210   3.244  17.283  0.00  0.00    +0.000 Cl
ATOM     24  C   UNL     1      46.881   4.379  14.871  0.00  0.00    +0.000 A 
ENDBRANCH  16  17
ENDBRANCH  15  16
ENDBRANCH   2  15
TORSDOF 6
ENDMDL
MODEL 5
REMARK VINA RESULT:    -7.032      2.231      3.584
REMARK INTER + INTRA:         -10.380
REMARK INTER:                  -9.708
REMARK INTRA:                  -0.672
REMARK UNBOUND:                -0.881
REMARK  Name = 
REMARK  6 active torsions:
REMARK  status: ('A' for Active; 'I' for Inactive)
REMARK    1  A    between atoms: C_2  and  C_4
REMARK    2  A    between atoms: C_2  and  C_14
REMARK    3  A    between atoms: C_4  and  O_5
REMARK    4  A    between atoms: O_5  and  C_6
REMARK    5  A    between atoms: C_18  and  O_19
REMARK    6  A    between atoms: O_19  and  C_20
REMARK                            x       y       z     vdW  Elec       q    Type
REMARK                         _______ _______ _______ _____ _____    ______ ____
ROOT
ATOM      1  F   UNL     1      43.989   5.600  10.684  0.00  0.00    +0.000 F 
ATOM      2  C   UNL     1      44.226   4.821  11.787  0.00  0.00    +0.000 C 
ATOM      3  F   UNL     1      43.120   4.964  12.576  0.00  0.00    +0.000 F 
ENDROOT
BRANCH   2   4
ATOM      4  C   UNL     1      45.490   5.251  12.518  0.00  0.00    +0.000 A 
ATOM      5  C   UNL     1      45.881   4.536  13.650  0.00  0.00    +0.000 A 
ATOM      6  C   UNL     1      47.043   4.912  14.317  0.00  0.00    +0.000 A 
ATOM      7  C   UNL     1      47.783   5.988  13.836  0.00  0.00    +0.000 A 
ATOM      8  C   UNL     1      47.337   6.636  12.698  0.00  0.00    +0.000 A 
ATOM      9  N   UNL     1      46.219   6.296  12.028  0.00  0.00    +0.000 NA
BRANCH   8  10
ATOM     10  O   UNL     1      48.061   7.727  12.256  0.00  0.00    +0.000 OA
BRANCH  10  11
ATOM     11  C   UNL     1      47.591   9.020  12.708  0.00  0.00    +0.000 C 
ATOM     12  C   UNL     1      47.861  10.196  11.758  0.00  0.00    +0.000 C 
ATOM     13  O   UNL     1      48.470  10.977  12.812  0.00  0.00    +0.000 OA
ATOM     14  C   UNL     1      48.439   9.832  13.697  0.00  0.00    +0.000 C 
ENDBRANCH  10  11
ENDBRANCH   8  10
ENDBRANCH   2   4
BRANCH   2  15
ATOM     15  C   UNL     1      44.322   3.364  11.323  0.00  0.00    +0.000 C 
BRANCH  15  16
ATOM     16  O   UNL     1      43.852   3.254   9.972  0.00  0.00    +0.000 OA
BRANCH  16  17
ATOM     17  C   UNL     1      44.801   3.080   9.010  0.00  0.00    +0.000 A 
ATOM     18  C   UNL     1      45.349   4.065   8.193  0.00  0.00    +0.000 A 
ATOM     19  N   UNL     1      46.298   3.829   7.259  0.00  0.00    +0.000 NA
ATOM     20  C   UNL     1      46.722   2.550   7.133  0.00  0.00    +0.000 A 
ATOM     21 CL   UNL     1      47.943   2.369   5.936  0.00  0.00    +0.000 Cl
ATOM     22  C   UNL     1      46.230   1.492   7.890  0.00  0.00    +0.000 A 
ATOM     23 CL   UNL     1      46.770  -0.133   7.710  0.00  0.00    +0.000 Cl
ATOM     24  C   UNL     1      45.252   1.771   8.843  0.00  0.00    +0.000 A 
ENDBRANCH  16  17
ENDBRANCH  15  16
ENDBRANCH   2  15
TORSDOF 6
ENDMDL
MODEL 6
REMARK VINA RESULT:    -6.583      3.926      7.211
REMARK INTER + INTRA:          -9.773
REMARK INTER:                  -9.068
REMARK INTRA:                  -0.705
REMARK UNBOUND:                -0.881
REMARK  Name = 
REMARK  6 active torsions:
REMARK  status: ('A' for Active; 'I' for Inactive)
REMARK    1  A    between atoms: C_2  and  C_4
REMARK    2  A    between atoms: C_2  and  C_14
REMARK    3  A    between atoms: C_4  and  O_5
REMARK    4  A    between atoms: O_5  and  C_6
REMARK    5  A    between atoms: C_18  and  O_19
REMARK    6  A    between atoms: O_19  and  C_20
REMARK                            x       y       z     vdW  Elec       q    Type
REMARK                         _______ _______ _______ _____ _____    ______ ____
ROOT
ATOM      1  F   UNL     1      43.719   5.115  12.770  0.00  0.00    +0.000 F 
ATOM      2  C   UNL     1      43.796   5.541  11.470  0.00  0.00    +0.000 C 
ATOM      3  F   UNL     1      42.544   5.991  11.160  0.00  0.00    +0.000 F 
ENDROOT
BRANCH   2   4
ATOM      4  C   UNL     1      44.231   4.420  10.536  0.00  0.00    +0.000 A 
ATOM      5  C   UNL     1      43.803   3.121  10.810  0.00  0.00    +0.000 A 
ATOM      6  C   UNL     1      44.182   2.091   9.954  0.00  0.00    +0.000 A 
ATOM      7  C   UNL     1      44.974   2.385   8.849  0.00  0.00    +0.000 A 
ATOM      8  C   UNL     1      45.345   3.702   8.637  0.00  0.00    +0.000 A 
ATOM      9  N   UNL     1      44.992   4.721   9.444  0.00  0.00    +0.000 NA
BRANCH   8  10
ATOM     10  O   UNL     1      46.164   3.972   7.557  0.00  0.00    +0.000 OA
BRANCH  10  11
ATOM     11  C   UNL     1      46.500   2.837   6.723  0.00  0.00    +0.000 C 
ATOM     12  C   UNL     1      47.949   2.339   6.829  0.00  0.00    +0.000 C 
ATOM     13  O   UNL     1      48.127   2.388   5.394  0.00  0.00    +0.000 OA
ATOM     14  C   UNL     1      46.853   3.060   5.245  0.00  0.00    +0.000 C 
ENDBRANCH  10  11
ENDBRANCH   8  10
ENDBRANCH   2   4
BRANCH   2  15
ATOM     15  C   UNL     1      44.777   6.718  11.417  0.00  0.00    +0.000 C 
BRANCH  15  16
ATOM     16  O   UNL     1      45.429   6.862  12.686  0.00  0.00    +0.000 OA
BRANCH  16  17
ATOM     17  C   UNL     1      46.763   7.137  12.657  0.00  0.00    +0.000 A 
ATOM     18  C   UNL     1      47.792   6.327  13.129  0.00  0.00    +0.000 A 
ATOM     19  N   UNL     1      49.101   6.654  13.063  0.00  0.00    +0.000 NA
ATOM     20  C   UNL     1      49.401   7.848  12.499  0.00  0.00    +0.000 A 
ATOM     21 CL   UNL     1      51.093   8.152  12.446  0.00  0.00    +0.000 Cl
ATOM     22  C   UNL     1      48.449   8.736  12.010  0.00  0.00    +0.000 A 
ATOM     23 CL   UNL     1      48.846  10.257  11.307  0.00  0.00    +0.000 Cl
ATOM     24  C   UNL     1      47.109   8.366  12.095  0.00  0.00    +0.000 A 
ENDBRANCH  16  17
ENDBRANCH  15  16
ENDBRANCH   2  15
TORSDOF 6
ENDMDL
MODEL 7
REMARK VINA RESULT:    -6.413      2.082      2.843
REMARK INTER + INTRA:          -9.543
REMARK INTER:                  -9.013
REMARK INTRA:                  -0.530
REMARK UNBOUND:                -0.881
REMARK  Name = 
REMARK  6 active torsions:
REMARK  status: ('A' for Active; 'I' for Inactive)
REMARK    1  A    between atoms: C_2  and  C_4
REMARK    2  A    between atoms: C_2  and  C_14
REMARK    3  A    between atoms: C_4  and  O_5
REMARK    4  A    between atoms: O_5  and  C_6
REMARK    5  A    between atoms: C_18  and  O_19
REMARK    6  A    between atoms: O_19  and  C_20
REMARK                            x       y       z     vdW  Elec       q    Type
REMARK                         _______ _______ _______ _____ _____    ______ ____
ROOT
ATOM      1  F   UNL     1      45.446   6.434  10.064  0.00  0.00    +0.000 F 
ATOM      2  C   UNL     1      44.717   6.055  11.161  0.00  0.00    +0.000 C 
ATOM      3  F   UNL     1      44.045   7.177  11.555  0.00  0.00    +0.000 F 
ENDROOT
BRANCH   2   4
ATOM      4  C   UNL     1      45.609   5.521  12.272  0.00  0.00    +0.000 A 
ATOM      5  C   UNL     1      45.216   4.363  12.943  0.00  0.00    +0.000 A 
ATOM      6  C   UNL     1      46.033   3.858  13.952  0.00  0.00    +0.000 A 
ATOM      7  C   UNL     1      47.217   4.520  14.260  0.00  0.00    +0.000 A 
ATOM      8  C   UNL     1      47.544   5.654  13.537  0.00  0.00    +0.000 A 
ATOM      9  N   UNL     1      46.778   6.166  12.554  0.00  0.00    +0.000 NA
BRANCH   8  10
ATOM     10  O   UNL     1      48.704   6.322  13.882  0.00  0.00    +0.000 OA
BRANCH  10  11
ATOM     11  C   UNL     1      48.707   6.943  15.190  0.00  0.00    +0.000 C 
ATOM     12  C   UNL     1      49.970   7.743  15.545  0.00  0.00    +0.000 C 
ATOM     13  O   UNL     1      50.129   7.037  16.797  0.00  0.00    +0.000 OA
ATOM     14  C   UNL     1      49.081   6.110  16.425  0.00  0.00    +0.000 C 
ENDBRANCH  10  11
ENDBRANCH   8  10
ENDBRANCH   2   4
BRANCH   2  15
ATOM     15  C   UNL     1      43.701   4.999  10.709  0.00  0.00    +0.000 C 
BRANCH  15  16
ATOM     16  O   UNL     1      43.833   4.772   9.299  0.00  0.00    +0.000 OA
BRANCH  16  17
ATOM     17  C   UNL     1      44.550   3.676   8.924  0.00  0.00    +0.000 A 
ATOM     18  C   UNL     1      44.511   2.414   9.512  0.00  0.00    +0.000 A 
ATOM     19  N   UNL     1      45.243   1.361   9.086  0.00  0.00    +0.000 NA
ATOM     20  C   UNL     1      46.054   1.574   8.023  0.00  0.00    +0.000 A 
ATOM     21 CL   UNL     1      46.919   0.164   7.553  0.00  0.00    +0.000 Cl
ATOM     22  C   UNL     1      46.176   2.798   7.374  0.00  0.00    +0.000 A 
ATOM     23 CL   UNL     1      47.222   3.057   6.031  0.00  0.00    +0.000 Cl
ATOM     24  C   UNL     1      45.407   3.862   7.840  0.00  0.00    +0.000 A 
ENDBRANCH  16  17
ENDBRANCH  15  16
ENDBRANCH   2  15
TORSDOF 6
ENDMDL
MODEL 8
REMARK VINA RESULT:    -6.390      4.073      7.786
REMARK INTER + INTRA:          -9.512
REMARK INTER:                  -8.984
REMARK INTRA:                  -0.528
REMARK UNBOUND:                -0.881
REMARK  Name = 
REMARK  6 active torsions:
REMARK  status: ('A' for Active; 'I' for Inactive)
REMARK    1  A    between atoms: C_2  and  C_4
REMARK    2  A    between atoms: C_2  and  C_14
REMARK    3  A    between atoms: C_4  and  O_5
REMARK    4  A    between atoms: O_5  and  C_6
REMARK    5  A    between atoms: C_18  and  O_19
REMARK    6  A    between atoms: O_19  and  C_20
REMARK                            x       y       z     vdW  Elec       q    Type
REMARK                         _______ _______ _______ _____ _____    ______ ____
ROOT
ATOM      1  F   UNL     1      47.863   4.808  13.113  0.00  0.00    +0.000 F 
ATOM      2  C   UNL     1      46.785   4.154  13.651  0.00  0.00    +0.000 C 
ATOM      3  F   UNL     1      47.178   2.852  13.780  0.00  0.00    +0.000 F 
ENDROOT
BRANCH   2   4
ATOM      4  C   UNL     1      45.553   4.279  12.766  0.00  0.00    +0.000 A 
ATOM      5  C   UNL     1      44.734   5.398  12.918  0.00  0.00    +0.000 A 
ATOM      6  C   UNL     1      43.613   5.529  12.104  0.00  0.00    +0.000 A 
ATOM      7  C   UNL     1      43.341   4.543  11.161  0.00  0.00    +0.000 A 
ATOM      8  C   UNL     1      44.211   3.470  11.061  0.00  0.00    +0.000 A 
ATOM      9  N   UNL     1      45.306   3.316  11.831  0.00  0.00    +0.000 NA
BRANCH   8  10
ATOM     10  O   UNL     1      43.906   2.480  10.147  0.00  0.00    +0.000 OA
BRANCH  10  11
ATOM     11  C   UNL     1      44.430   2.674   8.811  0.00  0.00    +0.000 C 
ATOM     12  C   UNL     1      45.749   1.950   8.501  0.00  0.00    +0.000 C 
ATOM     13  O   UNL     1      46.366   3.167   8.021  0.00  0.00    +0.000 OA
ATOM     14  C   UNL     1      45.235   3.941   8.488  0.00  0.00    +0.000 C 
ENDBRANCH  10  11
ENDBRANCH   8  10
ENDBRANCH   2   4
BRANCH   2  15
ATOM     15  C   UNL     1      46.529   4.738  15.045  0.00  0.00    +0.000 C 
BRANCH  15  16
ATOM     16  O   UNL     1      46.822   3.751  16.044  0.00  0.00    +0.000 OA
BRANCH  16  17
ATOM     17  C   UNL     1      47.988   3.910  16.731  0.00  0.00    +0.000 A 
ATOM     18  C   UNL     1      48.417   5.058  17.391  0.00  0.00    +0.000 A 
ATOM     19  N   UNL     1      49.585   5.151  18.065  0.00  0.00    +0.000 NA
ATOM     20  C   UNL     1      50.365   4.044  18.083  0.00  0.00    +0.000 A 
ATOM     21 CL   UNL     1      51.811   4.265  18.985  0.00  0.00    +0.000 Cl
ATOM     22  C   UNL     1      50.036   2.853  17.445  0.00  0.00    +0.000 A 
ATOM     23 CL   UNL     1      51.045   1.457  17.465  0.00  0.00    +0.000 Cl
ATOM     24  C   UNL     1      48.824   2.794  16.759  0.00  0.00    +0.000 A 
ENDBRANCH  16  17
ENDBRANCH  15  16
ENDBRANCH   2  15
TORSDOF 6
ENDMDL
MODEL 9
REMARK VINA RESULT:    -6.255      5.304      8.645
REMARK INTER + INTRA:          -9.331
REMARK INTER:                  -8.645
REMARK INTRA:                  -0.686
REMARK UNBOUND:                -0.881
REMARK  Name = 
REMARK  6 active torsions:
REMARK  status: ('A' for Active; 'I' for Inactive)
REMARK    1  A    between atoms: C_2  and  C_4
REMARK    2  A    between atoms: C_2  and  C_14
REMARK    3  A    between atoms: C_4  and  O_5
REMARK    4  A    between atoms: O_5  and  C_6
REMARK    5  A    between atoms: C_18  and  O_19
REMARK    6  A    between atoms: O_19  and  C_20
REMARK                            x       y       z     vdW  Elec       q    Type
REMARK                         _______ _______ _______ _____ _____    ______ ____
ROOT
ATOM      1  F   UNL     1      47.031   2.825  17.427  0.00  0.00    +0.000 F 
ATOM      2  C   UNL     1      47.586   4.056  17.194  0.00  0.00    +0.000 C 
ATOM      3  F   UNL     1      46.959   4.907  18.059  0.00  0.00    +0.000 F 
ENDROOT
BRANCH   2   4
ATOM      4  C   UNL     1      47.398   4.494  15.748  0.00  0.00    +0.000 A 
ATOM      5  C   UNL     1      47.879   5.744  15.363  0.00  0.00    +0.000 A 
ATOM      6  C   UNL     1      47.725   6.149  14.040  0.00  0.00    +0.000 A 
ATOM      7  C   UNL     1      47.098   5.294  13.139  0.00  0.00    +0.000 A 
ATOM      8  C   UNL     1      46.662   4.062  13.596  0.00  0.00    +0.000 A 
ATOM      9  N   UNL     1      46.799   3.640  14.868  0.00  0.00    +0.000 NA
BRANCH   8  10
ATOM     10  O   UNL     1      46.006   3.241  12.698  0.00  0.00    +0.000 OA
BRANCH  10  11
ATOM     11  C   UNL     1      44.888   3.840  11.998  0.00  0.00    +0.000 C 
ATOM     12  C   UNL     1      43.494   3.435  12.500  0.00  0.00    +0.000 C 
ATOM     13  O   UNL     1      43.061   3.074  11.168  0.00  0.00    +0.000 OA
ATOM     14  C   UNL     1      44.412   3.232  10.671  0.00  0.00    +0.000 C 
ENDBRANCH  10  11
ENDBRANCH   8  10
ENDBRANCH   2   4
BRANCH   2  15
ATOM     15  C   UNL     1      49.073   3.979  17.561  0.00  0.00    +0.000 C 
BRANCH  15  16
ATOM     16  O   UNL     1      49.635   2.764  17.047  0.00  0.00    +0.000 OA
BRANCH  16  17
ATOM     17  C   UNL     1      50.878   2.431  17.496  0.00  0.00    +0.000 A 
ATOM     18  C   UNL     1      51.456   1.165  17.488  0.00  0.00    +0.000 A 
ATOM     19  N   UNL     1      52.702   0.901  17.942  0.00  0.00    +0.000 NA
ATOM     20  C   UNL     1      53.406   1.950  18.429  0.00  0.00    +0.000 A 
ATOM     21 CL   UNL     1      54.981   1.505  18.956  0.00  0.00    +0.000 Cl
ATOM     22  C   UNL     1      52.916   3.250  18.494  0.00  0.00    +0.000 A 
ATOM     23 CL   UNL     1      53.820   4.571  19.128  0.00  0.00    +0.000 Cl
ATOM     24  C   UNL     1      51.629   3.485  18.017  0.00  0.00    +0.000 A 
ENDBRANCH  16  17
ENDBRANCH  15  16
ENDBRANCH   2  15
TORSDOF 6
ENDMDL
