MODEL 1
REMARK VINA RESULT:    -8.180      0.000      0.000
REMARK INTER + INTRA:         -11.627
REMARK INTER:                 -10.810
REMARK INTRA:                  -0.816
REMARK UNBOUND:                -0.816
REMARK  Name = 
REMARK  7 active torsions:
REMARK  status: ('A' for Active; 'I' for Inactive)
REMARK    1  A    between atoms: C_1  and  C_2
REMARK    2  A    between atoms: C_2  and  N_3
REMARK    3  A    between atoms: C_2  and  C_16
REMARK    4  A    between atoms: C_4  and  C_6
REMARK    5  A    between atoms: C_19  and  C_20
REMARK    6  A    between atoms: C_20  and  O_21
REMARK    7  A    between atoms: C_20  and  C_22
REMARK                            x       y       z     vdW  Elec       q    Type
REMARK                         _______ _______ _______ _____ _____    ______ ____
ROOT
ATOM      1  C   UNL     1      48.467   8.106  12.484  0.00  0.00    +0.000 C 
ATOM      2  C   UNL     1      47.350   7.320  13.181  0.00  0.00    +0.000 C 
ENDROOT
BRANCH   2   3
ATOM      3  C   UNL     1      46.586   6.404  12.240  0.00  0.00    +0.000 A 
ATOM      4  C   UNL     1      46.559   6.695  10.867  0.00  0.00    +0.000 A 
ATOM      5  C   UNL     1      45.899   5.856   9.963  0.00  0.00    +0.000 A 
ATOM      6  C   UNL     1      45.235   4.708  10.414  0.00  0.00    +0.000 A 
ATOM      7  C   UNL     1      45.209   4.449  11.794  0.00  0.00    +0.000 A 
ATOM      8  C   UNL     1      45.866   5.291  12.694  0.00  0.00    +0.000 A 
BRANCH   6   9
ATOM      9  C   UNL     1      44.522   3.788   9.436  0.00  0.00    +0.000 C 
BRANCH   9  10
ATOM     10  C   UNL     1      45.445   2.989   8.539  0.00  0.00    +0.000 A 
ATOM     11  C   UNL     1      46.106   3.571   7.451  0.00  0.00    +0.000 A 
ATOM     12  C   UNL     1      46.858   2.782   6.590  0.00  0.00    +0.000 A 
ATOM     13  C   UNL     1      46.967   1.431   6.867  0.00  0.00    +0.000 A 
ATOM     14  N   UNL     1      46.415   0.838   7.946  0.00  0.00    +0.000 NA
ATOM     15  C   UNL     1      45.673   1.631   8.755  0.00  0.00    +0.000 A 
ENDBRANCH   9  10
BRANCH   9  16
ATOM     16  O   UNL     1      43.641   4.576   8.623  0.00  0.00    +0.000 OA
ATOM     17  H   UNL     1      43.465   4.066   7.814  0.00  0.00    +0.000 HD
ENDBRANCH   9  16
ENDBRANCH   6   9
ENDBRANCH   2   3
BRANCH   2  18
ATOM     18  N   UNL     1      47.878   6.589  14.305  0.00  0.00    +0.000 N 
ATOM     19  C   UNL     1      48.297   7.192  15.460  0.00  0.00    +0.000 C 
ATOM     20  O   UNL     1      48.256   8.411  15.603  0.00  0.00    +0.000 OA
ATOM     21  H   UNL     1      47.777   5.561  14.328  0.00  0.00    +0.000 HD
BRANCH  19  22
ATOM     22  C   UNL     1      48.854   6.319  16.504  0.00  0.00    +0.000 A 
ATOM     23  C   UNL     1      49.953   6.767  17.219  0.00  0.00    +0.000 A 
ATOM     24  S   UNL     1      50.456   5.696  18.436  0.00  0.00    +0.000 S 
ATOM     25  C   UNL     1      49.212   4.601  18.054  0.00  0.00    +0.000 A 
ATOM     26  N   UNL     1      49.084   3.487  18.802  0.00  0.00    +0.000 NA
ATOM     27  C   UNL     1      48.077   2.723  18.371  0.00  0.00    +0.000 A 
ATOM     28  N   UNL     1      47.279   2.928  17.319  0.00  0.00    +0.000 NA
ATOM     29  C   UNL     1      47.442   4.049  16.586  0.00  0.00    +0.000 A 
ATOM     30  O   UNL     1      46.723   4.253  15.568  0.00  0.00    +0.000 OA
ATOM     31  C   UNL     1      48.437   4.990  16.962  0.00  0.00    +0.000 A 
ENDBRANCH  19  22
ENDBRANCH   2  18
TORSDOF 6
ENDMDL
MODEL 2
REMARK VINA RESULT:    -7.784      2.829      3.959
REMARK INTER + INTRA:         -11.103
REMARK INTER:                  -9.838
REMARK INTRA:                  -1.264
REMARK UNBOUND:                -0.816
REMARK  Name = 
REMARK  7 active torsions:
REMARK  status: ('A' for Active; 'I' for Inactive)
REMARK    1  A    between atoms: C_1  and  C_2
REMARK    2  A    between atoms: C_2  and  N_3
REMARK    3  A    between atoms: C_2  and  C_16
REMARK    4  A    between atoms: C_4  and  C_6
REMARK    5  A    between atoms: C_19  and  C_20
REMARK    6  A    between atoms: C_20  and  O_21
REMARK    7  A    between atoms: C_20  and  C_22
REMARK                            x       y       z     vdW  Elec       q    Type
REMARK                         _______ _______ _______ _____ _____    ______ ____
ROOT
ATOM      1  C   UNL     1      47.483   4.123  16.430  0.00  0.00    +0.000 C 
ATOM      2  C   UNL     1      47.880   5.007  15.242  0.00  0.00    +0.000 C 
ENDROOT
BRANCH   2   3
ATOM      3  C   UNL     1      47.000   4.800  14.021  0.00  0.00    +0.000 A 
ATOM      4  C   UNL     1      46.632   3.496  13.650  0.00  0.00    +0.000 A 
ATOM      5  C   UNL     1      45.792   3.266  12.557  0.00  0.00    +0.000 A 
ATOM      6  C   UNL     1      45.307   4.337  11.795  0.00  0.00    +0.000 A 
ATOM      7  C   UNL     1      45.723   5.637  12.127  0.00  0.00    +0.000 A 
ATOM      8  C   UNL     1      46.565   5.863  13.217  0.00  0.00    +0.000 A 
BRANCH   6   9
ATOM      9  C   UNL     1      44.388   4.094  10.609  0.00  0.00    +0.000 C 
BRANCH   9  10
ATOM     10  C   UNL     1      45.087   3.580   9.368  0.00  0.00    +0.000 A 
ATOM     11  C   UNL     1      45.284   2.212   9.142  0.00  0.00    +0.000 A 
ATOM     12  C   UNL     1      46.024   1.786   8.045  0.00  0.00    +0.000 A 
ATOM     13  C   UNL     1      46.512   2.743   7.173  0.00  0.00    +0.000 A 
ATOM     14  N   UNL     1      46.282   4.067   7.305  0.00  0.00    +0.000 NA
ATOM     15  C   UNL     1      45.574   4.450   8.394  0.00  0.00    +0.000 A 
ENDBRANCH   9  10
BRANCH   9  16
ATOM     16  O   UNL     1      43.710   5.320  10.294  0.00  0.00    +0.000 OA
ATOM     17  H   UNL     1      42.947   5.089   9.737  0.00  0.00    +0.000 HD
ENDBRANCH   9  16
ENDBRANCH   6   9
ENDBRANCH   2   3
BRANCH   2  18
ATOM     18  N   UNL     1      47.909   6.394  15.634  0.00  0.00    +0.000 N 
ATOM     19  C   UNL     1      49.063   7.122  15.723  0.00  0.00    +0.000 C 
ATOM     20  O   UNL     1      50.160   6.626  15.481  0.00  0.00    +0.000 OA
ATOM     21  H   UNL     1      47.022   6.921  15.680  0.00  0.00    +0.000 HD
BRANCH  19  22
ATOM     22  C   UNL     1      48.940   8.514  16.180  0.00  0.00    +0.000 A 
ATOM     23  C   UNL     1      49.469   9.518  15.384  0.00  0.00    +0.000 A 
ATOM     24  S   UNL     1      49.202  11.080  15.991  0.00  0.00    +0.000 S 
ATOM     25  C   UNL     1      48.361  10.467  17.336  0.00  0.00    +0.000 A 
ATOM     26  N   UNL     1      47.826  11.340  18.213  0.00  0.00    +0.000 NA
ATOM     27  C   UNL     1      47.214  10.708  19.218  0.00  0.00    +0.000 A 
ATOM     28  N   UNL     1      47.131   9.392  19.436  0.00  0.00    +0.000 NA
ATOM     29  C   UNL     1      47.687   8.547  18.543  0.00  0.00    +0.000 A 
ATOM     30  O   UNL     1      47.651   7.301  18.740  0.00  0.00    +0.000 OA
ATOM     31  C   UNL     1      48.323   9.073  17.386  0.00  0.00    +0.000 A 
ENDBRANCH  19  22
ENDBRANCH   2  18
TORSDOF 6
ENDMDL
MODEL 3
REMARK VINA RESULT:    -7.762      1.809      2.188
REMARK INTER + INTRA:         -11.075
REMARK INTER:                  -9.985
REMARK INTRA:                  -1.089
REMARK UNBOUND:                -0.816
REMARK  Name = 
REMARK  7 active torsions:
REMARK  status: ('A' for Active; 'I' for Inactive)
REMARK    1  A    between atoms: C_1  and  C_2
REMARK    2  A    between atoms: C_2  and  N_3
REMARK    3  A    between atoms: C_2  and  C_16
REMARK    4  A    between atoms: C_4  and  C_6
REMARK    5  A    between atoms: C_19  and  C_20
REMARK    6  A    between atoms: C_20  and  O_21
REMARK    7  A    between atoms: C_20  and  C_22
REMARK                            x       y       z     vdW  Elec       q    Type
REMARK                         _______ _______ _______ _____ _____    ______ ____
ROOT
ATOM      1  C   UNL     1      49.601   7.714  13.373  0.00  0.00    +0.000 C 
ATOM      2  C   UNL     1      48.172   7.818  13.920  0.00  0.00    +0.000 C 
ENDROOT
BRANCH   2   3
ATOM      3  C   UNL     1      47.172   6.976  13.146  0.00  0.00    +0.000 A 
ATOM      4  C   UNL     1      46.361   7.588  12.176  0.00  0.00    +0.000 A 
ATOM      5  C   UNL     1      45.456   6.842  11.415  0.00  0.00    +0.000 A 
ATOM      6  C   UNL     1      45.328   5.461  11.616  0.00  0.00    +0.000 A 
ATOM      7  C   UNL     1      46.094   4.859  12.628  0.00  0.00    +0.000 A 
ATOM      8  C   UNL     1      46.994   5.608  13.388  0.00  0.00    +0.000 A 
BRANCH   6   9
ATOM      9  C   UNL     1      44.351   4.643  10.788  0.00  0.00    +0.000 C 
BRANCH   9  10
ATOM     10  C   UNL     1      44.982   3.893   9.633  0.00  0.00    +0.000 A 
ATOM     11  C   UNL     1      44.956   2.496   9.554  0.00  0.00    +0.000 A 
ATOM     12  C   UNL     1      45.639   1.842   8.535  0.00  0.00    +0.000 A 
ATOM     13  C   UNL     1      46.295   2.610   7.590  0.00  0.00    +0.000 A 
ATOM     14  N   UNL     1      46.284   3.959   7.577  0.00  0.00    +0.000 NA
ATOM     15  C   UNL     1      45.625   4.566   8.594  0.00  0.00    +0.000 A 
ENDBRANCH   9  10
BRANCH   9  16
ATOM     16  O   UNL     1      43.332   5.518  10.281  0.00  0.00    +0.000 OA
ATOM     17  H   UNL     1      43.658   6.428  10.388  0.00  0.00    +0.000 HD
ENDBRANCH   9  16
ENDBRANCH   6   9
ENDBRANCH   2   3
BRANCH   2  18
ATOM     18  N   UNL     1      48.147   7.496  15.324  0.00  0.00    +0.000 N 
ATOM     19  C   UNL     1      48.450   8.401  16.305  0.00  0.00    +0.000 C 
ATOM     20  O   UNL     1      48.777   9.555  16.040  0.00  0.00    +0.000 OA
ATOM     21  H   UNL     1      47.715   6.609  15.629  0.00  0.00    +0.000 HD
BRANCH  19  22
ATOM     22  C   UNL     1      48.425   7.915  17.692  0.00  0.00    +0.000 A 
ATOM     23  C   UNL     1      48.108   8.813  18.699  0.00  0.00    +0.000 A 
ATOM     24  S   UNL     1      48.050   8.111  20.243  0.00  0.00    +0.000 S 
ATOM     25  C   UNL     1      48.437   6.579  19.615  0.00  0.00    +0.000 A 
ATOM     26  N   UNL     1      48.482   5.530  20.461  0.00  0.00    +0.000 NA
ATOM     27  C   UNL     1      48.813   4.404  19.823  0.00  0.00    +0.000 A 
ATOM     28  N   UNL     1      49.124   4.248  18.533  0.00  0.00    +0.000 NA
ATOM     29  C   UNL     1      49.079   5.321  17.718  0.00  0.00    +0.000 A 
ATOM     30  O   UNL     1      49.398   5.209  16.501  0.00  0.00    +0.000 OA
ATOM     31  C   UNL     1      48.682   6.581  18.242  0.00  0.00    +0.000 A 
ENDBRANCH  19  22
ENDBRANCH   2  18
TORSDOF 6
ENDMDL
MODEL 4
REMARK VINA RESULT:    -7.603      1.452      1.951
REMARK INTER + INTRA:         -10.864
REMARK INTER:                  -9.764
REMARK INTRA:                  -1.100
REMARK UNBOUND:                -0.816
REMARK  Name = 
REMARK  7 active torsions:
REMARK  status: ('A' for Active; 'I' for Inactive)
REMARK    1  A    between atoms: C_1  and  C_2
REMARK    2  A    between atoms: C_2  and  N_3
REMARK    3  A    between atoms: C_2  and  C_16
REMARK    4  A    between atoms: C_4  and  C_6
REMARK    5  A    between atoms: C_19  and  C_20
REMARK    6  A    between atoms: C_20  and  O_21
REMARK    7  A    between atoms: C_20  and  C_22
REMARK                            x       y       z     vdW  Elec       q    Type
REMARK                         _______ _______ _______ _____ _____    ______ ____
ROOT
ATOM      1  C   UNL     1      48.412   9.404  12.931  0.00  0.00    +0.000 C 
ATOM      2  C   UNL     1      47.515   8.514  13.800  0.00  0.00    +0.000 C 
ENDROOT
BRANCH   2   3
ATOM      3  C   UNL     1      46.670   7.545  12.991  0.00  0.00    +0.000 A 
ATOM      4  C   UNL     1      46.996   6.179  12.994  0.00  0.00    +0.000 A 
ATOM      5  C   UNL     1      46.220   5.250  12.294  0.00  0.00    +0.000 A 
ATOM      6  C   UNL     1      45.103   5.667  11.559  0.00  0.00    +0.000 A 
ATOM      7  C   UNL     1      44.812   7.040  11.505  0.00  0.00    +0.000 A 
ATOM      8  C   UNL     1      45.591   7.965  12.202  0.00  0.00    +0.000 A 
BRANCH   6   9
ATOM      9  C   UNL     1      44.251   4.661  10.801  0.00  0.00    +0.000 C 
BRANCH   9  10
ATOM     10  C   UNL     1      44.961   3.978   9.650  0.00  0.00    +0.000 A 
ATOM     11  C   UNL     1      44.990   2.585   9.520  0.00  0.00    +0.000 A 
ATOM     12  C   UNL     1      45.742   1.995   8.511  0.00  0.00    +0.000 A 
ATOM     13  C   UNL     1      46.412   2.821   7.626  0.00  0.00    +0.000 A 
ATOM     14  N   UNL     1      46.351   4.168   7.662  0.00  0.00    +0.000 NA
ATOM     15  C   UNL     1      45.625   4.712   8.668  0.00  0.00    +0.000 A 
ENDBRANCH   9  10
BRANCH   9  16
ATOM     16  O   UNL     1      43.083   5.330  10.303  0.00  0.00    +0.000 OA
ATOM     17  H   UNL     1      42.750   5.894  11.021  0.00  0.00    +0.000 HD
ENDBRANCH   9  16
ENDBRANCH   6   9
ENDBRANCH   2   3
BRANCH   2  18
ATOM     18  N   UNL     1      48.302   7.820  14.787  0.00  0.00    +0.000 N 
ATOM     19  C   UNL     1      48.460   8.270  16.070  0.00  0.00    +0.000 C 
ATOM     20  O   UNL     1      47.941   9.313  16.456  0.00  0.00    +0.000 OA
ATOM     21  H   UNL     1      48.618   6.856  14.591  0.00  0.00    +0.000 HD
BRANCH  19  22
ATOM     22  C   UNL     1      49.329   7.478  16.953  0.00  0.00    +0.000 A 
ATOM     23  C   UNL     1      50.229   8.149  17.766  0.00  0.00    +0.000 A 
ATOM     24  S   UNL     1      51.124   7.125  18.781  0.00  0.00    +0.000 S 
ATOM     25  C   UNL     1      50.329   5.748  18.174  0.00  0.00    +0.000 A 
ATOM     26  N   UNL     1      50.631   4.546  18.705  0.00  0.00    +0.000 NA
ATOM     27  C   UNL     1      49.939   3.567  18.115  0.00  0.00    +0.000 A 
ATOM     28  N   UNL     1      49.079   3.662  17.098  0.00  0.00    +0.000 NA
ATOM     29  C   UNL     1      48.808   4.880  16.585  0.00  0.00    +0.000 A 
ATOM     30  O   UNL     1      48.023   4.996  15.603  0.00  0.00    +0.000 OA
ATOM     31  C   UNL     1      49.424   6.029  17.151  0.00  0.00    +0.000 A 
ENDBRANCH  19  22
ENDBRANCH   2  18
TORSDOF 6
ENDMDL
MODEL 5
REMARK VINA RESULT:    -7.152      2.747      4.415
REMARK INTER + INTRA:         -10.267
REMARK INTER:                  -9.259
REMARK INTRA:                  -1.009
REMARK UNBOUND:                -0.816
REMARK  Name = 
REMARK  7 active torsions:
REMARK  status: ('A' for Active; 'I' for Inactive)
REMARK    1  A    between atoms: C_1  and  C_2
REMARK    2  A    between atoms: C_2  and  N_3
REMARK    3  A    between atoms: C_2  and  C_16
REMARK    4  A    between atoms: C_4  and  C_6
REMARK    5  A    between atoms: C_19  and  C_20
REMARK    6  A    between atoms: C_20  and  O_21
REMARK    7  A    between atoms: C_20  and  C_22
REMARK                            x       y       z     vdW  Elec       q    Type
REMARK                         _______ _______ _______ _____ _____    ______ ____
ROOT
ATOM      1  C   UNL     1      47.108   4.039  16.691  0.00  0.00    +0.000 C 
ATOM      2  C   UNL     1      47.708   4.757  15.476  0.00  0.00    +0.000 C 
ENDROOT
BRANCH   2   3
ATOM      3  C   UNL     1      46.860   4.624  14.223  0.00  0.00    +0.000 A 
ATOM      4  C   UNL     1      46.621   3.348  13.685  0.00  0.00    +0.000 A 
ATOM      5  C   UNL     1      45.814   3.180  12.556  0.00  0.00    +0.000 A 
ATOM      6  C   UNL     1      45.234   4.288  11.925  0.00  0.00    +0.000 A 
ATOM      7  C   UNL     1      45.521   5.569  12.425  0.00  0.00    +0.000 A 
ATOM      8  C   UNL     1      46.331   5.734  13.551  0.00  0.00    +0.000 A 
BRANCH   6   9
ATOM      9  C   UNL     1      44.350   4.111  10.701  0.00  0.00    +0.000 C 
BRANCH   9  10
ATOM     10  C   UNL     1      45.081   3.636   9.463  0.00  0.00    +0.000 A 
ATOM     11  C   UNL     1      45.254   2.275   9.181  0.00  0.00    +0.000 A 
ATOM     12  C   UNL     1      46.022   1.881   8.092  0.00  0.00    +0.000 A 
ATOM     13  C   UNL     1      46.563   2.864   7.283  0.00  0.00    +0.000 A 
ATOM     14  N   UNL     1      46.360   4.185   7.466  0.00  0.00    +0.000 NA
ATOM     15  C   UNL     1      45.622   4.537   8.547  0.00  0.00    +0.000 A 
ENDBRANCH   9  10
BRANCH   9  16
ATOM     16  O   UNL     1      43.704   5.361  10.416  0.00  0.00    +0.000 OA
ATOM     17  H   UNL     1      42.752   5.180  10.342  0.00  0.00    +0.000 HD
ENDBRANCH   9  16
ENDBRANCH   6   9
ENDBRANCH   2   3
BRANCH   2  18
ATOM     18  N   UNL     1      47.965   6.141  15.787  0.00  0.00    +0.000 N 
ATOM     19  C   UNL     1      49.205   6.616  16.116  0.00  0.00    +0.000 C 
ATOM     20  O   UNL     1      50.184   5.877  16.177  0.00  0.00    +0.000 OA
ATOM     21  H   UNL     1      47.236   6.844  15.584  0.00  0.00    +0.000 HD
BRANCH  19  22
ATOM     22  C   UNL     1      49.305   8.044  16.451  0.00  0.00    +0.000 A 
ATOM     23  C   UNL     1      48.439   8.559  17.402  0.00  0.00    +0.000 A 
ATOM     24  S   UNL     1      48.702  10.201  17.744  0.00  0.00    +0.000 S 
ATOM     25  C   UNL     1      49.991  10.275  16.637  0.00  0.00    +0.000 A 
ATOM     26  N   UNL     1      50.671  11.433  16.520  0.00  0.00    +0.000 NA
ATOM     27  C   UNL     1      51.639  11.338  15.604  0.00  0.00    +0.000 A 
ATOM     28  N   UNL     1      51.938  10.295  14.825  0.00  0.00    +0.000 NA
ATOM     29  C   UNL     1      51.230   9.155  14.963  0.00  0.00    +0.000 A 
ATOM     30  O   UNL     1      51.470   8.164  14.219  0.00  0.00    +0.000 OA
ATOM     31  C   UNL     1      50.204   9.084  15.943  0.00  0.00    +0.000 A 
ENDBRANCH  19  22
ENDBRANCH   2  18
TORSDOF 6
ENDMDL
MODEL 6
REMARK VINA RESULT:    -7.080      4.354      7.472
REMARK INTER + INTRA:         -10.172
REMARK INTER:                  -9.037
REMARK INTRA:                  -1.135
REMARK UNBOUND:                -0.816
REMARK  Name = 
REMARK  7 active torsions:
REMARK  status: ('A' for Active; 'I' for Inactive)
REMARK    1  A    between atoms: C_1  and  C_2
REMARK    2  A    between atoms: C_2  and  N_3
REMARK    3  A    between atoms: C_2  and  C_16
REMARK    4  A    between atoms: C_4  and  C_6
REMARK    5  A    between atoms: C_19  and  C_20
REMARK    6  A    between atoms: C_20  and  O_21
REMARK    7  A    between atoms: C_20  and  C_22
REMARK                            x       y       z     vdW  Elec       q    Type
REMARK                         _______ _______ _______ _____ _____    ______ ____
ROOT
ATOM      1  C   UNL     1      46.747   8.979  13.634  0.00  0.00    +0.000 C 
ATOM      2  C   UNL     1      47.030   8.470  12.215  0.00  0.00    +0.000 C 
ENDROOT
BRANCH   2   3
ATOM      3  C   UNL     1      48.503   8.511  11.847  0.00  0.00    +0.000 A 
ATOM      4  C   UNL     1      49.260   7.329  11.899  0.00  0.00    +0.000 A 
ATOM      5  C   UNL     1      50.608   7.318  11.531  0.00  0.00    +0.000 A 
ATOM      6  C   UNL     1      51.241   8.495  11.113  0.00  0.00    +0.000 A 
ATOM      7  C   UNL     1      50.503   9.690  11.120  0.00  0.00    +0.000 A 
ATOM      8  C   UNL     1      49.157   9.699  11.491  0.00  0.00    +0.000 A 
BRANCH   6   9
ATOM      9  C   UNL     1      52.706   8.488  10.705  0.00  0.00    +0.000 C 
BRANCH   9  10
ATOM     10  C   UNL     1      53.070   7.422   9.693  0.00  0.00    +0.000 A 
ATOM     11  C   UNL     1      52.577   7.447   8.382  0.00  0.00    +0.000 A 
ATOM     12  C   UNL     1      52.848   6.394   7.516  0.00  0.00    +0.000 A 
ATOM     13  C   UNL     1      53.646   5.360   7.972  0.00  0.00    +0.000 A 
ATOM     14  N   UNL     1      54.208   5.329   9.199  0.00  0.00    +0.000 NA
ATOM     15  C   UNL     1      53.910   6.360  10.024  0.00  0.00    +0.000 A 
ENDBRANCH   9  10
BRANCH   9  16
ATOM     16  O   UNL     1      53.510   8.314  11.882  0.00  0.00    +0.000 OA
ATOM     17  H   UNL     1      53.435   9.131  12.402  0.00  0.00    +0.000 HD
ENDBRANCH   9  16
ENDBRANCH   6   9
ENDBRANCH   2   3
BRANCH   2  18
ATOM     18  N   UNL     1      46.486   7.148  12.038  0.00  0.00    +0.000 N 
ATOM     19  C   UNL     1      45.218   6.916  11.577  0.00  0.00    +0.000 C 
ATOM     20  O   UNL     1      44.456   7.836  11.295  0.00  0.00    +0.000 OA
ATOM     21  H   UNL     1      47.120   6.333  12.084  0.00  0.00    +0.000 HD
BRANCH  19  22
ATOM     22  C   UNL     1      44.786   5.514  11.491  0.00  0.00    +0.000 A 
ATOM     23  C   UNL     1      44.152   4.950  12.588  0.00  0.00    +0.000 A 
ATOM     24  S   UNL     1      43.646   3.350  12.335  0.00  0.00    +0.000 S 
ATOM     25  C   UNL     1      44.250   3.359  10.744  0.00  0.00    +0.000 A 
ATOM     26  N   UNL     1      44.065   2.264   9.980  0.00  0.00    +0.000 NA
ATOM     27  C   UNL     1      44.606   2.419   8.769  0.00  0.00    +0.000 A 
ATOM     28  N   UNL     1      45.299   3.461   8.302  0.00  0.00    +0.000 NA
ATOM     29  C   UNL     1      45.474   4.536   9.098  0.00  0.00    +0.000 A 
ATOM     30  O   UNL     1      46.151   5.522   8.694  0.00  0.00    +0.000 OA
ATOM     31  C   UNL     1      44.901   4.543  10.398  0.00  0.00    +0.000 A 
ENDBRANCH  19  22
ENDBRANCH   2  18
TORSDOF 6
ENDMDL
MODEL 7
REMARK VINA RESULT:    -7.056      3.685      8.212
REMARK INTER + INTRA:         -10.141
REMARK INTER:                  -8.915
REMARK INTRA:                  -1.227
REMARK UNBOUND:                -0.816
REMARK  Name = 
REMARK  7 active torsions:
REMARK  status: ('A' for Active; 'I' for Inactive)
REMARK    1  A    between atoms: C_1  and  C_2
REMARK    2  A    between atoms: C_2  and  N_3
REMARK    3  A    between atoms: C_2  and  C_16
REMARK    4  A    between atoms: C_4  and  C_6
REMARK    5  A    between atoms: C_19  and  C_20
REMARK    6  A    between atoms: C_20  and  O_21
REMARK    7  A    between atoms: C_20  and  C_22
REMARK                            x       y       z     vdW  Elec       q    Type
REMARK                         _______ _______ _______ _____ _____    ______ ____
ROOT
ATOM      1  C   UNL     1      48.983   9.801  15.508  0.00  0.00    +0.000 C 
ATOM      2  C   UNL     1      49.223   8.389  14.960  0.00  0.00    +0.000 C 
ENDROOT
BRANCH   2   3
ATOM      3  C   UNL     1      49.766   7.426  16.003  0.00  0.00    +0.000 A 
ATOM      4  C   UNL     1      51.109   7.021  15.932  0.00  0.00    +0.000 A 
ATOM      5  C   UNL     1      51.658   6.167  16.894  0.00  0.00    +0.000 A 
ATOM      6  C   UNL     1      50.871   5.684  17.947  0.00  0.00    +0.000 A 
ATOM      7  C   UNL     1      49.512   6.039  17.984  0.00  0.00    +0.000 A 
ATOM      8  C   UNL     1      48.967   6.889  17.020  0.00  0.00    +0.000 A 
BRANCH   6   9
ATOM      9  C   UNL     1      51.463   4.761  19.000  0.00  0.00    +0.000 C 
BRANCH   9  10
ATOM     10  C   UNL     1      51.857   3.393  18.485  0.00  0.00    +0.000 A 
ATOM     11  C   UNL     1      51.020   2.648  17.646  0.00  0.00    +0.000 A 
ATOM     12  C   UNL     1      51.371   1.353  17.282  0.00  0.00    +0.000 A 
ATOM     13  C   UNL     1      52.579   0.851  17.733  0.00  0.00    +0.000 A 
ATOM     14  N   UNL     1      53.456   1.558  18.477  0.00  0.00    +0.000 NA
ATOM     15  C   UNL     1      53.076   2.809  18.830  0.00  0.00    +0.000 A 
ENDBRANCH   9  10
BRANCH   9  16
ATOM     16  O   UNL     1      50.512   4.608  20.064  0.00  0.00    +0.000 OA
ATOM     17  H   UNL     1      50.665   3.733  20.460  0.00  0.00    +0.000 HD
ENDBRANCH   9  16
ENDBRANCH   6   9
ENDBRANCH   2   3
BRANCH   2  18
ATOM     18  N   UNL     1      48.021   7.875  14.353  0.00  0.00    +0.000 N 
ATOM     19  C   UNL     1      48.027   6.902  13.391  0.00  0.00    +0.000 C 
ATOM     20  O   UNL     1      49.073   6.413  12.974  0.00  0.00    +0.000 OA
ATOM     21  H   UNL     1      47.107   8.107  14.774  0.00  0.00    +0.000 HD
BRANCH  19  22
ATOM     22  C   UNL     1      46.725   6.509  12.832  0.00  0.00    +0.000 A 
ATOM     23  C   UNL     1      45.917   7.495  12.287  0.00  0.00    +0.000 A 
ATOM     24  S   UNL     1      44.474   6.901  11.619  0.00  0.00    +0.000 S 
ATOM     25  C   UNL     1      44.886   5.302  12.028  0.00  0.00    +0.000 A 
ATOM     26  N   UNL     1      44.052   4.310  11.659  0.00  0.00    +0.000 NA
ATOM     27  C   UNL     1      44.503   3.119  12.064  0.00  0.00    +0.000 A 
ATOM     28  N   UNL     1      45.596   2.853  12.784  0.00  0.00    +0.000 NA
ATOM     29  C   UNL     1      46.404   3.872  13.144  0.00  0.00    +0.000 A 
ATOM     30  O   UNL     1      47.427   3.654  13.851  0.00  0.00    +0.000 OA
ATOM     31  C   UNL     1      46.085   5.194  12.732  0.00  0.00    +0.000 A 
ENDBRANCH  19  22
ENDBRANCH   2  18
TORSDOF 6
ENDMDL
MODEL 8
REMARK VINA RESULT:    -6.651      3.797      4.644
REMARK INTER + INTRA:          -9.606
REMARK INTER:                  -8.466
REMARK INTRA:                  -1.140
REMARK UNBOUND:                -0.816
REMARK  Name = 
REMARK  7 active torsions:
REMARK  status: ('A' for Active; 'I' for Inactive)
REMARK    1  A    between atoms: C_1  and  C_2
REMARK    2  A    between atoms: C_2  and  N_3
REMARK    3  A    between atoms: C_2  and  C_16
REMARK    4  A    between atoms: C_4  and  C_6
REMARK    5  A    between atoms: C_19  and  C_20
REMARK    6  A    between atoms: C_20  and  O_21
REMARK    7  A    between atoms: C_20  and  C_22
REMARK                            x       y       z     vdW  Elec       q    Type
REMARK                         _______ _______ _______ _____ _____    ______ ____
ROOT
ATOM      1  C   UNL     1      45.646  10.350  12.021  0.00  0.00    +0.000 C 
ATOM      2  C   UNL     1      46.250   9.166  12.785  0.00  0.00    +0.000 C 
ENDROOT
BRANCH   2   3
ATOM      3  C   UNL     1      45.785   7.817  12.263  0.00  0.00    +0.000 A 
ATOM      4  C   UNL     1      46.605   6.690  12.439  0.00  0.00    +0.000 A 
ATOM      5  C   UNL     1      46.196   5.425  12.008  0.00  0.00    +0.000 A 
ATOM      6  C   UNL     1      44.958   5.255  11.374  0.00  0.00    +0.000 A 
ATOM      7  C   UNL     1      44.164   6.390  11.143  0.00  0.00    +0.000 A 
ATOM      8  C   UNL     1      44.577   7.653  11.571  0.00  0.00    +0.000 A 
BRANCH   6   9
ATOM      9  C   UNL     1      44.505   3.881  10.910  0.00  0.00    +0.000 C 
BRANCH   9  10
ATOM     10  C   UNL     1      45.106   3.434   9.593  0.00  0.00    +0.000 A 
ATOM     11  C   UNL     1      45.342   2.083   9.308  0.00  0.00    +0.000 A 
ATOM     12  C   UNL     1      45.993   1.723   8.134  0.00  0.00    +0.000 A 
ATOM     13  C   UNL     1      46.353   2.725   7.251  0.00  0.00    +0.000 A 
ATOM     14  N   UNL     1      46.078   4.032   7.444  0.00  0.00    +0.000 NA
ATOM     15  C   UNL     1      45.459   4.352   8.606  0.00  0.00    +0.000 A 
ENDBRANCH   9  10
BRANCH   9  16
ATOM     16  O   UNL     1      43.074   3.882  10.797  0.00  0.00    +0.000 OA
ATOM     17  H   UNL     1      42.785   4.809  10.841  0.00  0.00    +0.000 HD
ENDBRANCH   9  16
ENDBRANCH   6   9
ENDBRANCH   2   3
BRANCH   2  18
ATOM     18  N   UNL     1      47.688   9.254  12.792  0.00  0.00    +0.000 N 
ATOM     19  C   UNL     1      48.439   9.146  13.931  0.00  0.00    +0.000 C 
ATOM     20  O   UNL     1      47.921   8.976  15.031  0.00  0.00    +0.000 OA
ATOM     21  H   UNL     1      48.198   9.217  11.894  0.00  0.00    +0.000 HD
BRANCH  19  22
ATOM     22  C   UNL     1      49.894   9.301  13.788  0.00  0.00    +0.000 A 
ATOM     23  C   UNL     1      50.577  10.026  14.751  0.00  0.00    +0.000 A 
ATOM     24  S   UNL     1      52.256  10.073  14.505  0.00  0.00    +0.000 S 
ATOM     25  C   UNL     1      52.127   9.116  13.105  0.00  0.00    +0.000 A 
ATOM     26  N   UNL     1      53.257   8.761  12.463  0.00  0.00    +0.000 NA
ATOM     27  C   UNL     1      52.992   8.026  11.379  0.00  0.00    +0.000 A 
ATOM     28  N   UNL     1      51.797   7.680  10.890  0.00  0.00    +0.000 NA
ATOM     29  C   UNL     1      50.686   8.061  11.554  0.00  0.00    +0.000 A 
ATOM     30  O   UNL     1      49.544   7.775  11.098  0.00  0.00    +0.000 OA
ATOM     31  C   UNL     1      50.813   8.798  12.761  0.00  0.00    +0.000 A 
ENDBRANCH  19  22
ENDBRANCH   2  18
TORSDOF 6
ENDMDL
MODEL 9
REMARK VINA RESULT:    -6.391      3.430      4.575
REMARK INTER + INTRA:          -9.262
REMARK INTER:                  -9.086
REMARK INTRA:                  -0.176
REMARK UNBOUND:                -0.816
REMARK  Name = 
REMARK  7 active torsions:
REMARK  status: ('A' for Active; 'I' for Inactive)
REMARK    1  A    between atoms: C_1  and  C_2
REMARK    2  A    between atoms: C_2  and  N_3
REMARK    3  A    between atoms: C_2  and  C_16
REMARK    4  A    between atoms: C_4  and  C_6
REMARK    5  A    between atoms: C_19  and  C_20
REMARK    6  A    between atoms: C_20  and  O_21
REMARK    7  A    between atoms: C_20  and  C_22
REMARK                            x       y       z     vdW  Elec       q    Type
REMARK                         _______ _______ _______ _____ _____    ______ ____
ROOT
ATOM      1  C   UNL     1      46.371   8.505  13.431  0.00  0.00    +0.000 C 
ATOM      2  C   UNL     1      47.028   7.121  13.374  0.00  0.00    +0.000 C 
ENDROOT
BRANCH   2   3
ATOM      3  C   UNL     1      46.423   6.215  12.314  0.00  0.00    +0.000 A 
ATOM      4  C   UNL     1      46.082   4.895  12.650  0.00  0.00    +0.000 A 
ATOM      5  C   UNL     1      45.488   4.042  11.714  0.00  0.00    +0.000 A 
ATOM      6  C   UNL     1      45.233   4.485  10.410  0.00  0.00    +0.000 A 
ATOM      7  C   UNL     1      45.629   5.785  10.055  0.00  0.00    +0.000 A 
ATOM      8  C   UNL     1      46.225   6.633  10.991  0.00  0.00    +0.000 A 
BRANCH   6   9
ATOM      9  C   UNL     1      44.581   3.565   9.390  0.00  0.00    +0.000 C 
BRANCH   9  10
ATOM     10  C   UNL     1      45.556   2.829   8.496  0.00  0.00    +0.000 A 
ATOM     11  C   UNL     1      45.686   1.435   8.531  0.00  0.00    +0.000 A 
ATOM     12  C   UNL     1      46.667   0.807   7.773  0.00  0.00    +0.000 A 
ATOM     13  C   UNL     1      47.468   1.590   6.960  0.00  0.00    +0.000 A 
ATOM     14  N   UNL     1      47.330   2.927   6.832  0.00  0.00    +0.000 NA
ATOM     15  C   UNL     1      46.377   3.510   7.598  0.00  0.00    +0.000 A 
ENDBRANCH   9  10
BRANCH   9  16
ATOM     16  O   UNL     1      43.689   4.341   8.575  0.00  0.00    +0.000 OA
ATOM     17  H   UNL     1      42.935   4.591   9.136  0.00  0.00    +0.000 HD
ENDBRANCH   9  16
ENDBRANCH   6   9
ENDBRANCH   2   3
BRANCH   2  18
ATOM     18  N   UNL     1      48.452   7.248  13.199  0.00  0.00    +0.000 N 
ATOM     19  C   UNL     1      49.026   8.201  12.402  0.00  0.00    +0.000 C 
ATOM     20  O   UNL     1      48.348   9.008  11.771  0.00  0.00    +0.000 OA
ATOM     21  H   UNL     1      49.084   6.727  13.828  0.00  0.00    +0.000 HD
BRANCH  19  22
ATOM     22  C   UNL     1      50.491   8.180  12.286  0.00  0.00    +0.000 A 
ATOM     23  C   UNL     1      51.050   7.965  11.036  0.00  0.00    +0.000 A 
ATOM     24  S   UNL     1      52.746   8.030  11.028  0.00  0.00    +0.000 S 
ATOM     25  C   UNL     1      52.790   8.358  12.697  0.00  0.00    +0.000 A 
ATOM     26  N   UNL     1      53.987   8.574  13.278  0.00  0.00    +0.000 NA
ATOM     27  C   UNL     1      53.858   8.801  14.588  0.00  0.00    +0.000 A 
ATOM     28  N   UNL     1      52.741   8.787  15.321  0.00  0.00    +0.000 NA
ATOM     29  C   UNL     1      51.562   8.558  14.708  0.00  0.00    +0.000 A 
ATOM     30  O   UNL     1      50.494   8.508  15.381  0.00  0.00    +0.000 OA
ATOM     31  C   UNL     1      51.533   8.359  13.302  0.00  0.00    +0.000 A 
ENDBRANCH  19  22
ENDBRANCH   2  18
TORSDOF 6
ENDMDL
