MODEL 1
REMARK VINA RESULT:    -8.268      0.000      0.000
REMARK INTER + INTRA:         -12.963
REMARK INTER:                 -11.893
REMARK INTRA:                  -1.070
REMARK UNBOUND:                -1.070
REMARK  Name = 
REMARK  8 active torsions:
REMARK  status: ('A' for Active; 'I' for Inactive)
REMARK    1  A    between atoms: C_2  and  C_20
REMARK    2  A    between atoms: N_3  and  C_4
REMARK    3  A    between atoms: C_4  and  C_5
REMARK    4  A    between atoms: C_8  and  C_9
REMARK    5  A    between atoms: C_9  and  O_10
REMARK    6  A    between atoms: C_9  and  C_11
REMARK    7  A    between atoms: C_11  and  N_12
REMARK    8  A    between atoms: N_12  and  C_13
REMARK                            x       y       z     vdW  Elec       q    Type
REMARK                         _______ _______ _______ _____ _____    ______ ____
ROOT
ATOM      1  C   UNL     1      46.199   6.528  12.592  0.00  0.00    +0.000 A 
ATOM      2  C   UNL     1      46.242   6.445  11.198  0.00  0.00    +0.000 A 
ATOM      3  C   UNL     1      45.449   5.525  10.508  0.00  0.00    +0.000 A 
ATOM      4  C   UNL     1      44.566   4.675  11.190  0.00  0.00    +0.000 A 
ATOM      5  C   UNL     1      44.509   4.783  12.592  0.00  0.00    +0.000 A 
ATOM      6  C   UNL     1      45.312   5.698  13.285  0.00  0.00    +0.000 A 
ENDROOT
BRANCH   1   7
ATOM      7  C   UNL     1      47.084   7.517  13.306  0.00  0.00    +0.000 C 
BRANCH   7  10
ATOM      8  O   UNL     1      49.776   6.994  14.032  0.00  0.00    +0.000 OA
ATOM      9  C   UNL     1      48.884   6.842  14.860  0.00  0.00    +0.000 C 
ATOM     10  N   UNL     1      47.554   6.994  14.562  0.00  0.00    +0.000 N 
ATOM     11  H   UNL     1      46.883   7.030  15.319  0.00  0.00    +0.000 HD
BRANCH   9  12
ATOM     12  C   UNL     1      49.178   6.429  16.240  0.00  0.00    +0.000 A 
ATOM     13  C   UNL     1      49.929   7.249  17.070  0.00  0.00    +0.000 A 
ATOM     14  S   UNL     1      50.163   6.600  18.632  0.00  0.00    +0.000 S 
ATOM     15  C   UNL     1      49.236   5.222  18.262  0.00  0.00    +0.000 A 
ATOM     16  N   UNL     1      49.009   4.256  19.192  0.00  0.00    +0.000 NA
ATOM     17  C   UNL     1      48.256   3.286  18.783  0.00  0.00    +0.000 A 
ATOM     18  N   UNL     1      47.719   3.192  17.526  0.00  0.00    +0.000 N 
ATOM     19  C   UNL     1      47.989   4.098  16.535  0.00  0.00    +0.000 A 
ATOM     20  O   UNL     1      47.621   3.900  15.381  0.00  0.00    +0.000 OA
ATOM     21  C   UNL     1      48.783   5.240  16.955  0.00  0.00    +0.000 A 
ATOM     22  H   UNL     1      47.170   2.389  17.253  0.00  0.00    +0.000 HD
ENDBRANCH   9  12
ENDBRANCH   7  10
ENDBRANCH   1   7
BRANCH   4  23
ATOM     23  C   UNL     1      43.668   3.668  10.487  0.00  0.00    +0.000 C 
BRANCH  23  24
ATOM     24  O   UNL     1      42.887   3.014  11.490  0.00  0.00    +0.000 OA
ATOM     25  H   UNL     1      42.718   3.673  12.184  0.00  0.00    +0.000 HD
ENDBRANCH  23  24
BRANCH  23  26
ATOM     26  C   UNL     1      44.402   2.624   9.594  0.00  0.00    +0.000 C 
BRANCH  26  27
ATOM     27  N   UNL     1      44.647   3.060   8.210  0.00  0.00    +0.000 NA
ATOM     28  H   UNL     1      44.394   4.040   8.096  0.00  0.00    +0.000 HD
BRANCH  27  29
ATOM     29  C   UNL     1      46.028   2.914   7.822  0.00  0.00    +0.000 C 
ATOM     30  C   UNL     1      46.333   3.132   6.347  0.00  0.00    +0.000 C 
ATOM     31  C   UNL     1      47.629   2.370   6.161  0.00  0.00    +0.000 C 
ATOM     32  C   UNL     1      47.527   1.229   7.163  0.00  0.00    +0.000 C 
ATOM     33  N   UNL     1      46.358   1.515   8.000  0.00  0.00    +0.000 NA
ATOM     34  H   UNL     1      46.557   1.338   8.983  0.00  0.00    +0.000 HD
ENDBRANCH  27  29
ENDBRANCH  26  27
ENDBRANCH  23  26
ENDBRANCH   4  23
TORSDOF 8
ENDMDL
MODEL 2
REMARK VINA RESULT:    -8.062      1.161      1.270
REMARK INTER + INTRA:         -12.668
REMARK INTER:                 -11.857
REMARK INTRA:                  -0.810
REMARK UNBOUND:                -1.070
REMARK  Name = 
REMARK  8 active torsions:
REMARK  status: ('A' for Active; 'I' for Inactive)
REMARK    1  A    between atoms: C_2  and  C_20
REMARK    2  A    between atoms: N_3  and  C_4
REMARK    3  A    between atoms: C_4  and  C_5
REMARK    4  A    between atoms: C_8  and  C_9
REMARK    5  A    between atoms: C_9  and  O_10
REMARK    6  A    between atoms: C_9  and  C_11
REMARK    7  A    between atoms: C_11  and  N_12
REMARK    8  A    between atoms: N_12  and  C_13
REMARK                            x       y       z     vdW  Elec       q    Type
REMARK                         _______ _______ _______ _____ _____    ______ ____
ROOT
ATOM      1  C   UNL     1      46.914   5.861  12.650  0.00  0.00    +0.000 A 
ATOM      2  C   UNL     1      46.305   6.223  11.447  0.00  0.00    +0.000 A 
ATOM      3  C   UNL     1      45.349   5.399  10.849  0.00  0.00    +0.000 A 
ATOM      4  C   UNL     1      44.952   4.197  11.451  0.00  0.00    +0.000 A 
ATOM      5  C   UNL     1      45.551   3.851  12.677  0.00  0.00    +0.000 A 
ATOM      6  C   UNL     1      46.517   4.672  13.271  0.00  0.00    +0.000 A 
ENDROOT
BRANCH   1   7
ATOM      7  C   UNL     1      47.958   6.763  13.257  0.00  0.00    +0.000 C 
BRANCH   7  10
ATOM      8  O   UNL     1      50.175   6.764  15.027  0.00  0.00    +0.000 OA
ATOM      9  C   UNL     1      49.037   6.808  15.481  0.00  0.00    +0.000 C 
ATOM     10  N   UNL     1      47.916   6.728  14.695  0.00  0.00    +0.000 N 
ATOM     11  H   UNL     1      47.015   6.947  15.103  0.00  0.00    +0.000 HD
BRANCH   9  12
ATOM     12  C   UNL     1      48.788   6.901  16.927  0.00  0.00    +0.000 A 
ATOM     13  C   UNL     1      48.386   8.103  17.492  0.00  0.00    +0.000 A 
ATOM     14  S   UNL     1      48.148   8.012  19.180  0.00  0.00    +0.000 S 
ATOM     15  C   UNL     1      48.537   6.355  19.205  0.00  0.00    +0.000 A 
ATOM     16  N   UNL     1      48.497   5.639  20.361  0.00  0.00    +0.000 NA
ATOM     17  C   UNL     1      48.778   4.383  20.222  0.00  0.00    +0.000 A 
ATOM     18  N   UNL     1      49.104   3.783  19.034  0.00  0.00    +0.000 N 
ATOM     19  C   UNL     1      49.237   4.480  17.863  0.00  0.00    +0.000 A 
ATOM     20  O   UNL     1      49.682   3.942  16.855  0.00  0.00    +0.000 OA
ATOM     21  C   UNL     1      48.877   5.886  17.949  0.00  0.00    +0.000 A 
ATOM     22  H   UNL     1      49.353   2.805  18.997  0.00  0.00    +0.000 HD
ENDBRANCH   9  12
ENDBRANCH   7  10
ENDBRANCH   1   7
BRANCH   4  23
ATOM     23  C   UNL     1      43.902   3.271  10.853  0.00  0.00    +0.000 C 
BRANCH  23  24
ATOM     24  O   UNL     1      43.421   2.429  11.903  0.00  0.00    +0.000 OA
ATOM     25  H   UNL     1      43.952   1.615  11.871  0.00  0.00    +0.000 HD
ENDBRANCH  23  24
BRANCH  23  26
ATOM     26  C   UNL     1      44.376   2.418   9.638  0.00  0.00    +0.000 C 
BRANCH  26  27
ATOM     27  N   UNL     1      44.648   3.187   8.413  0.00  0.00    +0.000 NA
ATOM     28  H   UNL     1      44.510   4.183   8.580  0.00  0.00    +0.000 HD
BRANCH  27  29
ATOM     29  C   UNL     1      45.996   3.005   7.935  0.00  0.00    +0.000 C 
ATOM     30  C   UNL     1      46.205   3.199   6.440  0.00  0.00    +0.000 C 
ATOM     31  C   UNL     1      47.467   2.405   6.177  0.00  0.00    +0.000 C 
ATOM     32  C   UNL     1      47.407   1.277   7.198  0.00  0.00    +0.000 C 
ATOM     33  N   UNL     1      46.305   1.600   8.108  0.00  0.00    +0.000 NA
ATOM     34  H   UNL     1      46.566   1.428   9.077  0.00  0.00    +0.000 HD
ENDBRANCH  27  29
ENDBRANCH  26  27
ENDBRANCH  23  26
ENDBRANCH   4  23
TORSDOF 8
ENDMDL
MODEL 3
REMARK VINA RESULT:    -7.563      2.216      2.790
REMARK INTER + INTRA:         -11.949
REMARK INTER:                 -10.928
REMARK INTRA:                  -1.020
REMARK UNBOUND:                -1.070
REMARK  Name = 
REMARK  8 active torsions:
REMARK  status: ('A' for Active; 'I' for Inactive)
REMARK    1  A    between atoms: C_2  and  C_20
REMARK    2  A    between atoms: N_3  and  C_4
REMARK    3  A    between atoms: C_4  and  C_5
REMARK    4  A    between atoms: C_8  and  C_9
REMARK    5  A    between atoms: C_9  and  O_10
REMARK    6  A    between atoms: C_9  and  C_11
REMARK    7  A    between atoms: C_11  and  N_12
REMARK    8  A    between atoms: N_12  and  C_13
REMARK                            x       y       z     vdW  Elec       q    Type
REMARK                         _______ _______ _______ _____ _____    ______ ____
ROOT
ATOM      1  C   UNL     1      46.977   5.800  13.279  0.00  0.00    +0.000 A 
ATOM      2  C   UNL     1      46.154   6.459  12.364  0.00  0.00    +0.000 A 
ATOM      3  C   UNL     1      45.148   5.773  11.678  0.00  0.00    +0.000 A 
ATOM      4  C   UNL     1      44.918   4.409  11.907  0.00  0.00    +0.000 A 
ATOM      5  C   UNL     1      45.734   3.758  12.850  0.00  0.00    +0.000 A 
ATOM      6  C   UNL     1      46.749   4.443  13.530  0.00  0.00    +0.000 A 
ENDROOT
BRANCH   1   7
ATOM      7  C   UNL     1      48.066   6.566  13.986  0.00  0.00    +0.000 C 
BRANCH   7  10
ATOM      8  O   UNL     1      50.111   6.111  15.899  0.00  0.00    +0.000 OA
ATOM      9  C   UNL     1      48.970   6.355  16.277  0.00  0.00    +0.000 C 
ATOM     10  N   UNL     1      47.913   6.504  15.415  0.00  0.00    +0.000 N 
ATOM     11  H   UNL     1      47.041   6.877  15.770  0.00  0.00    +0.000 HD
BRANCH   9  12
ATOM     12  C   UNL     1      48.638   6.456  17.705  0.00  0.00    +0.000 A 
ATOM     13  C   UNL     1      48.808   5.363  18.543  0.00  0.00    +0.000 A 
ATOM     14  S   UNL     1      48.370   5.676  20.163  0.00  0.00    +0.000 S 
ATOM     15  C   UNL     1      47.976   7.293  19.806  0.00  0.00    +0.000 A 
ATOM     16  N   UNL     1      47.553   8.145  20.778  0.00  0.00    +0.000 NA
ATOM     17  C   UNL     1      47.328   9.353  20.369  0.00  0.00    +0.000 A 
ATOM     18  N   UNL     1      47.481   9.780  19.076  0.00  0.00    +0.000 N 
ATOM     19  C   UNL     1      47.824   8.937  18.053  0.00  0.00    +0.000 A 
ATOM     20  O   UNL     1      47.797   9.317  16.887  0.00  0.00    +0.000 OA
ATOM     21  C   UNL     1      48.144   7.581  18.464  0.00  0.00    +0.000 A 
ATOM     22  H   UNL     1      47.251  10.726  18.811  0.00  0.00    +0.000 HD
ENDBRANCH   9  12
ENDBRANCH   7  10
ENDBRANCH   1   7
BRANCH   4  23
ATOM     23  C   UNL     1      43.826   3.618  11.202  0.00  0.00    +0.000 C 
BRANCH  23  24
ATOM     24  O   UNL     1      43.589   2.433  11.966  0.00  0.00    +0.000 OA
ATOM     25  H   UNL     1      42.814   2.614  12.524  0.00  0.00    +0.000 HD
ENDBRANCH  23  24
BRANCH  23  26
ATOM     26  C   UNL     1      44.112   3.262   9.712  0.00  0.00    +0.000 C 
BRANCH  26  27
ATOM     27  N   UNL     1      44.922   2.050   9.512  0.00  0.00    +0.000 NA
ATOM     28  H   UNL     1      44.359   1.310   9.094  0.00  0.00    +0.000 HD
BRANCH  27  29
ATOM     29  C   UNL     1      46.055   2.280   8.650  0.00  0.00    +0.000 C 
ATOM     30  C   UNL     1      45.797   3.146   7.425  0.00  0.00    +0.000 C 
ATOM     31  C   UNL     1      46.907   2.726   6.484  0.00  0.00    +0.000 C 
ATOM     32  C   UNL     1      47.149   1.265   6.835  0.00  0.00    +0.000 C 
ATOM     33  N   UNL     1      46.384   0.999   8.057  0.00  0.00    +0.000 NA
ATOM     34  H   UNL     1      46.928   0.450   8.719  0.00  0.00    +0.000 HD
ENDBRANCH  27  29
ENDBRANCH  26  27
ENDBRANCH  23  26
ENDBRANCH   4  23
TORSDOF 8
ENDMDL
MODEL 4
REMARK VINA RESULT:    -7.532      1.453      1.824
REMARK INTER + INTRA:         -11.905
REMARK INTER:                 -10.732
REMARK INTRA:                  -1.173
REMARK UNBOUND:                -1.070
REMARK  Name = 
REMARK  8 active torsions:
REMARK  status: ('A' for Active; 'I' for Inactive)
REMARK    1  A    between atoms: C_2  and  C_20
REMARK    2  A    between atoms: N_3  and  C_4
REMARK    3  A    between atoms: C_4  and  C_5
REMARK    4  A    between atoms: C_8  and  C_9
REMARK    5  A    between atoms: C_9  and  O_10
REMARK    6  A    between atoms: C_9  and  C_11
REMARK    7  A    between atoms: C_11  and  N_12
REMARK    8  A    between atoms: N_12  and  C_13
REMARK                            x       y       z     vdW  Elec       q    Type
REMARK                         _______ _______ _______ _____ _____    ______ ____
ROOT
ATOM      1  C   UNL     1      47.246   7.496  12.697  0.00  0.00    +0.000 A 
ATOM      2  C   UNL     1      46.106   8.301  12.765  0.00  0.00    +0.000 A 
ATOM      3  C   UNL     1      44.894   7.878  12.214  0.00  0.00    +0.000 A 
ATOM      4  C   UNL     1      44.777   6.622  11.600  0.00  0.00    +0.000 A 
ATOM      5  C   UNL     1      45.923   5.807  11.559  0.00  0.00    +0.000 A 
ATOM      6  C   UNL     1      47.141   6.235  12.102  0.00  0.00    +0.000 A 
ENDROOT
BRANCH   1   7
ATOM      7  C   UNL     1      48.543   7.993  13.282  0.00  0.00    +0.000 C 
BRANCH   7  10
ATOM      8  O   UNL     1      48.198   8.677  16.013  0.00  0.00    +0.000 OA
ATOM      9  C   UNL     1      48.667   7.584  15.716  0.00  0.00    +0.000 C 
ATOM     10  N   UNL     1      48.940   7.213  14.424  0.00  0.00    +0.000 N 
ATOM     11  H   UNL     1      49.156   6.244  14.227  0.00  0.00    +0.000 HD
BRANCH   9  12
ATOM     12  C   UNL     1      49.022   6.594  16.744  0.00  0.00    +0.000 A 
ATOM     13  C   UNL     1      49.964   6.902  17.715  0.00  0.00    +0.000 A 
ATOM     14  S   UNL     1      50.242   5.628  18.818  0.00  0.00    +0.000 S 
ATOM     15  C   UNL     1      49.084   4.640  18.058  0.00  0.00    +0.000 A 
ATOM     16  N   UNL     1      48.800   3.397  18.531  0.00  0.00    +0.000 NA
ATOM     17  C   UNL     1      47.872   2.774  17.878  0.00  0.00    +0.000 A 
ATOM     18  N   UNL     1      47.211   3.281  16.789  0.00  0.00    +0.000 N 
ATOM     19  C   UNL     1      47.522   4.492  16.230  0.00  0.00    +0.000 A 
ATOM     20  O   UNL     1      47.022   4.842  15.166  0.00  0.00    +0.000 OA
ATOM     21  C   UNL     1      48.519   5.259  16.958  0.00  0.00    +0.000 A 
ATOM     22  H   UNL     1      46.522   2.730  16.296  0.00  0.00    +0.000 HD
ENDBRANCH   9  12
ENDBRANCH   7  10
ENDBRANCH   1   7
BRANCH   4  23
ATOM     23  C   UNL     1      43.478   6.105  11.001  0.00  0.00    +0.000 C 
BRANCH  23  24
ATOM     24  O   UNL     1      42.441   6.327  11.960  0.00  0.00    +0.000 OA
ATOM     25  H   UNL     1      42.449   7.278  12.161  0.00  0.00    +0.000 HD
ENDBRANCH  23  24
BRANCH  23  26
ATOM     26  C   UNL     1      43.496   4.614  10.548  0.00  0.00    +0.000 C 
BRANCH  26  27
ATOM     27  N   UNL     1      43.837   4.404   9.133  0.00  0.00    +0.000 NA
ATOM     28  H   UNL     1      43.962   5.298   8.660  0.00  0.00    +0.000 HD
BRANCH  27  29
ATOM     29  C   UNL     1      45.052   3.645   8.965  0.00  0.00    +0.000 C 
ATOM     30  C   UNL     1      45.667   3.671   7.572  0.00  0.00    +0.000 C 
ATOM     31  C   UNL     1      46.498   2.405   7.555  0.00  0.00    +0.000 C 
ATOM     32  C   UNL     1      45.730   1.453   8.461  0.00  0.00    +0.000 C 
ATOM     33  N   UNL     1      44.688   2.251   9.114  0.00  0.00    +0.000 NA
ATOM     34  H   UNL     1      44.618   2.025  10.104  0.00  0.00    +0.000 HD
ENDBRANCH  27  29
ENDBRANCH  26  27
ENDBRANCH  23  26
ENDBRANCH   4  23
TORSDOF 8
ENDMDL
MODEL 5
REMARK VINA RESULT:    -7.500      1.866      3.190
REMARK INTER + INTRA:         -11.859
REMARK INTER:                 -10.705
REMARK INTRA:                  -1.153
REMARK UNBOUND:                -1.070
REMARK  Name = 
REMARK  8 active torsions:
REMARK  status: ('A' for Active; 'I' for Inactive)
REMARK    1  A    between atoms: C_2  and  C_20
REMARK    2  A    between atoms: N_3  and  C_4
REMARK    3  A    between atoms: C_4  and  C_5
REMARK    4  A    between atoms: C_8  and  C_9
REMARK    5  A    between atoms: C_9  and  O_10
REMARK    6  A    between atoms: C_9  and  C_11
REMARK    7  A    between atoms: C_11  and  N_12
REMARK    8  A    between atoms: N_12  and  C_13
REMARK                            x       y       z     vdW  Elec       q    Type
REMARK                         _______ _______ _______ _____ _____    ______ ____
ROOT
ATOM      1  C   UNL     1      46.500   4.144  13.662  0.00  0.00    +0.000 A 
ATOM      2  C   UNL     1      46.493   5.475  13.238  0.00  0.00    +0.000 A 
ATOM      3  C   UNL     1      45.827   5.853  12.069  0.00  0.00    +0.000 A 
ATOM      4  C   UNL     1      45.123   4.915  11.301  0.00  0.00    +0.000 A 
ATOM      5  C   UNL     1      45.113   3.581  11.749  0.00  0.00    +0.000 A 
ATOM      6  C   UNL     1      45.789   3.199  12.915  0.00  0.00    +0.000 A 
ENDROOT
BRANCH   1   7
ATOM      7  C   UNL     1      47.247   3.767  14.916  0.00  0.00    +0.000 C 
BRANCH   7  10
ATOM      8  O   UNL     1      48.882   3.835  17.233  0.00  0.00    +0.000 OA
ATOM      9  C   UNL     1      48.461   4.884  16.756  0.00  0.00    +0.000 C 
ATOM     10  N   UNL     1      47.600   4.927  15.689  0.00  0.00    +0.000 N 
ATOM     11  H   UNL     1      47.430   5.815  15.233  0.00  0.00    +0.000 HD
BRANCH   9  12
ATOM     12  C   UNL     1      48.815   6.188  17.335  0.00  0.00    +0.000 A 
ATOM     13  C   UNL     1      48.605   6.435  18.684  0.00  0.00    +0.000 A 
ATOM     14  S   UNL     1      49.078   8.003  19.168  0.00  0.00    +0.000 S 
ATOM     15  C   UNL     1      49.614   8.388  17.599  0.00  0.00    +0.000 A 
ATOM     16  N   UNL     1      50.174   9.597  17.324  0.00  0.00    +0.000 NA
ATOM     17  C   UNL     1      50.572   9.736  16.100  0.00  0.00    +0.000 A 
ATOM     18  N   UNL     1      50.451   8.779  15.127  0.00  0.00    +0.000 N 
ATOM     19  C   UNL     1      49.820   7.581  15.339  0.00  0.00    +0.000 A 
ATOM     20  O   UNL     1      49.590   6.816  14.408  0.00  0.00    +0.000 OA
ATOM     21  C   UNL     1      49.405   7.349  16.712  0.00  0.00    +0.000 A 
ATOM     22  H   UNL     1      50.745   8.961  14.178  0.00  0.00    +0.000 HD
ENDBRANCH   9  12
ENDBRANCH   7  10
ENDBRANCH   1   7
BRANCH   4  23
ATOM     23  C   UNL     1      44.366   5.275  10.032  0.00  0.00    +0.000 C 
BRANCH  23  24
ATOM     24  O   UNL     1      42.989   5.431  10.380  0.00  0.00    +0.000 OA
ATOM     25  H   UNL     1      42.948   6.147  11.036  0.00  0.00    +0.000 HD
ENDBRANCH  23  24
BRANCH  23  26
ATOM     26  C   UNL     1      44.524   4.272   8.850  0.00  0.00    +0.000 C 
BRANCH  26  27
ATOM     27  N   UNL     1      45.786   4.393   8.103  0.00  0.00    +0.000 NA
ATOM     28  H   UNL     1      46.559   4.588   8.738  0.00  0.00    +0.000 HD
BRANCH  27  29
ATOM     29  C   UNL     1      46.112   3.193   7.372  0.00  0.00    +0.000 C 
ATOM     30  C   UNL     1      46.192   1.913   8.192  0.00  0.00    +0.000 C 
ATOM     31  C   UNL     1      47.078   1.029   7.339  0.00  0.00    +0.000 C 
ATOM     32  C   UNL     1      48.005   2.012   6.638  0.00  0.00    +0.000 C 
ATOM     33  N   UNL     1      47.478   3.351   6.915  0.00  0.00    +0.000 NA
ATOM     34  H   UNL     1      47.489   3.931   6.079  0.00  0.00    +0.000 HD
ENDBRANCH  27  29
ENDBRANCH  26  27
ENDBRANCH  23  26
ENDBRANCH   4  23
TORSDOF 8
ENDMDL
MODEL 6
REMARK VINA RESULT:    -7.436      1.636      2.202
REMARK INTER + INTRA:         -11.767
REMARK INTER:                 -11.024
REMARK INTRA:                  -0.742
REMARK UNBOUND:                -1.070
REMARK  Name = 
REMARK  8 active torsions:
REMARK  status: ('A' for Active; 'I' for Inactive)
REMARK    1  A    between atoms: C_2  and  C_20
REMARK    2  A    between atoms: N_3  and  C_4
REMARK    3  A    between atoms: C_4  and  C_5
REMARK    4  A    between atoms: C_8  and  C_9
REMARK    5  A    between atoms: C_9  and  O_10
REMARK    6  A    between atoms: C_9  and  C_11
REMARK    7  A    between atoms: C_11  and  N_12
REMARK    8  A    between atoms: N_12  and  C_13
REMARK                            x       y       z     vdW  Elec       q    Type
REMARK                         _______ _______ _______ _____ _____    ______ ____
ROOT
ATOM      1  C   UNL     1      46.546   6.443  12.812  0.00  0.00    +0.000 A 
ATOM      2  C   UNL     1      46.538   6.532  11.418  0.00  0.00    +0.000 A 
ATOM      3  C   UNL     1      45.644   5.777  10.655  0.00  0.00    +0.000 A 
ATOM      4  C   UNL     1      44.711   4.927  11.265  0.00  0.00    +0.000 A 
ATOM      5  C   UNL     1      44.708   4.862  12.671  0.00  0.00    +0.000 A 
ATOM      6  C   UNL     1      45.610   5.611  13.436  0.00  0.00    +0.000 A 
ENDROOT
BRANCH   1   7
ATOM      7  C   UNL     1      47.539   7.255  13.603  0.00  0.00    +0.000 C 
BRANCH   7  10
ATOM      8  O   UNL     1      49.104   8.216  15.765  0.00  0.00    +0.000 OA
ATOM      9  C   UNL     1      48.842   7.020  15.690  0.00  0.00    +0.000 C 
ATOM     10  N   UNL     1      48.163   6.469  14.634  0.00  0.00    +0.000 N 
ATOM     11  H   UNL     1      47.824   5.518  14.712  0.00  0.00    +0.000 HD
BRANCH   9  12
ATOM     12  C   UNL     1      49.288   6.069  16.719  0.00  0.00    +0.000 A 
ATOM     13  C   UNL     1      48.359   5.370  17.475  0.00  0.00    +0.000 A 
ATOM     14  S   UNL     1      49.068   4.315  18.616  0.00  0.00    +0.000 S 
ATOM     15  C   UNL     1      50.639   4.730  18.109  0.00  0.00    +0.000 A 
ATOM     16  N   UNL     1      51.735   4.150  18.668  0.00  0.00    +0.000 NA
ATOM     17  C   UNL     1      52.862   4.533  18.157  0.00  0.00    +0.000 A 
ATOM     18  N   UNL     1      52.989   5.448  17.146  0.00  0.00    +0.000 N 
ATOM     19  C   UNL     1      51.919   6.116  16.611  0.00  0.00    +0.000 A 
ATOM     20  O   UNL     1      52.084   7.040  15.821  0.00  0.00    +0.000 OA
ATOM     21  C   UNL     1      50.624   5.685  17.108  0.00  0.00    +0.000 A 
ATOM     22  H   UNL     1      53.899   5.736  16.816  0.00  0.00    +0.000 HD
ENDBRANCH   9  12
ENDBRANCH   7  10
ENDBRANCH   1   7
BRANCH   4  23
ATOM     23  C   UNL     1      43.703   4.096  10.484  0.00  0.00    +0.000 C 
BRANCH  23  24
ATOM     24  O   UNL     1      42.660   3.723  11.386  0.00  0.00    +0.000 OA
ATOM     25  H   UNL     1      42.949   3.995  12.273  0.00  0.00    +0.000 HD
ENDBRANCH  23  24
BRANCH  23  26
ATOM     26  C   UNL     1      44.283   2.841   9.765  0.00  0.00    +0.000 C 
BRANCH  26  27
ATOM     27  N   UNL     1      44.543   3.019   8.328  0.00  0.00    +0.000 NA
ATOM     28  H   UNL     1      44.249   3.946   8.024  0.00  0.00    +0.000 HD
BRANCH  27  29
ATOM     29  C   UNL     1      45.939   2.871   7.997  0.00  0.00    +0.000 C 
ATOM     30  C   UNL     1      46.325   3.214   6.565  0.00  0.00    +0.000 C 
ATOM     31  C   UNL     1      47.610   2.437   6.373  0.00  0.00    +0.000 C 
ATOM     32  C   UNL     1      47.430   1.212   7.258  0.00  0.00    +0.000 C 
ATOM     33  N   UNL     1      46.226   1.452   8.059  0.00  0.00    +0.000 NA
ATOM     34  H   UNL     1      46.370   1.180   9.029  0.00  0.00    +0.000 HD
ENDBRANCH  27  29
ENDBRANCH  26  27
ENDBRANCH  23  26
ENDBRANCH   4  23
TORSDOF 8
ENDMDL
MODEL 7
REMARK VINA RESULT:    -7.390      1.753      2.256
REMARK INTER + INTRA:         -11.700
REMARK INTER:                 -10.830
REMARK INTRA:                  -0.870
REMARK UNBOUND:                -1.070
REMARK  Name = 
REMARK  8 active torsions:
REMARK  status: ('A' for Active; 'I' for Inactive)
REMARK    1  A    between atoms: C_2  and  C_20
REMARK    2  A    between atoms: N_3  and  C_4
REMARK    3  A    between atoms: C_4  and  C_5
REMARK    4  A    between atoms: C_8  and  C_9
REMARK    5  A    between atoms: C_9  and  O_10
REMARK    6  A    between atoms: C_9  and  C_11
REMARK    7  A    between atoms: C_11  and  N_12
REMARK    8  A    between atoms: N_12  and  C_13
REMARK                            x       y       z     vdW  Elec       q    Type
REMARK                         _______ _______ _______ _____ _____    ______ ____
ROOT
ATOM      1  C   UNL     1      45.370   7.256  12.499  0.00  0.00    +0.000 A 
ATOM      2  C   UNL     1      45.891   6.083  13.052  0.00  0.00    +0.000 A 
ATOM      3  C   UNL     1      45.328   4.839  12.758  0.00  0.00    +0.000 A 
ATOM      4  C   UNL     1      44.242   4.725  11.878  0.00  0.00    +0.000 A 
ATOM      5  C   UNL     1      43.740   5.908  11.305  0.00  0.00    +0.000 A 
ATOM      6  C   UNL     1      44.297   7.157  11.608  0.00  0.00    +0.000 A 
ENDROOT
BRANCH   1   7
ATOM      7  C   UNL     1      45.988   8.584  12.855  0.00  0.00    +0.000 C 
BRANCH   7  10
ATOM      8  O   UNL     1      48.711   9.288  13.221  0.00  0.00    +0.000 OA
ATOM      9  C   UNL     1      48.041   8.938  14.186  0.00  0.00    +0.000 C 
ATOM     10  N   UNL     1      46.744   8.504  14.077  0.00  0.00    +0.000 N 
ATOM     11  H   UNL     1      46.190   8.399  14.918  0.00  0.00    +0.000 HD
BRANCH   9  12
ATOM     12  C   UNL     1      48.603   8.909  15.543  0.00  0.00    +0.000 A 
ATOM     13  C   UNL     1      48.873  10.094  16.214  0.00  0.00    +0.000 A 
ATOM     14  S   UNL     1      49.521   9.857  17.776  0.00  0.00    +0.000 S 
ATOM     15  C   UNL     1      49.426   8.164  17.622  0.00  0.00    +0.000 A 
ATOM     16  N   UNL     1      49.802   7.343  18.638  0.00  0.00    +0.000 NA
ATOM     17  C   UNL     1      49.638   6.082  18.396  0.00  0.00    +0.000 A 
ATOM     18  N   UNL     1      49.140   5.571  17.226  0.00  0.00    +0.000 N 
ATOM     19  C   UNL     1      48.828   6.356  16.148  0.00  0.00    +0.000 A 
ATOM     20  O   UNL     1      48.536   5.855  15.066  0.00  0.00    +0.000 OA
ATOM     21  C   UNL     1      48.938   7.785  16.384  0.00  0.00    +0.000 A 
ATOM     22  H   UNL     1      49.073   4.574  17.081  0.00  0.00    +0.000 HD
ENDBRANCH   9  12
ENDBRANCH   7  10
ENDBRANCH   1   7
BRANCH   4  23
ATOM     23  C   UNL     1      43.603   3.395  11.509  0.00  0.00    +0.000 C 
BRANCH  23  24
ATOM     24  O   UNL     1      43.736   2.525  12.636  0.00  0.00    +0.000 OA
ATOM     25  H   UNL     1      43.406   3.016  13.406  0.00  0.00    +0.000 HD
ENDBRANCH  23  24
BRANCH  23  26
ATOM     26  C   UNL     1      44.162   2.717  10.222  0.00  0.00    +0.000 C 
BRANCH  26  27
ATOM     27  N   UNL     1      44.264   3.604   9.053  0.00  0.00    +0.000 NA
ATOM     28  H   UNL     1      44.697   4.489   9.314  0.00  0.00    +0.000 HD
BRANCH  27  29
ATOM     29  C   UNL     1      45.049   3.028   7.990  0.00  0.00    +0.000 C 
ATOM     30  C   UNL     1      45.971   1.883   8.386  0.00  0.00    +0.000 C 
ATOM     31  C   UNL     1      47.016   1.906   7.291  0.00  0.00    +0.000 C 
ATOM     32  C   UNL     1      47.101   3.374   6.899  0.00  0.00    +0.000 C 
ATOM     33  N   UNL     1      45.989   4.049   7.576  0.00  0.00    +0.000 NA
ATOM     34  H   UNL     1      45.523   4.704   6.951  0.00  0.00    +0.000 HD
ENDBRANCH  27  29
ENDBRANCH  26  27
ENDBRANCH  23  26
ENDBRANCH   4  23
TORSDOF 8
ENDMDL
MODEL 8
REMARK VINA RESULT:    -7.164      2.604      3.305
REMARK INTER + INTRA:         -11.375
REMARK INTER:                 -10.521
REMARK INTRA:                  -0.854
REMARK UNBOUND:                -1.070
REMARK  Name = 
REMARK  8 active torsions:
REMARK  status: ('A' for Active; 'I' for Inactive)
REMARK    1  A    between atoms: C_2  and  C_20
REMARK    2  A    between atoms: N_3  and  C_4
REMARK    3  A    between atoms: C_4  and  C_5
REMARK    4  A    between atoms: C_8  and  C_9
REMARK    5  A    between atoms: C_9  and  O_10
REMARK    6  A    between atoms: C_9  and  C_11
REMARK    7  A    between atoms: C_11  and  N_12
REMARK    8  A    between atoms: N_12  and  C_13
REMARK                            x       y       z     vdW  Elec       q    Type
REMARK                         _______ _______ _______ _____ _____    ______ ____
ROOT
ATOM      1  C   UNL     1      46.748   4.821  13.736  0.00  0.00    +0.000 A 
ATOM      2  C   UNL     1      46.364   3.544  13.318  0.00  0.00    +0.000 A 
ATOM      3  C   UNL     1      45.355   3.374  12.366  0.00  0.00    +0.000 A 
ATOM      4  C   UNL     1      44.716   4.478  11.784  0.00  0.00    +0.000 A 
ATOM      5  C   UNL     1      45.126   5.760  12.192  0.00  0.00    +0.000 A 
ATOM      6  C   UNL     1      46.131   5.932  13.153  0.00  0.00    +0.000 A 
ENDROOT
BRANCH   1   7
ATOM      7  C   UNL     1      47.825   4.968  14.780  0.00  0.00    +0.000 C 
BRANCH   7  10
ATOM      8  O   UNL     1      49.951   6.169  16.224  0.00  0.00    +0.000 OA
ATOM      9  C   UNL     1      48.958   6.831  15.944  0.00  0.00    +0.000 C 
ATOM     10  N   UNL     1      47.857   6.301  15.322  0.00  0.00    +0.000 N 
ATOM     11  H   UNL     1      47.149   6.928  14.961  0.00  0.00    +0.000 HD
BRANCH   9  12
ATOM     12  C   UNL     1      48.855   8.253  16.305  0.00  0.00    +0.000 A 
ATOM     13  C   UNL     1      49.344   9.229  15.449  0.00  0.00    +0.000 A 
ATOM     14  S   UNL     1      49.133  10.817  16.041  0.00  0.00    +0.000 S 
ATOM     15  C   UNL     1      48.346  10.253  17.441  0.00  0.00    +0.000 A 
ATOM     16  N   UNL     1      47.868  11.117  18.376  0.00  0.00    +0.000 NA
ATOM     17  C   UNL     1      47.259  10.549  19.367  0.00  0.00    +0.000 A 
ATOM     18  N   UNL     1      47.094   9.196  19.510  0.00  0.00    +0.000 N 
ATOM     19  C   UNL     1      47.630   8.288  18.636  0.00  0.00    +0.000 A 
ATOM     20  O   UNL     1      47.599   7.086  18.878  0.00  0.00    +0.000 OA
ATOM     21  C   UNL     1      48.276   8.872  17.473  0.00  0.00    +0.000 A 
ATOM     22  H   UNL     1      46.643   8.811  20.327  0.00  0.00    +0.000 HD
ENDBRANCH   9  12
ENDBRANCH   7  10
ENDBRANCH   1   7
BRANCH   4  23
ATOM     23  C   UNL     1      43.625   4.350  10.731  0.00  0.00    +0.000 C 
BRANCH  23  24
ATOM     24  O   UNL     1      42.763   3.282  11.131  0.00  0.00    +0.000 OA
ATOM     25  H   UNL     1      41.942   3.382  10.620  0.00  0.00    +0.000 HD
ENDBRANCH  23  24
BRANCH  23  26
ATOM     26  C   UNL     1      44.124   4.135   9.271  0.00  0.00    +0.000 C 
BRANCH  26  27
ATOM     27  N   UNL     1      44.380   2.732   8.907  0.00  0.00    +0.000 NA
ATOM     28  H   UNL     1      43.820   2.466   8.098  0.00  0.00    +0.000 HD
BRANCH  27  29
ATOM     29  C   UNL     1      45.763   2.490   8.582  0.00  0.00    +0.000 C 
ATOM     30  C   UNL     1      46.265   3.118   7.289  0.00  0.00    +0.000 C 
ATOM     31  C   UNL     1      47.457   2.250   6.941  0.00  0.00    +0.000 C 
ATOM     32  C   UNL     1      47.083   0.881   7.491  0.00  0.00    +0.000 C 
ATOM     33  N   UNL     1      45.875   1.073   8.298  0.00  0.00    +0.000 NA
ATOM     34  H   UNL     1      45.932   0.557   9.174  0.00  0.00    +0.000 HD
ENDBRANCH  27  29
ENDBRANCH  26  27
ENDBRANCH  23  26
ENDBRANCH   4  23
TORSDOF 8
ENDMDL
MODEL 9
REMARK VINA RESULT:    -6.994      2.280      3.034
REMARK INTER + INTRA:         -11.131
REMARK INTER:                 -10.101
REMARK INTRA:                  -1.030
REMARK UNBOUND:                -1.070
REMARK  Name = 
REMARK  8 active torsions:
REMARK  status: ('A' for Active; 'I' for Inactive)
REMARK    1  A    between atoms: C_2  and  C_20
REMARK    2  A    between atoms: N_3  and  C_4
REMARK    3  A    between atoms: C_4  and  C_5
REMARK    4  A    between atoms: C_8  and  C_9
REMARK    5  A    between atoms: C_9  and  O_10
REMARK    6  A    between atoms: C_9  and  C_11
REMARK    7  A    between atoms: C_11  and  N_12
REMARK    8  A    between atoms: N_12  and  C_13
REMARK                            x       y       z     vdW  Elec       q    Type
REMARK                         _______ _______ _______ _____ _____    ______ ____
ROOT
ATOM      1  C   UNL     1      46.696   4.528  14.081  0.00  0.00    +0.000 A 
ATOM      2  C   UNL     1      46.970   5.801  13.576  0.00  0.00    +0.000 A 
ATOM      3  C   UNL     1      46.500   6.190  12.319  0.00  0.00    +0.000 A 
ATOM      4  C   UNL     1      45.718   5.327  11.539  0.00  0.00    +0.000 A 
ATOM      5  C   UNL     1      45.425   4.056  12.066  0.00  0.00    +0.000 A 
ATOM      6  C   UNL     1      45.904   3.661  13.322  0.00  0.00    +0.000 A 
ENDROOT
BRANCH   1   7
ATOM      7  C   UNL     1      47.236   4.132  15.432  0.00  0.00    +0.000 C 
BRANCH   7  10
ATOM      8  O   UNL     1      49.675   4.220  16.878  0.00  0.00    +0.000 OA
ATOM      9  C   UNL     1      49.011   5.242  16.746  0.00  0.00    +0.000 C 
ATOM     10  N   UNL     1      47.784   5.262  16.134  0.00  0.00    +0.000 N 
ATOM     11  H   UNL     1      47.368   6.155  15.899  0.00  0.00    +0.000 HD
BRANCH   9  12
ATOM     12  C   UNL     1      49.466   6.530  17.289  0.00  0.00    +0.000 A 
ATOM     13  C   UNL     1      50.608   7.137  16.786  0.00  0.00    +0.000 A 
ATOM     14  S   UNL     1      50.975   8.623  17.542  0.00  0.00    +0.000 S 
ATOM     15  C   UNL     1      49.598   8.524  18.537  0.00  0.00    +0.000 A 
ATOM     16  N   UNL     1      49.295   9.513  19.420  0.00  0.00    +0.000 NA
ATOM     17  C   UNL     1      48.198   9.322  20.082  0.00  0.00    +0.000 A 
ATOM     18  N   UNL     1      47.386   8.227  19.946  0.00  0.00    +0.000 N 
ATOM     19  C   UNL     1      47.696   7.170  19.131  0.00  0.00    +0.000 A 
ATOM     20  O   UNL     1      47.030   6.140  19.153  0.00  0.00    +0.000 OA
ATOM     21  C   UNL     1      48.888   7.357  18.321  0.00  0.00    +0.000 A 
ATOM     22  H   UNL     1      46.563   8.116  20.520  0.00  0.00    +0.000 HD
ENDBRANCH   9  12
ENDBRANCH   7  10
ENDBRANCH   1   7
BRANCH   4  23
ATOM     23  C   UNL     1      45.167   5.706  10.172  0.00  0.00    +0.000 C 
BRANCH  23  24
ATOM     24  O   UNL     1      43.751   5.514  10.210  0.00  0.00    +0.000 OA
ATOM     25  H   UNL     1      43.439   5.907  11.043  0.00  0.00    +0.000 HD
ENDBRANCH  23  24
BRANCH  23  26
ATOM     26  C   UNL     1      45.792   4.949   8.963  0.00  0.00    +0.000 C 
BRANCH  26  27
ATOM     27  N   UNL     1      44.957   3.868   8.415  0.00  0.00    +0.000 NA
ATOM     28  H   UNL     1      44.176   4.253   7.886  0.00  0.00    +0.000 HD
BRANCH  27  29
ATOM     29  C   UNL     1      45.694   2.993   7.536  0.00  0.00    +0.000 C 
ATOM     30  C   UNL     1      46.161   1.677   8.142  0.00  0.00    +0.000 C 
ATOM     31  C   UNL     1      47.325   1.298   7.251  0.00  0.00    +0.000 C 
ATOM     32  C   UNL     1      47.901   2.638   6.815  0.00  0.00    +0.000 C 
ATOM     33  N   UNL     1      46.947   3.662   7.250  0.00  0.00    +0.000 NA
ATOM     34  H   UNL     1      46.800   4.359   6.524  0.00  0.00    +0.000 HD
ENDBRANCH  27  29
ENDBRANCH  26  27
ENDBRANCH  23  26
ENDBRANCH   4  23
TORSDOF 8
ENDMDL
