MODEL 1
REMARK VINA RESULT:    -9.824      0.000      0.000
REMARK INTER + INTRA:         -14.431
REMARK INTER:                 -13.557
REMARK INTRA:                  -0.874
REMARK UNBOUND:                -0.874
REMARK  Name = 
REMARK  8 active torsions:
REMARK  status: ('A' for Active; 'I' for Inactive)
REMARK    1  A    between atoms: C_1  and  C_2
REMARK    2  A    between atoms: C_2  and  O_3
REMARK    3  A    between atoms: C_5  and  O_6
REMARK    4  A    between atoms: O_6  and  C_7
REMARK    5  A    between atoms: C_9  and  C_10
REMARK    6  A    between atoms: C_10  and  C_13
REMARK    7  A    between atoms: C_13  and  N_14
REMARK    8  A    between atoms: C_18  and  C_19
REMARK                            x       y       z     vdW  Elec       q    Type
REMARK                         _______ _______ _______ _____ _____    ______ ____
ROOT
ATOM      1  C   UNL     1      43.286   5.299  12.212  0.00  0.00    +0.000 C 
ATOM      2  F   UNL     1      42.742   4.695  13.312  0.00  0.00    +0.000 F 
ATOM      3  F   UNL     1      42.363   6.234  11.824  0.00  0.00    +0.000 F 
ENDROOT
BRANCH   1   6
ATOM      4  C   UNL     1      46.797   5.832  13.584  0.00  0.00    +0.000 A 
ATOM      5  C   UNL     1      45.580   5.230  13.286  0.00  0.00    +0.000 A 
ATOM      6  C   UNL     1      44.616   5.960  12.570  0.00  0.00    +0.000 A 
ATOM      7  C   UNL     1      44.951   7.272  12.198  0.00  0.00    +0.000 A 
ATOM      8  C   UNL     1      46.192   7.782  12.544  0.00  0.00    +0.000 A 
ATOM      9  N   UNL     1      47.118   7.091  13.235  0.00  0.00    +0.000 NA
BRANCH   4  10
ATOM     10  O   UNL     1      47.724   5.088  14.293  0.00  0.00    +0.000 OA
BRANCH  10  14
ATOM     11  C   UNL     1      48.896   2.993  18.119  0.00  0.00    +0.000 C 
ATOM     12  C   UNL     1      47.711   3.298  17.216  0.00  0.00    +0.000 C 
ATOM     13  C   UNL     1      47.961   3.000  15.719  0.00  0.00    +0.000 C 
ATOM     14  C   UNL     1      47.182   4.297  15.380  0.00  0.00    +0.000 C 
ATOM     15  C   UNL     1      47.539   4.786  16.808  0.00  0.00    +0.000 C 
BRANCH  12  16
ATOM     16  O   UNL     1      46.525   2.688  17.775  0.00  0.00    +0.000 OA
ATOM     17  H   UNL     1      46.277   3.249  18.531  0.00  0.00    +0.000 HD
ENDBRANCH  12  16
ENDBRANCH  10  14
ENDBRANCH   4  10
ENDBRANCH   1   6
BRANCH   1  18
ATOM     18  C   UNL     1      43.393   4.246  11.076  0.00  0.00    +0.000 C 
BRANCH  18  19
ATOM     19  N   UNL     1      43.727   4.777   9.743  0.00  0.00    +0.000 N 
ATOM     20  C   UNL     1      44.614   3.950   9.053  0.00  0.00    +0.000 A 
ATOM     21  N   UNL     1      44.601   2.630   9.298  0.00  0.00    +0.000 NA
ATOM     22  C   UNL     1      45.509   1.868   8.653  0.00  0.00    +0.000 A 
ATOM     23  C   UNL     1      46.427   2.370   7.763  0.00  0.00    +0.000 A 
ATOM     24  C   UNL     1      46.358   3.731   7.573  0.00  0.00    +0.000 A 
ATOM     25  N   UNL     1      45.469   4.536   8.206  0.00  0.00    +0.000 NA
ATOM     26  H   UNL     1      44.099   5.721   9.723  0.00  0.00    +0.000 HD
BRANCH  23  27
ATOM     27  C   UNL     1      47.410   1.468   7.151  0.00  0.00    +0.000 C 
ATOM     28  N   UNL     1      48.435   2.010   6.430  0.00  0.00    +0.000 N 
ATOM     29  O   UNL     1      47.296   0.254   7.266  0.00  0.00    +0.000 OA
ATOM     30  H   UNL     1      48.506   2.981   6.165  0.00  0.00    +0.000 HD
ATOM     31  H   UNL     1      49.048   1.351   5.960  0.00  0.00    +0.000 HD
ENDBRANCH  23  27
ENDBRANCH  18  19
ENDBRANCH   1  18
TORSDOF 7
ENDMDL
MODEL 2
REMARK VINA RESULT:    -8.258      2.668      3.736
REMARK INTER + INTRA:         -12.269
REMARK INTER:                 -11.824
REMARK INTRA:                  -0.445
REMARK UNBOUND:                -0.874
REMARK  Name = 
REMARK  8 active torsions:
REMARK  status: ('A' for Active; 'I' for Inactive)
REMARK    1  A    between atoms: C_1  and  C_2
REMARK    2  A    between atoms: C_2  and  O_3
REMARK    3  A    between atoms: C_5  and  O_6
REMARK    4  A    between atoms: O_6  and  C_7
REMARK    5  A    between atoms: C_9  and  C_10
REMARK    6  A    between atoms: C_10  and  C_13
REMARK    7  A    between atoms: C_13  and  N_14
REMARK    8  A    between atoms: C_18  and  C_19
REMARK                            x       y       z     vdW  Elec       q    Type
REMARK                         _______ _______ _______ _____ _____    ______ ____
ROOT
ATOM      1  C   UNL     1      44.351   4.347  12.252  0.00  0.00    +0.000 C 
ATOM      2  F   UNL     1      45.377   3.444  12.220  0.00  0.00    +0.000 F 
ATOM      3  F   UNL     1      43.661   4.065  13.402  0.00  0.00    +0.000 F 
ENDROOT
BRANCH   1   6
ATOM      4  C   UNL     1      46.628   7.328  12.899  0.00  0.00    +0.000 A 
ATOM      5  C   UNL     1      46.128   6.032  12.904  0.00  0.00    +0.000 A 
ATOM      6  C   UNL     1      44.896   5.774  12.278  0.00  0.00    +0.000 A 
ATOM      7  C   UNL     1      44.241   6.862  11.680  0.00  0.00    +0.000 A 
ATOM      8  C   UNL     1      44.822   8.118  11.730  0.00  0.00    +0.000 A 
ATOM      9  N   UNL     1      45.998   8.375  12.334  0.00  0.00    +0.000 NA
BRANCH   4  10
ATOM     10  O   UNL     1      47.841   7.550  13.528  0.00  0.00    +0.000 OA
BRANCH  10  14
ATOM     11  C   UNL     1      51.235   9.366  11.164  0.00  0.00    +0.000 C 
ATOM     12  C   UNL     1      50.651   8.039  11.626  0.00  0.00    +0.000 C 
ATOM     13  C   UNL     1      49.133   7.891  11.368  0.00  0.00    +0.000 C 
ATOM     14  C   UNL     1      49.013   7.200  12.751  0.00  0.00    +0.000 C 
ATOM     15  C   UNL     1      50.321   7.939  13.140  0.00  0.00    +0.000 C 
BRANCH  12  16
ATOM     16  O   UNL     1      51.469   6.963  11.117  0.00  0.00    +0.000 OA
ATOM     17  H   UNL     1      50.980   6.147  11.320  0.00  0.00    +0.000 HD
ENDBRANCH  12  16
ENDBRANCH  10  14
ENDBRANCH   4  10
ENDBRANCH   1   6
BRANCH   1  18
ATOM     18  C   UNL     1      43.405   4.058  11.055  0.00  0.00    +0.000 C 
BRANCH  18  19
ATOM     19  N   UNL     1      43.776   4.694   9.779  0.00  0.00    +0.000 N 
ATOM     20  C   UNL     1      44.656   3.908   9.034  0.00  0.00    +0.000 A 
ATOM     21  N   UNL     1      44.607   2.573   9.162  0.00  0.00    +0.000 NA
ATOM     22  C   UNL     1      45.508   1.847   8.468  0.00  0.00    +0.000 A 
ATOM     23  C   UNL     1      46.454   2.401   7.641  0.00  0.00    +0.000 A 
ATOM     24  C   UNL     1      46.422   3.774   7.570  0.00  0.00    +0.000 A 
ATOM     25  N   UNL     1      45.540   4.544   8.256  0.00  0.00    +0.000 NA
ATOM     26  H   UNL     1      44.172   5.627   9.849  0.00  0.00    +0.000 HD
BRANCH  23  27
ATOM     27  C   UNL     1      47.427   1.531   6.969  0.00  0.00    +0.000 C 
ATOM     28  N   UNL     1      48.556   2.093   6.446  0.00  0.00    +0.000 N 
ATOM     29  O   UNL     1      47.214   0.330   6.858  0.00  0.00    +0.000 OA
ATOM     30  H   UNL     1      48.724   3.085   6.363  0.00  0.00    +0.000 HD
ATOM     31  H   UNL     1      49.164   1.471   5.924  0.00  0.00    +0.000 HD
ENDBRANCH  23  27
ENDBRANCH  18  19
ENDBRANCH   1  18
TORSDOF 7
ENDMDL
MODEL 3
REMARK VINA RESULT:    -7.884      2.734      8.199
REMARK INTER + INTRA:         -11.753
REMARK INTER:                 -11.264
REMARK INTRA:                  -0.489
REMARK UNBOUND:                -0.874
REMARK  Name = 
REMARK  8 active torsions:
REMARK  status: ('A' for Active; 'I' for Inactive)
REMARK    1  A    between atoms: C_1  and  C_2
REMARK    2  A    between atoms: C_2  and  O_3
REMARK    3  A    between atoms: C_5  and  O_6
REMARK    4  A    between atoms: O_6  and  C_7
REMARK    5  A    between atoms: C_9  and  C_10
REMARK    6  A    between atoms: C_10  and  C_13
REMARK    7  A    between atoms: C_13  and  N_14
REMARK    8  A    between atoms: C_18  and  C_19
REMARK                            x       y       z     vdW  Elec       q    Type
REMARK                         _______ _______ _______ _____ _____    ______ ____
ROOT
ATOM      1  C   UNL     1      45.927   5.851  12.114  0.00  0.00    +0.000 C 
ATOM      2  F   UNL     1      46.568   6.395  11.035  0.00  0.00    +0.000 F 
ATOM      3  F   UNL     1      45.187   6.875  12.644  0.00  0.00    +0.000 F 
ENDROOT
BRANCH   1   6
ATOM      4  C   UNL     1      44.461   2.998  10.064  0.00  0.00    +0.000 A 
ATOM      5  C   UNL     1      45.268   4.063  10.443  0.00  0.00    +0.000 A 
ATOM      6  C   UNL     1      45.028   4.697  11.674  0.00  0.00    +0.000 A 
ATOM      7  C   UNL     1      43.968   4.203  12.452  0.00  0.00    +0.000 A 
ATOM      8  C   UNL     1      43.220   3.136  11.985  0.00  0.00    +0.000 A 
ATOM      9  N   UNL     1      43.440   2.528  10.804  0.00  0.00    +0.000 NA
BRANCH   4  10
ATOM     10  O   UNL     1      44.721   2.397   8.844  0.00  0.00    +0.000 OA
BRANCH  10  14
ATOM     11  C   UNL     1      47.034   2.476   4.965  0.00  0.00    +0.000 C 
ATOM     12  C   UNL     1      47.168   2.703   6.463  0.00  0.00    +0.000 C 
ATOM     13  C   UNL     1      46.584   1.565   7.331  0.00  0.00    +0.000 C 
ATOM     14  C   UNL     1      46.042   2.647   8.301  0.00  0.00    +0.000 C 
ATOM     15  C   UNL     1      46.099   3.630   7.102  0.00  0.00    +0.000 C 
BRANCH  12  16
ATOM     16  O   UNL     1      48.535   3.066   6.762  0.00  0.00    +0.000 OA
ATOM     17  H   UNL     1      48.505   4.008   7.006  0.00  0.00    +0.000 HD
ENDBRANCH  12  16
ENDBRANCH  10  14
ENDBRANCH   4  10
ENDBRANCH   1   6
BRANCH   1  18
ATOM     18  C   UNL     1      46.994   5.450  13.167  0.00  0.00    +0.000 C 
BRANCH  18  19
ATOM     19  N   UNL     1      46.866   4.090  13.720  0.00  0.00    +0.000 N 
ATOM     20  C   UNL     1      47.392   3.993  15.009  0.00  0.00    +0.000 A 
ATOM     21  N   UNL     1      47.378   5.075  15.803  0.00  0.00    +0.000 NA
ATOM     22  C   UNL     1      47.942   4.960  17.023  0.00  0.00    +0.000 A 
ATOM     23  C   UNL     1      48.516   3.802  17.488  0.00  0.00    +0.000 A 
ATOM     24  C   UNL     1      48.477   2.747  16.607  0.00  0.00    +0.000 A 
ATOM     25  N   UNL     1      47.927   2.819  15.368  0.00  0.00    +0.000 NA
ATOM     26  H   UNL     1      47.271   3.345  13.160  0.00  0.00    +0.000 HD
BRANCH  23  27
ATOM     27  C   UNL     1      49.153   3.790  18.810  0.00  0.00    +0.000 C 
ATOM     28  N   UNL     1      48.425   3.366  19.884  0.00  0.00    +0.000 N 
ATOM     29  O   UNL     1      50.307   4.178  18.947  0.00  0.00    +0.000 OA
ATOM     30  H   UNL     1      47.433   3.181  19.874  0.00  0.00    +0.000 HD
ATOM     31  H   UNL     1      48.876   3.446  20.790  0.00  0.00    +0.000 HD
ENDBRANCH  23  27
ENDBRANCH  18  19
ENDBRANCH   1  18
TORSDOF 7
ENDMDL
MODEL 4
REMARK VINA RESULT:    -7.839      2.376      4.199
REMARK INTER + INTRA:         -11.691
REMARK INTER:                 -10.999
REMARK INTRA:                  -0.693
REMARK UNBOUND:                -0.874
REMARK  Name = 
REMARK  8 active torsions:
REMARK  status: ('A' for Active; 'I' for Inactive)
REMARK    1  A    between atoms: C_1  and  C_2
REMARK    2  A    between atoms: C_2  and  O_3
REMARK    3  A    between atoms: C_5  and  O_6
REMARK    4  A    between atoms: O_6  and  C_7
REMARK    5  A    between atoms: C_9  and  C_10
REMARK    6  A    between atoms: C_10  and  C_13
REMARK    7  A    between atoms: C_13  and  N_14
REMARK    8  A    between atoms: C_18  and  C_19
REMARK                            x       y       z     vdW  Elec       q    Type
REMARK                         _______ _______ _______ _____ _____    ______ ____
ROOT
ATOM      1  C   UNL     1      43.617   5.567  11.724  0.00  0.00    +0.000 C 
ATOM      2  F   UNL     1      42.637   5.272  12.631  0.00  0.00    +0.000 F 
ATOM      3  F   UNL     1      43.335   6.837  11.294  0.00  0.00    +0.000 F 
ENDROOT
BRANCH   1   6
ATOM      4  C   UNL     1      47.275   6.264  12.513  0.00  0.00    +0.000 A 
ATOM      5  C   UNL     1      46.035   6.306  11.887  0.00  0.00    +0.000 A 
ATOM      6  C   UNL     1      44.993   5.507  12.386  0.00  0.00    +0.000 A 
ATOM      7  C   UNL     1      45.278   4.704  13.502  0.00  0.00    +0.000 A 
ATOM      8  C   UNL     1      46.548   4.732  14.053  0.00  0.00    +0.000 A 
ATOM      9  N   UNL     1      47.554   5.489  13.577  0.00  0.00    +0.000 NA
BRANCH   4  10
ATOM     10  O   UNL     1      48.283   7.060  11.995  0.00  0.00    +0.000 OA
BRANCH  10  14
ATOM     11  C   UNL     1      46.664  11.270  11.755  0.00  0.00    +0.000 C 
ATOM     12  C   UNL     1      47.643  10.388  12.514  0.00  0.00    +0.000 C 
ATOM     13  C   UNL     1      48.578   9.553  11.608  0.00  0.00    +0.000 C 
ATOM     14  C   UNL     1      48.406   8.372  12.599  0.00  0.00    +0.000 C 
ATOM     15  C   UNL     1      47.073   9.039  13.031  0.00  0.00    +0.000 C 
BRANCH  12  16
ATOM     16  O   UNL     1      48.310  11.183  13.520  0.00  0.00    +0.000 OA
ATOM     17  H   UNL     1      49.204  10.808  13.595  0.00  0.00    +0.000 HD
ENDBRANCH  12  16
ENDBRANCH  10  14
ENDBRANCH   4  10
ENDBRANCH   1   6
BRANCH   1  18
ATOM     18  C   UNL     1      43.463   4.615  10.508  0.00  0.00    +0.000 C 
BRANCH  18  19
ATOM     19  N   UNL     1      44.140   3.312  10.626  0.00  0.00    +0.000 N 
ATOM     20  C   UNL     1      44.999   3.065   9.555  0.00  0.00    +0.000 A 
ATOM     21  N   UNL     1      45.582   4.102   8.933  0.00  0.00    +0.000 NA
ATOM     22  C   UNL     1      46.365   3.830   7.868  0.00  0.00    +0.000 A 
ATOM     23  C   UNL     1      46.598   2.559   7.402  0.00  0.00    +0.000 A 
ATOM     24  C   UNL     1      45.964   1.563   8.107  0.00  0.00    +0.000 A 
ATOM     25  N   UNL     1      45.162   1.791   9.178  0.00  0.00    +0.000 NA
ATOM     26  H   UNL     1      43.531   2.506  10.731  0.00  0.00    +0.000 HD
BRANCH  23  27
ATOM     27  C   UNL     1      47.422   2.368   6.203  0.00  0.00    +0.000 C 
ATOM     28  N   UNL     1      47.210   3.181   5.127  0.00  0.00    +0.000 N 
ATOM     29  O   UNL     1      48.263   1.479   6.162  0.00  0.00    +0.000 OA
ATOM     30  H   UNL     1      46.440   3.826   5.031  0.00  0.00    +0.000 HD
ATOM     31  H   UNL     1      47.747   2.967   4.292  0.00  0.00    +0.000 HD
ENDBRANCH  23  27
ENDBRANCH  18  19
ENDBRANCH   1  18
TORSDOF 7
ENDMDL
MODEL 5
REMARK VINA RESULT:    -7.720      2.549      4.064
REMARK INTER + INTRA:         -11.527
REMARK INTER:                 -10.583
REMARK INTRA:                  -0.943
REMARK UNBOUND:                -0.874
REMARK  Name = 
REMARK  8 active torsions:
REMARK  status: ('A' for Active; 'I' for Inactive)
REMARK    1  A    between atoms: C_1  and  C_2
REMARK    2  A    between atoms: C_2  and  O_3
REMARK    3  A    between atoms: C_5  and  O_6
REMARK    4  A    between atoms: O_6  and  C_7
REMARK    5  A    between atoms: C_9  and  C_10
REMARK    6  A    between atoms: C_10  and  C_13
REMARK    7  A    between atoms: C_13  and  N_14
REMARK    8  A    between atoms: C_18  and  C_19
REMARK                            x       y       z     vdW  Elec       q    Type
REMARK                         _______ _______ _______ _____ _____    ______ ____
ROOT
ATOM      1  C   UNL     1      44.487   6.035  11.782  0.00  0.00    +0.000 C 
ATOM      2  F   UNL     1      43.542   6.695  12.517  0.00  0.00    +0.000 F 
ATOM      3  F   UNL     1      44.912   6.942  10.848  0.00  0.00    +0.000 F 
ENDROOT
BRANCH   1   6
ATOM      4  C   UNL     1      47.713   6.084  13.803  0.00  0.00    +0.000 A 
ATOM      5  C   UNL     1      46.680   6.491  12.967  0.00  0.00    +0.000 A 
ATOM      6  C   UNL     1      45.642   5.589  12.677  0.00  0.00    +0.000 A 
ATOM      7  C   UNL     1      45.720   4.314  13.259  0.00  0.00    +0.000 A 
ATOM      8  C   UNL     1      46.792   4.004  14.079  0.00  0.00    +0.000 A 
ATOM      9  N   UNL     1      47.793   4.860  14.357  0.00  0.00    +0.000 NA
BRANCH   4  10
ATOM     10  O   UNL     1      48.721   6.995  14.066  0.00  0.00    +0.000 OA
BRANCH  10  14
ATOM     11  C   UNL     1      51.853   9.811  12.436  0.00  0.00    +0.000 C 
ATOM     12  C   UNL     1      50.425   9.332  12.226  0.00  0.00    +0.000 C 
ATOM     13  C   UNL     1      49.563   9.326  13.511  0.00  0.00    +0.000 C 
ATOM     14  C   UNL     1      48.945   7.986  13.033  0.00  0.00    +0.000 C 
ATOM     15  C   UNL     1      50.231   7.792  12.185  0.00  0.00    +0.000 C 
BRANCH  12  16
ATOM     16  O   UNL     1      49.851  10.039  11.104  0.00  0.00    +0.000 OA
ATOM     17  H   UNL     1      48.935  10.238  11.364  0.00  0.00    +0.000 HD
ENDBRANCH  12  16
ENDBRANCH  10  14
ENDBRANCH   4  10
ENDBRANCH   1   6
BRANCH   1  18
ATOM     18  C   UNL     1      43.794   4.871  11.023  0.00  0.00    +0.000 C 
BRANCH  18  19
ATOM     19  N   UNL     1      43.832   4.955   9.553  0.00  0.00    +0.000 N 
ATOM     20  C   UNL     1      44.626   3.955   8.988  0.00  0.00    +0.000 A 
ATOM     21  N   UNL     1      44.748   2.781   9.625  0.00  0.00    +0.000 NA
ATOM     22  C   UNL     1      45.565   1.857   9.078  0.00  0.00    +0.000 A 
ATOM     23  C   UNL     1      46.262   2.056   7.911  0.00  0.00    +0.000 A 
ATOM     24  C   UNL     1      46.068   3.287   7.328  0.00  0.00    +0.000 A 
ATOM     25  N   UNL     1      45.262   4.248   7.847  0.00  0.00    +0.000 NA
ATOM     26  H   UNL     1      44.130   5.846   9.168  0.00  0.00    +0.000 HD
BRANCH  23  27
ATOM     27  C   UNL     1      47.169   1.011   7.423  0.00  0.00    +0.000 C 
ATOM     28  N   UNL     1      46.798  -0.296   7.562  0.00  0.00    +0.000 N 
ATOM     29  O   UNL     1      48.248   1.307   6.925  0.00  0.00    +0.000 OA
ATOM     30  H   UNL     1      46.004  -0.618   8.095  0.00  0.00    +0.000 HD
ATOM     31  H   UNL     1      47.485  -0.988   7.282  0.00  0.00    +0.000 HD
ENDBRANCH  23  27
ENDBRANCH  18  19
ENDBRANCH   1  18
TORSDOF 7
ENDMDL
MODEL 6
REMARK VINA RESULT:    -7.398      2.498      3.130
REMARK INTER + INTRA:         -11.083
REMARK INTER:                 -10.306
REMARK INTRA:                  -0.777
REMARK UNBOUND:                -0.874
REMARK  Name = 
REMARK  8 active torsions:
REMARK  status: ('A' for Active; 'I' for Inactive)
REMARK    1  A    between atoms: C_1  and  C_2
REMARK    2  A    between atoms: C_2  and  O_3
REMARK    3  A    between atoms: C_5  and  O_6
REMARK    4  A    between atoms: O_6  and  C_7
REMARK    5  A    between atoms: C_9  and  C_10
REMARK    6  A    between atoms: C_10  and  C_13
REMARK    7  A    between atoms: C_13  and  N_14
REMARK    8  A    between atoms: C_18  and  C_19
REMARK                            x       y       z     vdW  Elec       q    Type
REMARK                         _______ _______ _______ _____ _____    ______ ____
ROOT
ATOM      1  C   UNL     1      44.632   6.062  11.707  0.00  0.00    +0.000 C 
ATOM      2  F   UNL     1      43.711   6.864  12.322  0.00  0.00    +0.000 F 
ATOM      3  F   UNL     1      45.108   6.803  10.658  0.00  0.00    +0.000 F 
ENDROOT
BRANCH   1   6
ATOM      4  C   UNL     1      47.602   6.376  14.067  0.00  0.00    +0.000 A 
ATOM      5  C   UNL     1      46.599   6.712  13.166  0.00  0.00    +0.000 A 
ATOM      6  C   UNL     1      45.756   5.700  12.676  0.00  0.00    +0.000 A 
ATOM      7  C   UNL     1      45.989   4.394  13.136  0.00  0.00    +0.000 A 
ATOM      8  C   UNL     1      47.016   4.162  14.035  0.00  0.00    +0.000 A 
ATOM      9  N   UNL     1      47.832   5.124  14.504  0.00  0.00    +0.000 NA
BRANCH   4  10
ATOM     10  O   UNL     1      48.418   7.395  14.528  0.00  0.00    +0.000 OA
BRANCH  10  14
ATOM     11  C   UNL     1      52.111   8.732  16.757  0.00  0.00    +0.000 C 
ATOM     12  C   UNL     1      51.560   7.619  15.879  0.00  0.00    +0.000 C 
ATOM     13  C   UNL     1      50.853   8.115  14.597  0.00  0.00    +0.000 C 
ATOM     14  C   UNL     1      49.785   7.011  14.815  0.00  0.00    +0.000 C 
ATOM     15  C   UNL     1      50.188   7.035  16.313  0.00  0.00    +0.000 C 
BRANCH  12  16
ATOM     16  O   UNL     1      52.593   6.631  15.669  0.00  0.00    +0.000 OA
ATOM     17  H   UNL     1      52.512   6.366  14.736  0.00  0.00    +0.000 HD
ENDBRANCH  12  16
ENDBRANCH  10  14
ENDBRANCH   4  10
ENDBRANCH   1   6
BRANCH   1  18
ATOM     18  C   UNL     1      43.893   4.832  11.114  0.00  0.00    +0.000 C 
BRANCH  18  19
ATOM     19  N   UNL     1      43.712   4.839   9.652  0.00  0.00    +0.000 N 
ATOM     20  C   UNL     1      44.567   3.942   9.010  0.00  0.00    +0.000 A 
ATOM     21  N   UNL     1      44.961   2.837   9.660  0.00  0.00    +0.000 NA
ATOM     22  C   UNL     1      45.829   2.019   9.029  0.00  0.00    +0.000 A 
ATOM     23  C   UNL     1      46.316   2.257   7.767  0.00  0.00    +0.000 A 
ATOM     24  C   UNL     1      45.850   3.410   7.179  0.00  0.00    +0.000 A 
ATOM     25  N   UNL     1      44.984   4.264   7.779  0.00  0.00    +0.000 NA
ATOM     26  H   UNL     1      43.808   5.743   9.198  0.00  0.00    +0.000 HD
BRANCH  23  27
ATOM     27  C   UNL     1      47.300   1.336   7.186  0.00  0.00    +0.000 C 
ATOM     28  N   UNL     1      48.371   1.858   6.520  0.00  0.00    +0.000 N 
ATOM     29  O   UNL     1      47.146   0.124   7.275  0.00  0.00    +0.000 OA
ATOM     30  H   UNL     1      48.483   2.831   6.275  0.00  0.00    +0.000 HD
ATOM     31  H   UNL     1      48.986   1.189   6.068  0.00  0.00    +0.000 HD
ENDBRANCH  23  27
ENDBRANCH  18  19
ENDBRANCH   1  18
TORSDOF 7
ENDMDL
MODEL 7
REMARK VINA RESULT:    -7.067      3.212      5.447
REMARK INTER + INTRA:         -10.626
REMARK INTER:                 -10.055
REMARK INTRA:                  -0.571
REMARK UNBOUND:                -0.874
REMARK  Name = 
REMARK  8 active torsions:
REMARK  status: ('A' for Active; 'I' for Inactive)
REMARK    1  A    between atoms: C_1  and  C_2
REMARK    2  A    between atoms: C_2  and  O_3
REMARK    3  A    between atoms: C_5  and  O_6
REMARK    4  A    between atoms: O_6  and  C_7
REMARK    5  A    between atoms: C_9  and  C_10
REMARK    6  A    between atoms: C_10  and  C_13
REMARK    7  A    between atoms: C_13  and  N_14
REMARK    8  A    between atoms: C_18  and  C_19
REMARK                            x       y       z     vdW  Elec       q    Type
REMARK                         _______ _______ _______ _____ _____    ______ ____
ROOT
ATOM      1  C   UNL     1      43.830   4.808  12.368  0.00  0.00    +0.000 C 
ATOM      2  F   UNL     1      44.122   3.906  13.353  0.00  0.00    +0.000 F 
ATOM      3  F   UNL     1      42.652   5.392  12.755  0.00  0.00    +0.000 F 
ENDROOT
BRANCH   1   6
ATOM      4  C   UNL     1      45.645   8.098  11.757  0.00  0.00    +0.000 A 
ATOM      5  C   UNL     1      44.629   7.153  11.834  0.00  0.00    +0.000 A 
ATOM      6  C   UNL     1      44.943   5.848  12.252  0.00  0.00    +0.000 A 
ATOM      7  C   UNL     1      46.285   5.582  12.568  0.00  0.00    +0.000 A 
ATOM      8  C   UNL     1      47.224   6.594  12.458  0.00  0.00    +0.000 A 
ATOM      9  N   UNL     1      46.933   7.844  12.052  0.00  0.00    +0.000 NA
BRANCH   4  10
ATOM     10  O   UNL     1      45.304   9.373  11.338  0.00  0.00    +0.000 OA
BRANCH  10  14
ATOM     11  C   UNL     1      41.683  11.515   9.694  0.00  0.00    +0.000 C 
ATOM     12  C   UNL     1      42.220  10.813  10.932  0.00  0.00    +0.000 C 
ATOM     13  C   UNL     1      43.628  11.282  11.366  0.00  0.00    +0.000 C 
ATOM     14  C   UNL     1      43.967   9.804  11.694  0.00  0.00    +0.000 C 
ATOM     15  C   UNL     1      42.847   9.413  10.694  0.00  0.00    +0.000 C 
BRANCH  12  16
ATOM     16  O   UNL     1      41.212  10.852  11.968  0.00  0.00    +0.000 OA
ATOM     17  H   UNL     1      40.510  10.250  11.668  0.00  0.00    +0.000 HD
ENDBRANCH  12  16
ENDBRANCH  10  14
ENDBRANCH   4  10
ENDBRANCH   1   6
BRANCH   1  18
ATOM     18  C   UNL     1      43.558   4.029  11.053  0.00  0.00    +0.000 C 
BRANCH  18  19
ATOM     19  N   UNL     1      44.293   2.762  10.898  0.00  0.00    +0.000 N 
ATOM     20  C   UNL     1      45.060   2.736   9.732  0.00  0.00    +0.000 A 
ATOM     21  N   UNL     1      45.542   3.889   9.243  0.00  0.00    +0.000 NA
ATOM     22  C   UNL     1      46.234   3.834   8.086  0.00  0.00    +0.000 A 
ATOM     23  C   UNL     1      46.472   2.669   7.399  0.00  0.00    +0.000 A 
ATOM     24  C   UNL     1      45.944   1.540   7.981  0.00  0.00    +0.000 A 
ATOM     25  N   UNL     1      45.236   1.550   9.138  0.00  0.00    +0.000 NA
ATOM     26  H   UNL     1      43.728   1.917  10.919  0.00  0.00    +0.000 HD
BRANCH  23  27
ATOM     27  C   UNL     1      47.190   2.717   6.119  0.00  0.00    +0.000 C 
ATOM     28  N   UNL     1      48.553   2.642   6.130  0.00  0.00    +0.000 N 
ATOM     29  O   UNL     1      46.576   2.848   5.067  0.00  0.00    +0.000 OA
ATOM     30  H   UNL     1      49.129   2.689   6.958  0.00  0.00    +0.000 HD
ATOM     31  H   UNL     1      49.014   2.756   5.233  0.00  0.00    +0.000 HD
ENDBRANCH  23  27
ENDBRANCH  18  19
ENDBRANCH   1  18
TORSDOF 7
ENDMDL
