MODEL 1
REMARK VINA RESULT:    -8.359      0.000      0.000
REMARK INTER + INTRA:         -12.484
REMARK INTER:                 -11.779
REMARK INTRA:                  -0.705
REMARK UNBOUND:                -0.705
REMARK  Name = 
REMARK  8 active torsions:
REMARK  status: ('A' for Active; 'I' for Inactive)
REMARK    1  A    between atoms: C_1  and  C_2
REMARK    2  A    between atoms: C_2  and  C_3
REMARK    3  A    between atoms: C_7  and  C_8
REMARK    4  A    between atoms: C_8  and  C_9
REMARK    5  A    between atoms: C_9  and  N_10
REMARK    6  A    between atoms: C_15  and  C_16
REMARK    7  A    between atoms: N_23  and  C_24
REMARK    8  A    between atoms: C_24  and  C_25
REMARK                            x       y       z     vdW  Elec       q    Type
REMARK                         _______ _______ _______ _____ _____    ______ ____
ROOT
ATOM      1  C   UNL     1      46.060   5.279  11.983  0.00  0.00    +0.000 A 
ATOM      2  C   UNL     1      46.628   6.557  11.884  0.00  0.00    +0.000 A 
ATOM      3  C   UNL     1      47.386   7.096  12.931  0.00  0.00    +0.000 A 
ATOM      4  C   UNL     1      47.572   6.382  14.116  0.00  0.00    +0.000 A 
ATOM      5  C   UNL     1      47.011   5.112  14.264  0.00  0.00    +0.000 A 
ATOM      6  C   UNL     1      46.285   4.582  13.180  0.00  0.00    +0.000 A 
ENDROOT
BRANCH   1   8
ATOM      7  C   UNL     1      43.762   5.430  11.090  0.00  0.00    +0.000 C 
ATOM      8  C   UNL     1      45.109   4.687  10.912  0.00  0.00    +0.000 C 
ATOM      9  C   UNL     1      45.665   4.930   9.482  0.00  0.00    +0.000 C 
ATOM     10  C   UNL     1      44.872   4.230   8.377  0.00  0.00    +0.000 C 
ATOM     11  N   UNL     1      44.738   2.784   8.566  0.00  0.00    +0.000 NA
ATOM     12  C   UNL     1      44.148   2.506   9.885  0.00  0.00    +0.000 C 
ATOM     13  C   UNL     1      44.878   3.147  11.074  0.00  0.00    +0.000 C 
ATOM     14  F   UNL     1      44.120   2.891  12.185  0.00  0.00    +0.000 F 
BRANCH  11  15
ATOM     15  C   UNL     1      46.003   2.026   8.362  0.00  0.00    +0.000 C 
BRANCH  15  16
ATOM     16  C   UNL     1      46.777   2.165   7.028  0.00  0.00    +0.000 C 
ATOM     17  F   UNL     1      46.083   2.798   6.061  0.00  0.00    +0.000 F 
ATOM     18  F   UNL     1      47.925   2.860   7.225  0.00  0.00    +0.000 F 
ATOM     19  F   UNL     1      47.124   0.948   6.547  0.00  0.00    +0.000 F 
ENDBRANCH  15  16
ENDBRANCH  11  15
ENDBRANCH   1   8
BRANCH   5  20
ATOM     20  C   UNL     1      47.147   4.369  15.587  0.00  0.00    +0.000 C 
BRANCH  20  21
ATOM     21  C   UNL     1      48.260   4.936  16.477  0.00  0.00    +0.000 C 
BRANCH  21  22
ATOM     22  N   UNL     1      48.789   3.998  17.460  0.00  0.00    +0.000 N 
ATOM     23  C   UNL     1      50.192   3.980  17.535  0.00  0.00    +0.000 A 
ATOM     24  C   UNL     1      50.987   5.137  17.437  0.00  0.00    +0.000 A 
ATOM     25  N   UNL     1      52.341   5.148  17.503  0.00  0.00    +0.000 NA
ATOM     26  C   UNL     1      52.904   3.939  17.708  0.00  0.00    +0.000 A 
ATOM     27  C   UNL     1      52.139   2.790  17.838  0.00  0.00    +0.000 A 
ATOM     28  N   UNL     1      50.769   2.776  17.748  0.00  0.00    +0.000 NA
ATOM     29  H   UNL     1      48.483   3.034  17.352  0.00  0.00    +0.000 HD
BRANCH  27  30
ATOM     30  C   UNL     1      52.828   1.500  18.111  0.00  0.00    +0.000 C 
ATOM     31  N   UNL     1      52.042   0.383  18.108  0.00  0.00    +0.000 N 
ATOM     32  O   UNL     1      54.032   1.437  18.342  0.00  0.00    +0.000 OA
ATOM     33  H   UNL     1      51.039   0.471  17.966  0.00  0.00    +0.000 HD
ATOM     34  H   UNL     1      52.445  -0.511  18.342  0.00  0.00    +0.000 HD
ENDBRANCH  27  30
ENDBRANCH  21  22
ENDBRANCH  20  21
ENDBRANCH   5  20
TORSDOF 7
ENDMDL
MODEL 2
REMARK VINA RESULT:    -8.299      4.619      5.832
REMARK INTER + INTRA:         -12.399
REMARK INTER:                 -11.395
REMARK INTRA:                  -1.004
REMARK UNBOUND:                -0.705
REMARK  Name = 
REMARK  8 active torsions:
REMARK  status: ('A' for Active; 'I' for Inactive)
REMARK    1  A    between atoms: C_1  and  C_2
REMARK    2  A    between atoms: C_2  and  C_3
REMARK    3  A    between atoms: C_7  and  C_8
REMARK    4  A    between atoms: C_8  and  C_9
REMARK    5  A    between atoms: C_9  and  N_10
REMARK    6  A    between atoms: C_15  and  C_16
REMARK    7  A    between atoms: N_23  and  C_24
REMARK    8  A    between atoms: C_24  and  C_25
REMARK                            x       y       z     vdW  Elec       q    Type
REMARK                         _______ _______ _______ _____ _____    ______ ____
ROOT
ATOM      1  C   UNL     1      45.999   5.495  11.847  0.00  0.00    +0.000 A 
ATOM      2  C   UNL     1      46.273   5.007  13.132  0.00  0.00    +0.000 A 
ATOM      3  C   UNL     1      47.221   5.628  13.955  0.00  0.00    +0.000 A 
ATOM      4  C   UNL     1      47.941   6.734  13.502  0.00  0.00    +0.000 A 
ATOM      5  C   UNL     1      47.712   7.244  12.223  0.00  0.00    +0.000 A 
ATOM      6  C   UNL     1      46.726   6.622  11.433  0.00  0.00    +0.000 A 
ENDROOT
BRANCH   1   8
ATOM      7  C   UNL     1      43.670   5.444  11.024  0.00  0.00    +0.000 C 
ATOM      8  C   UNL     1      45.057   4.776  10.849  0.00  0.00    +0.000 C 
ATOM      9  C   UNL     1      45.553   4.957   9.387  0.00  0.00    +0.000 C 
ATOM     10  C   UNL     1      44.773   4.137   8.358  0.00  0.00    +0.000 C 
ATOM     11  N   UNL     1      44.739   2.701   8.644  0.00  0.00    +0.000 NA
ATOM     12  C   UNL     1      44.207   2.476   9.997  0.00  0.00    +0.000 C 
ATOM     13  C   UNL     1      44.930   3.239  11.117  0.00  0.00    +0.000 C 
ATOM     14  F   UNL     1      44.223   3.010  12.267  0.00  0.00    +0.000 F 
BRANCH  11  15
ATOM     15  C   UNL     1      46.044   2.012   8.446  0.00  0.00    +0.000 C 
BRANCH  15  16
ATOM     16  C   UNL     1      46.834   2.221   7.132  0.00  0.00    +0.000 C 
ATOM     17  F   UNL     1      46.058   2.555   6.080  0.00  0.00    +0.000 F 
ATOM     18  F   UNL     1      47.749   3.209   7.289  0.00  0.00    +0.000 F 
ATOM     19  F   UNL     1      47.510   1.098   6.795  0.00  0.00    +0.000 F 
ENDBRANCH  15  16
ENDBRANCH  11  15
ENDBRANCH   1   8
BRANCH   5  20
ATOM     20  C   UNL     1      48.555   8.400  11.701  0.00  0.00    +0.000 C 
BRANCH  20  21
ATOM     21  C   UNL     1      49.950   8.456  12.338  0.00  0.00    +0.000 C 
BRANCH  21  22
ATOM     22  N   UNL     1      50.875   7.433  11.866  0.00  0.00    +0.000 N 
ATOM     23  C   UNL     1      51.651   7.829  10.763  0.00  0.00    +0.000 A 
ATOM     24  C   UNL     1      52.184   9.123  10.618  0.00  0.00    +0.000 A 
ATOM     25  N   UNL     1      52.933   9.533   9.564  0.00  0.00    +0.000 NA
ATOM     26  C   UNL     1      53.172   8.579   8.640  0.00  0.00    +0.000 A 
ATOM     27  C   UNL     1      52.681   7.289   8.777  0.00  0.00    +0.000 A 
ATOM     28  N   UNL     1      51.905   6.882   9.833  0.00  0.00    +0.000 NA
ATOM     29  H   UNL     1      50.452   6.539  11.628  0.00  0.00    +0.000 HD
BRANCH  27  30
ATOM     30  C   UNL     1      53.027   6.280   7.741  0.00  0.00    +0.000 C 
ATOM     31  N   UNL     1      53.582   5.116   8.193  0.00  0.00    +0.000 N 
ATOM     32  O   UNL     1      52.842   6.479   6.544  0.00  0.00    +0.000 OA
ATOM     33  H   UNL     1      53.773   5.000   9.185  0.00  0.00    +0.000 HD
ATOM     34  H   UNL     1      53.888   4.420   7.532  0.00  0.00    +0.000 HD
ENDBRANCH  27  30
ENDBRANCH  21  22
ENDBRANCH  20  21
ENDBRANCH   5  20
TORSDOF 7
ENDMDL
MODEL 3
REMARK VINA RESULT:    -8.133      2.222      2.792
REMARK INTER + INTRA:         -12.165
REMARK INTER:                 -11.432
REMARK INTRA:                  -0.734
REMARK UNBOUND:                -0.705
REMARK  Name = 
REMARK  8 active torsions:
REMARK  status: ('A' for Active; 'I' for Inactive)
REMARK    1  A    between atoms: C_1  and  C_2
REMARK    2  A    between atoms: C_2  and  C_3
REMARK    3  A    between atoms: C_7  and  C_8
REMARK    4  A    between atoms: C_8  and  C_9
REMARK    5  A    between atoms: C_9  and  N_10
REMARK    6  A    between atoms: C_15  and  C_16
REMARK    7  A    between atoms: N_23  and  C_24
REMARK    8  A    between atoms: C_24  and  C_25
REMARK                            x       y       z     vdW  Elec       q    Type
REMARK                         _______ _______ _______ _____ _____    ______ ____
ROOT
ATOM      1  C   UNL     1      45.398   6.363  11.349  0.00  0.00    +0.000 A 
ATOM      2  C   UNL     1      44.797   7.582  11.694  0.00  0.00    +0.000 A 
ATOM      3  C   UNL     1      45.515   8.578  12.366  0.00  0.00    +0.000 A 
ATOM      4  C   UNL     1      46.844   8.370  12.737  0.00  0.00    +0.000 A 
ATOM      5  C   UNL     1      47.477   7.165  12.427  0.00  0.00    +0.000 A 
ATOM      6  C   UNL     1      46.741   6.197  11.718  0.00  0.00    +0.000 A 
ENDROOT
BRANCH   1   8
ATOM      7  C   UNL     1      43.123   5.455  11.023  0.00  0.00    +0.000 C 
ATOM      8  C   UNL     1      44.618   5.180  10.721  0.00  0.00    +0.000 C 
ATOM      9  C   UNL     1      44.847   5.117   9.185  0.00  0.00    +0.000 C 
ATOM     10  C   UNL     1      44.249   3.879   8.515  0.00  0.00    +0.000 C 
ATOM     11  N   UNL     1      44.708   2.612   9.089  0.00  0.00    +0.000 NA
ATOM     12  C   UNL     1      44.446   2.597  10.537  0.00  0.00    +0.000 C 
ATOM     13  C   UNL     1      45.020   3.789  11.316  0.00  0.00    +0.000 C 
ATOM     14  F   UNL     1      44.570   3.671  12.603  0.00  0.00    +0.000 F 
BRANCH  11  15
ATOM     15  C   UNL     1      46.129   2.289   8.787  0.00  0.00    +0.000 C 
BRANCH  15  16
ATOM     16  C   UNL     1      46.628   2.308   7.321  0.00  0.00    +0.000 C 
ATOM     17  F   UNL     1      45.805   2.963   6.477  0.00  0.00    +0.000 F 
ATOM     18  F   UNL     1      47.843   2.907   7.249  0.00  0.00    +0.000 F 
ATOM     19  F   UNL     1      46.774   1.048   6.848  0.00  0.00    +0.000 F 
ENDBRANCH  15  16
ENDBRANCH  11  15
ENDBRANCH   1   8
BRANCH   5  20
ATOM     20  C   UNL     1      48.902   6.909  12.903  0.00  0.00    +0.000 C 
BRANCH  20  21
ATOM     21  C   UNL     1      49.235   7.640  14.210  0.00  0.00    +0.000 C 
BRANCH  21  22
ATOM     22  N   UNL     1      48.412   7.253  15.350  0.00  0.00    +0.000 N 
ATOM     23  C   UNL     1      48.965   6.224  16.130  0.00  0.00    +0.000 A 
ATOM     24  C   UNL     1      50.339   6.127  16.420  0.00  0.00    +0.000 A 
ATOM     25  N   UNL     1      50.900   5.143  17.167  0.00  0.00    +0.000 NA
ATOM     26  C   UNL     1      50.023   4.245  17.662  0.00  0.00    +0.000 A 
ATOM     27  C   UNL     1      48.662   4.338  17.414  0.00  0.00    +0.000 A 
ATOM     28  N   UNL     1      48.098   5.320  16.639  0.00  0.00    +0.000 NA
ATOM     29  H   UNL     1      47.458   6.979  15.126  0.00  0.00    +0.000 HD
BRANCH  27  30
ATOM     30  C   UNL     1      47.753   3.337  18.034  0.00  0.00    +0.000 C 
ATOM     31  N   UNL     1      48.135   2.848  19.252  0.00  0.00    +0.000 N 
ATOM     32  O   UNL     1      46.725   2.956  17.483  0.00  0.00    +0.000 OA
ATOM     33  H   UNL     1      49.018   3.142  19.660  0.00  0.00    +0.000 HD
ATOM     34  H   UNL     1      47.586   2.126  19.693  0.00  0.00    +0.000 HD
ENDBRANCH  27  30
ENDBRANCH  21  22
ENDBRANCH  20  21
ENDBRANCH   5  20
TORSDOF 7
ENDMDL
MODEL 4
REMARK VINA RESULT:    -8.099      1.907      2.373
REMARK INTER + INTRA:         -12.118
REMARK INTER:                 -11.090
REMARK INTRA:                  -1.027
REMARK UNBOUND:                -0.705
REMARK  Name = 
REMARK  8 active torsions:
REMARK  status: ('A' for Active; 'I' for Inactive)
REMARK    1  A    between atoms: C_1  and  C_2
REMARK    2  A    between atoms: C_2  and  C_3
REMARK    3  A    between atoms: C_7  and  C_8
REMARK    4  A    between atoms: C_8  and  C_9
REMARK    5  A    between atoms: C_9  and  N_10
REMARK    6  A    between atoms: C_15  and  C_16
REMARK    7  A    between atoms: N_23  and  C_24
REMARK    8  A    between atoms: C_24  and  C_25
REMARK                            x       y       z     vdW  Elec       q    Type
REMARK                         _______ _______ _______ _____ _____    ______ ____
ROOT
ATOM      1  C   UNL     1      46.903   6.542  12.360  0.00  0.00    +0.000 A 
ATOM      2  C   UNL     1      47.844   6.923  11.392  0.00  0.00    +0.000 A 
ATOM      3  C   UNL     1      48.890   7.798  11.705  0.00  0.00    +0.000 A 
ATOM      4  C   UNL     1      49.007   8.340  12.986  0.00  0.00    +0.000 A 
ATOM      5  C   UNL     1      48.083   8.001  13.976  0.00  0.00    +0.000 A 
ATOM      6  C   UNL     1      47.063   7.089  13.642  0.00  0.00    +0.000 A 
ENDROOT
BRANCH   1   8
ATOM      7  C   UNL     1      44.507   6.268  12.896  0.00  0.00    +0.000 C 
ATOM      8  C   UNL     1      45.656   5.681  12.039  0.00  0.00    +0.000 C 
ATOM      9  C   UNL     1      45.293   5.770  10.530  0.00  0.00    +0.000 C 
ATOM     10  C   UNL     1      44.177   4.817  10.099  0.00  0.00    +0.000 C 
ATOM     11  N   UNL     1      44.442   3.411  10.414  0.00  0.00    +0.000 NA
ATOM     12  C   UNL     1      44.722   3.266  11.850  0.00  0.00    +0.000 C 
ATOM     13  C   UNL     1      45.843   4.167  12.390  0.00  0.00    +0.000 C 
ATOM     14  F   UNL     1      45.870   3.990  13.747  0.00  0.00    +0.000 F 
BRANCH  11  15
ATOM     15  C   UNL     1      45.512   2.795   9.582  0.00  0.00    +0.000 C 
BRANCH  15  16
ATOM     16  C   UNL     1      45.595   3.119   8.070  0.00  0.00    +0.000 C 
ATOM     17  F   UNL     1      44.395   3.338   7.496  0.00  0.00    +0.000 F 
ATOM     18  F   UNL     1      46.348   4.229   7.871  0.00  0.00    +0.000 F 
ATOM     19  F   UNL     1      46.188   2.106   7.395  0.00  0.00    +0.000 F 
ENDBRANCH  15  16
ENDBRANCH  11  15
ENDBRANCH   1   8
BRANCH   5  20
ATOM     20  C   UNL     1      48.164   8.656  15.350  0.00  0.00    +0.000 C 
BRANCH  20  21
ATOM     21  C   UNL     1      48.979   7.832  16.355  0.00  0.00    +0.000 C 
BRANCH  21  22
ATOM     22  N   UNL     1      48.464   6.490  16.601  0.00  0.00    +0.000 N 
ATOM     23  C   UNL     1      49.401   5.615  17.175  0.00  0.00    +0.000 A 
ATOM     24  C   UNL     1      50.324   6.009  18.161  0.00  0.00    +0.000 A 
ATOM     25  N   UNL     1      51.241   5.186  18.729  0.00  0.00    +0.000 NA
ATOM     26  C   UNL     1      51.192   3.908  18.299  0.00  0.00    +0.000 A 
ATOM     27  C   UNL     1      50.270   3.491  17.351  0.00  0.00    +0.000 A 
ATOM     28  N   UNL     1      49.358   4.329  16.759  0.00  0.00    +0.000 NA
ATOM     29  H   UNL     1      48.071   6.018  15.791  0.00  0.00    +0.000 HD
BRANCH  27  30
ATOM     30  C   UNL     1      50.246   2.055  16.962  0.00  0.00    +0.000 C 
ATOM     31  N   UNL     1      51.029   1.216  17.703  0.00  0.00    +0.000 N 
ATOM     32  O   UNL     1      49.574   1.643  16.022  0.00  0.00    +0.000 OA
ATOM     33  H   UNL     1      51.616   1.594  18.442  0.00  0.00    +0.000 HD
ATOM     34  H   UNL     1      51.095   0.243  17.449  0.00  0.00    +0.000 HD
ENDBRANCH  27  30
ENDBRANCH  21  22
ENDBRANCH  20  21
ENDBRANCH   5  20
TORSDOF 7
ENDMDL
MODEL 5
REMARK VINA RESULT:    -8.048      4.918      9.021
REMARK INTER + INTRA:         -12.046
REMARK INTER:                 -10.986
REMARK INTRA:                  -1.060
REMARK UNBOUND:                -0.705
REMARK  Name = 
REMARK  8 active torsions:
REMARK  status: ('A' for Active; 'I' for Inactive)
REMARK    1  A    between atoms: C_1  and  C_2
REMARK    2  A    between atoms: C_2  and  C_3
REMARK    3  A    between atoms: C_7  and  C_8
REMARK    4  A    between atoms: C_8  and  C_9
REMARK    5  A    between atoms: C_9  and  N_10
REMARK    6  A    between atoms: C_15  and  C_16
REMARK    7  A    between atoms: N_23  and  C_24
REMARK    8  A    between atoms: C_24  and  C_25
REMARK                            x       y       z     vdW  Elec       q    Type
REMARK                         _______ _______ _______ _____ _____    ______ ____
ROOT
ATOM      1  C   UNL     1      45.748   7.233  12.482  0.00  0.00    +0.000 A 
ATOM      2  C   UNL     1      45.023   8.088  11.639  0.00  0.00    +0.000 A 
ATOM      3  C   UNL     1      43.759   7.728  11.158  0.00  0.00    +0.000 A 
ATOM      4  C   UNL     1      43.199   6.491  11.482  0.00  0.00    +0.000 A 
ATOM      5  C   UNL     1      43.894   5.602  12.305  0.00  0.00    +0.000 A 
ATOM      6  C   UNL     1      45.147   6.008  12.804  0.00  0.00    +0.000 A 
ENDROOT
BRANCH   1   8
ATOM      7  C   UNL     1      48.081   7.355  11.676  0.00  0.00    +0.000 C 
ATOM      8  C   UNL     1      47.200   7.524  12.939  0.00  0.00    +0.000 C 
ATOM      9  C   UNL     1      47.331   8.972  13.487  0.00  0.00    +0.000 C 
ATOM     10  C   UNL     1      48.690   9.283  14.114  0.00  0.00    +0.000 C 
ATOM     11  N   UNL     1      49.075   8.362  15.187  0.00  0.00    +0.000 NA
ATOM     12  C   UNL     1      49.035   6.977  14.692  0.00  0.00    +0.000 C 
ATOM     13  C   UNL     1      47.703   6.550  14.056  0.00  0.00    +0.000 C 
ATOM     14  F   UNL     1      47.897   5.295  13.546  0.00  0.00    +0.000 F 
BRANCH  11  15
ATOM     15  C   UNL     1      48.280   8.521  16.436  0.00  0.00    +0.000 C 
BRANCH  15  16
ATOM     16  C   UNL     1      48.801   7.916  17.762  0.00  0.00    +0.000 C 
ATOM     17  F   UNL     1      48.096   6.845  18.183  0.00  0.00    +0.000 F 
ATOM     18  F   UNL     1      50.090   7.522  17.621  0.00  0.00    +0.000 F 
ATOM     19  F   UNL     1      48.769   8.836  18.754  0.00  0.00    +0.000 F 
ENDBRANCH  15  16
ENDBRANCH  11  15
ENDBRANCH   1   8
BRANCH   5  20
ATOM     20  C   UNL     1      43.318   4.221  12.592  0.00  0.00    +0.000 C 
BRANCH  20  21
ATOM     21  C   UNL     1      43.309   3.311  11.357  0.00  0.00    +0.000 C 
BRANCH  21  22
ATOM     22  N   UNL     1      44.565   2.615  11.106  0.00  0.00    +0.000 N 
ATOM     23  C   UNL     1      45.116   2.871   9.839  0.00  0.00    +0.000 A 
ATOM     24  C   UNL     1      45.088   4.137   9.226  0.00  0.00    +0.000 A 
ATOM     25  N   UNL     1      45.609   4.412   8.003  0.00  0.00    +0.000 NA
ATOM     26  C   UNL     1      46.208   3.364   7.400  0.00  0.00    +0.000 A 
ATOM     27  C   UNL     1      46.274   2.115   7.999  0.00  0.00    +0.000 A 
ATOM     28  N   UNL     1      45.727   1.833   9.226  0.00  0.00    +0.000 NA
ATOM     29  H   UNL     1      44.535   1.605  11.220  0.00  0.00    +0.000 HD
BRANCH  27  30
ATOM     30  C   UNL     1      46.994   1.022   7.293  0.00  0.00    +0.000 C 
ATOM     31  N   UNL     1      46.714  -0.250   7.706  0.00  0.00    +0.000 N 
ATOM     32  O   UNL     1      47.806   1.242   6.399  0.00  0.00    +0.000 OA
ATOM     33  H   UNL     1      46.077  -0.400   8.484  0.00  0.00    +0.000 HD
ATOM     34  H   UNL     1      47.214  -1.027   7.301  0.00  0.00    +0.000 HD
ENDBRANCH  27  30
ENDBRANCH  21  22
ENDBRANCH  20  21
ENDBRANCH   5  20
TORSDOF 7
ENDMDL
MODEL 6
REMARK VINA RESULT:    -8.002      5.199      9.484
REMARK INTER + INTRA:         -11.982
REMARK INTER:                 -10.899
REMARK INTRA:                  -1.082
REMARK UNBOUND:                -0.705
REMARK  Name = 
REMARK  8 active torsions:
REMARK  status: ('A' for Active; 'I' for Inactive)
REMARK    1  A    between atoms: C_1  and  C_2
REMARK    2  A    between atoms: C_2  and  C_3
REMARK    3  A    between atoms: C_7  and  C_8
REMARK    4  A    between atoms: C_8  and  C_9
REMARK    5  A    between atoms: C_9  and  N_10
REMARK    6  A    between atoms: C_15  and  C_16
REMARK    7  A    between atoms: N_23  and  C_24
REMARK    8  A    between atoms: C_24  and  C_25
REMARK                            x       y       z     vdW  Elec       q    Type
REMARK                         _______ _______ _______ _____ _____    ______ ____
ROOT
ATOM      1  C   UNL     1      47.330   6.650  12.956  0.00  0.00    +0.000 A 
ATOM      2  C   UNL     1      47.364   5.530  13.800  0.00  0.00    +0.000 A 
ATOM      3  C   UNL     1      46.401   4.519  13.700  0.00  0.00    +0.000 A 
ATOM      4  C   UNL     1      45.362   4.615  12.773  0.00  0.00    +0.000 A 
ATOM      5  C   UNL     1      45.280   5.719  11.924  0.00  0.00    +0.000 A 
ATOM      6  C   UNL     1      46.284   6.702  12.023  0.00  0.00    +0.000 A 
ENDROOT
BRANCH   1   8
ATOM      7  C   UNL     1      47.612   9.030  12.358  0.00  0.00    +0.000 C 
ATOM      8  C   UNL     1      48.291   7.856  13.107  0.00  0.00    +0.000 C 
ATOM      9  C   UNL     1      48.490   8.224  14.604  0.00  0.00    +0.000 C 
ATOM     10  C   UNL     1      49.554   9.295  14.848  0.00  0.00    +0.000 C 
ATOM     11  N   UNL     1      50.867   8.965  14.290  0.00  0.00    +0.000 NA
ATOM     12  C   UNL     1      50.740   8.677  12.853  0.00  0.00    +0.000 C 
ATOM     13  C   UNL     1      49.708   7.599  12.492  0.00  0.00    +0.000 C 
ATOM     14  F   UNL     1      49.637   7.563  11.126  0.00  0.00    +0.000 F 
BRANCH  11  15
ATOM     15  C   UNL     1      51.573   7.868  15.008  0.00  0.00    +0.000 C 
BRANCH  15  16
ATOM     16  C   UNL     1      53.104   7.953  15.229  0.00  0.00    +0.000 C 
ATOM     17  F   UNL     1      53.741   6.776  15.061  0.00  0.00    +0.000 F 
ATOM     18  F   UNL     1      53.652   8.839  14.362  0.00  0.00    +0.000 F 
ATOM     19  F   UNL     1      53.383   8.389  16.479  0.00  0.00    +0.000 F 
ENDBRANCH  15  16
ENDBRANCH  11  15
ENDBRANCH   1   8
BRANCH   5  20
ATOM     20  C   UNL     1      44.101   5.861  10.970  0.00  0.00    +0.000 C 
BRANCH  20  21
ATOM     21  C   UNL     1      43.705   4.533  10.311  0.00  0.00    +0.000 C 
BRANCH  21  22
ATOM     22  N   UNL     1      43.976   4.460   8.880  0.00  0.00    +0.000 N 
ATOM     23  C   UNL     1      44.817   3.396   8.512  0.00  0.00    +0.000 A 
ATOM     24  C   UNL     1      44.747   2.118   9.097  0.00  0.00    +0.000 A 
ATOM     25  N   UNL     1      45.547   1.075   8.764  0.00  0.00    +0.000 NA
ATOM     26  C   UNL     1      46.428   1.336   7.775  0.00  0.00    +0.000 A 
ATOM     27  C   UNL     1      46.494   2.579   7.164  0.00  0.00    +0.000 A 
ATOM     28  N   UNL     1      45.699   3.641   7.518  0.00  0.00    +0.000 NA
ATOM     29  H   UNL     1      44.364   5.304   8.466  0.00  0.00    +0.000 HD
BRANCH  27  30
ATOM     30  C   UNL     1      47.458   2.776   6.049  0.00  0.00    +0.000 C 
ATOM     31  N   UNL     1      48.781   2.655   6.367  0.00  0.00    +0.000 N 
ATOM     32  O   UNL     1      47.095   3.047   4.909  0.00  0.00    +0.000 OA
ATOM     33  H   UNL     1      49.055   2.482   7.330  0.00  0.00    +0.000 HD
ATOM     34  H   UNL     1      49.482   2.833   5.664  0.00  0.00    +0.000 HD
ENDBRANCH  27  30
ENDBRANCH  21  22
ENDBRANCH  20  21
ENDBRANCH   5  20
TORSDOF 7
ENDMDL
MODEL 7
REMARK VINA RESULT:    -7.817      5.860      9.001
REMARK INTER + INTRA:         -11.721
REMARK INTER:                 -10.764
REMARK INTRA:                  -0.957
REMARK UNBOUND:                -0.705
REMARK  Name = 
REMARK  8 active torsions:
REMARK  status: ('A' for Active; 'I' for Inactive)
REMARK    1  A    between atoms: C_1  and  C_2
REMARK    2  A    between atoms: C_2  and  C_3
REMARK    3  A    between atoms: C_7  and  C_8
REMARK    4  A    between atoms: C_8  and  C_9
REMARK    5  A    between atoms: C_9  and  N_10
REMARK    6  A    between atoms: C_15  and  C_16
REMARK    7  A    between atoms: N_23  and  C_24
REMARK    8  A    between atoms: C_24  and  C_25
REMARK                            x       y       z     vdW  Elec       q    Type
REMARK                         _______ _______ _______ _____ _____    ______ ____
ROOT
ATOM      1  C   UNL     1      47.439   6.777  12.981  0.00  0.00    +0.000 A 
ATOM      2  C   UNL     1      47.545   5.629  13.779  0.00  0.00    +0.000 A 
ATOM      3  C   UNL     1      46.622   4.583  13.667  0.00  0.00    +0.000 A 
ATOM      4  C   UNL     1      45.552   4.669  12.775  0.00  0.00    +0.000 A 
ATOM      5  C   UNL     1      45.399   5.801  11.973  0.00  0.00    +0.000 A 
ATOM      6  C   UNL     1      46.364   6.821  12.081  0.00  0.00    +0.000 A 
ENDROOT
BRANCH   1   8
ATOM      7  C   UNL     1      47.855   8.735  14.430  0.00  0.00    +0.000 C 
ATOM      8  C   UNL     1      48.354   8.016  13.151  0.00  0.00    +0.000 C 
ATOM      9  C   UNL     1      49.838   7.591  13.326  0.00  0.00    +0.000 C 
ATOM     10  C   UNL     1      50.826   8.759  13.331  0.00  0.00    +0.000 C 
ATOM     11  N   UNL     1      50.742   9.614  12.146  0.00  0.00    +0.000 NA
ATOM     12  C   UNL     1      49.364  10.100  11.978  0.00  0.00    +0.000 C 
ATOM     13  C   UNL     1      48.286   9.006  11.940  0.00  0.00    +0.000 C 
ATOM     14  F   UNL     1      47.077   9.647  11.913  0.00  0.00    +0.000 F 
BRANCH  11  15
ATOM     15  C   UNL     1      51.252   8.976  10.901  0.00  0.00    +0.000 C 
BRANCH  15  16
ATOM     16  C   UNL     1      52.749   8.594  10.788  0.00  0.00    +0.000 C 
ATOM     17  F   UNL     1      53.540   9.238  11.670  0.00  0.00    +0.000 F 
ATOM     18  F   UNL     1      52.908   7.264  10.997  0.00  0.00    +0.000 F 
ATOM     19  F   UNL     1      53.221   8.865   9.549  0.00  0.00    +0.000 F 
ENDBRANCH  15  16
ENDBRANCH  11  15
ENDBRANCH   1   8
BRANCH   5  20
ATOM     20  C   UNL     1      44.186   5.930  11.059  0.00  0.00    +0.000 C 
BRANCH  20  21
ATOM     21  C   UNL     1      43.794   4.601  10.399  0.00  0.00    +0.000 C 
BRANCH  21  22
ATOM     22  N   UNL     1      44.046   4.538   8.964  0.00  0.00    +0.000 N 
ATOM     23  C   UNL     1      44.856   3.459   8.573  0.00  0.00    +0.000 A 
ATOM     24  C   UNL     1      44.764   2.177   9.144  0.00  0.00    +0.000 A 
ATOM     25  N   UNL     1      45.535   1.119   8.789  0.00  0.00    +0.000 NA
ATOM     26  C   UNL     1      46.409   1.371   7.792  0.00  0.00    +0.000 A 
ATOM     27  C   UNL     1      46.497   2.619   7.194  0.00  0.00    +0.000 A 
ATOM     28  N   UNL     1      45.732   3.695   7.570  0.00  0.00    +0.000 NA
ATOM     29  H   UNL     1      44.448   5.378   8.554  0.00  0.00    +0.000 HD
BRANCH  27  30
ATOM     30  C   UNL     1      47.451   2.807   6.069  0.00  0.00    +0.000 C 
ATOM     31  N   UNL     1      48.777   2.818   6.398  0.00  0.00    +0.000 N 
ATOM     32  O   UNL     1      47.076   2.959   4.910  0.00  0.00    +0.000 OA
ATOM     33  H   UNL     1      49.056   2.743   7.372  0.00  0.00    +0.000 HD
ATOM     34  H   UNL     1      49.466   2.998   5.684  0.00  0.00    +0.000 HD
ENDBRANCH  27  30
ENDBRANCH  21  22
ENDBRANCH  20  21
ENDBRANCH   5  20
TORSDOF 7
ENDMDL
MODEL 8
REMARK VINA RESULT:    -7.805      4.729      9.410
REMARK INTER + INTRA:         -11.703
REMARK INTER:                 -10.943
REMARK INTRA:                  -0.760
REMARK UNBOUND:                -0.705
REMARK  Name = 
REMARK  8 active torsions:
REMARK  status: ('A' for Active; 'I' for Inactive)
REMARK    1  A    between atoms: C_1  and  C_2
REMARK    2  A    between atoms: C_2  and  C_3
REMARK    3  A    between atoms: C_7  and  C_8
REMARK    4  A    between atoms: C_8  and  C_9
REMARK    5  A    between atoms: C_9  and  N_10
REMARK    6  A    between atoms: C_15  and  C_16
REMARK    7  A    between atoms: N_23  and  C_24
REMARK    8  A    between atoms: C_24  and  C_25
REMARK                            x       y       z     vdW  Elec       q    Type
REMARK                         _______ _______ _______ _____ _____    ______ ____
ROOT
ATOM      1  C   UNL     1      46.792   8.060  12.872  0.00  0.00    +0.000 A 
ATOM      2  C   UNL     1      45.896   9.033  12.407  0.00  0.00    +0.000 A 
ATOM      3  C   UNL     1      44.767   8.678  11.660  0.00  0.00    +0.000 A 
ATOM      4  C   UNL     1      44.520   7.344  11.332  0.00  0.00    +0.000 A 
ATOM      5  C   UNL     1      45.394   6.344  11.760  0.00  0.00    +0.000 A 
ATOM      6  C   UNL     1      46.501   6.728  12.542  0.00  0.00    +0.000 A 
ENDROOT
BRANCH   1   8
ATOM      7  C   UNL     1      48.721   9.603  12.814  0.00  0.00    +0.000 C 
ATOM      8  C   UNL     1      48.121   8.404  13.591  0.00  0.00    +0.000 C 
ATOM      9  C   UNL     1      47.865   8.804  15.070  0.00  0.00    +0.000 C 
ATOM     10  C   UNL     1      49.138   8.996  15.895  0.00  0.00    +0.000 C 
ATOM     11  N   UNL     1      50.027   7.832  15.895  0.00  0.00    +0.000 NA
ATOM     12  C   UNL     1      50.357   7.458  14.511  0.00  0.00    +0.000 C 
ATOM     13  C   UNL     1      49.147   7.222  13.593  0.00  0.00    +0.000 C 
ATOM     14  F   UNL     1      49.643   7.016  12.334  0.00  0.00    +0.000 F 
BRANCH  11  15
ATOM     15  C   UNL     1      49.507   6.671  16.667  0.00  0.00    +0.000 C 
BRANCH  15  16
ATOM     16  C   UNL     1      50.494   5.639  17.265  0.00  0.00    +0.000 C 
ATOM     17  F   UNL     1      50.101   4.358  17.108  0.00  0.00    +0.000 F 
ATOM     18  F   UNL     1      51.711   5.764  16.680  0.00  0.00    +0.000 F 
ATOM     19  F   UNL     1      50.663   5.850  18.591  0.00  0.00    +0.000 F 
ENDBRANCH  15  16
ENDBRANCH  11  15
ENDBRANCH   1   8
BRANCH   5  20
ATOM     20  C   UNL     1      45.167   4.899  11.334  0.00  0.00    +0.000 C 
BRANCH  20  21
ATOM     21  C   UNL     1      43.882   4.714  10.516  0.00  0.00    +0.000 C 
BRANCH  21  22
ATOM     22  N   UNL     1      44.086   4.630   9.075  0.00  0.00    +0.000 N 
ATOM     23  C   UNL     1      44.847   3.521   8.670  0.00  0.00    +0.000 A 
ATOM     24  C   UNL     1      44.731   2.247   9.257  0.00  0.00    +0.000 A 
ATOM     25  N   UNL     1      45.455   1.161   8.888  0.00  0.00    +0.000 NA
ATOM     26  C   UNL     1      46.305   1.375   7.862  0.00  0.00    +0.000 A 
ATOM     27  C   UNL     1      46.414   2.614   7.249  0.00  0.00    +0.000 A 
ATOM     28  N   UNL     1      45.698   3.718   7.638  0.00  0.00    +0.000 NA
ATOM     29  H   UNL     1      44.502   5.452   8.644  0.00  0.00    +0.000 HD
BRANCH  27  30
ATOM     30  C   UNL     1      47.339   2.759   6.093  0.00  0.00    +0.000 C 
ATOM     31  N   UNL     1      48.674   2.698   6.376  0.00  0.00    +0.000 N 
ATOM     32  O   UNL     1      46.933   2.940   4.949  0.00  0.00    +0.000 OA
ATOM     33  H   UNL     1      48.981   2.600   7.340  0.00  0.00    +0.000 HD
ATOM     34  H   UNL     1      49.347   2.846   5.640  0.00  0.00    +0.000 HD
ENDBRANCH  27  30
ENDBRANCH  21  22
ENDBRANCH  20  21
ENDBRANCH   5  20
TORSDOF 7
ENDMDL
MODEL 9
REMARK VINA RESULT:    -7.294      4.780      9.045
REMARK INTER + INTRA:         -10.983
REMARK INTER:                  -9.663
REMARK INTRA:                  -1.321
REMARK UNBOUND:                -0.705
REMARK  Name = 
REMARK  8 active torsions:
REMARK  status: ('A' for Active; 'I' for Inactive)
REMARK    1  A    between atoms: C_1  and  C_2
REMARK    2  A    between atoms: C_2  and  C_3
REMARK    3  A    between atoms: C_7  and  C_8
REMARK    4  A    between atoms: C_8  and  C_9
REMARK    5  A    between atoms: C_9  and  N_10
REMARK    6  A    between atoms: C_15  and  C_16
REMARK    7  A    between atoms: N_23  and  C_24
REMARK    8  A    between atoms: C_24  and  C_25
REMARK                            x       y       z     vdW  Elec       q    Type
REMARK                         _______ _______ _______ _____ _____    ______ ____
ROOT
ATOM      1  C   UNL     1      50.163   7.893  15.167  0.00  0.00    +0.000 A 
ATOM      2  C   UNL     1      51.386   8.165  14.539  0.00  0.00    +0.000 A 
ATOM      3  C   UNL     1      51.442   8.506  13.182  0.00  0.00    +0.000 A 
ATOM      4  C   UNL     1      50.280   8.554  12.411  0.00  0.00    +0.000 A 
ATOM      5  C   UNL     1      49.042   8.275  12.993  0.00  0.00    +0.000 A 
ATOM      6  C   UNL     1      49.013   7.972  14.368  0.00  0.00    +0.000 A 
ENDROOT
BRANCH   1   8
ATOM      7  C   UNL     1      51.086   8.213  17.437  0.00  0.00    +0.000 C 
ATOM      8  C   UNL     1      50.053   7.388  16.629  0.00  0.00    +0.000 C 
ATOM      9  C   UNL     1      48.625   7.626  17.193  0.00  0.00    +0.000 C 
ATOM     10  C   UNL     1      48.386   7.005  18.570  0.00  0.00    +0.000 C 
ATOM     11  N   UNL     1      48.656   5.566  18.627  0.00  0.00    +0.000 NA
ATOM     12  C   UNL     1      50.027   5.298  18.167  0.00  0.00    +0.000 C 
ATOM     13  C   UNL     1      50.373   5.864  16.781  0.00  0.00    +0.000 C 
ATOM     14  F   UNL     1      51.707   5.632  16.584  0.00  0.00    +0.000 F 
BRANCH  11  15
ATOM     15  C   UNL     1      47.661   4.733  17.897  0.00  0.00    +0.000 C 
BRANCH  15  16
ATOM     16  C   UNL     1      47.868   3.202  17.791  0.00  0.00    +0.000 C 
ATOM     17  F   UNL     1      48.500   2.666  18.855  0.00  0.00    +0.000 F 
ATOM     18  F   UNL     1      46.672   2.576  17.672  0.00  0.00    +0.000 F 
ATOM     19  F   UNL     1      48.594   2.892  16.691  0.00  0.00    +0.000 F 
ENDBRANCH  15  16
ENDBRANCH  11  15
ENDBRANCH   1   8
BRANCH   5  20
ATOM     20  C   UNL     1      47.785   8.250  12.133  0.00  0.00    +0.000 C 
BRANCH  20  21
ATOM     21  C   UNL     1      46.498   8.142  12.961  0.00  0.00    +0.000 C 
BRANCH  21  22
ATOM     22  N   UNL     1      45.351   7.608  12.236  0.00  0.00    +0.000 N 
ATOM     23  C   UNL     1      45.281   6.204  12.232  0.00  0.00    +0.000 A 
ATOM     24  C   UNL     1      45.611   5.411  13.346  0.00  0.00    +0.000 A 
ATOM     25  N   UNL     1      45.556   4.056  13.369  0.00  0.00    +0.000 NA
ATOM     26  C   UNL     1      45.118   3.492  12.224  0.00  0.00    +0.000 A 
ATOM     27  C   UNL     1      44.759   4.256  11.124  0.00  0.00    +0.000 A 
ATOM     28  N   UNL     1      44.837   5.626  11.094  0.00  0.00    +0.000 NA
ATOM     29  H   UNL     1      45.264   7.914  11.270  0.00  0.00    +0.000 HD
BRANCH  27  30
ATOM     30  C   UNL     1      44.240   3.565   9.913  0.00  0.00    +0.000 C 
ATOM     31  N   UNL     1      44.100   4.334   8.792  0.00  0.00    +0.000 N 
ATOM     32  O   UNL     1      43.937   2.376   9.917  0.00  0.00    +0.000 OA
ATOM     33  H   UNL     1      44.309   5.327   8.833  0.00  0.00    +0.000 HD
ATOM     34  H   UNL     1      43.700   3.932   7.959  0.00  0.00    +0.000 HD
ENDBRANCH  27  30
ENDBRANCH  21  22
ENDBRANCH  20  21
ENDBRANCH   5  20
TORSDOF 7
ENDMDL
