MODEL 1
REMARK VINA RESULT:    -8.836      0.000      0.000
REMARK INTER + INTRA:         -10.892
REMARK INTER:                 -10.385
REMARK INTRA:                  -0.507
REMARK UNBOUND:                -0.507
REMARK  Name = 
REMARK  4 active torsions:
REMARK  status: ('A' for Active; 'I' for Inactive)
REMARK    1  A    between atoms: C_1  and  N_2
REMARK    2  A    between atoms: C_10  and  C_11
REMARK    3  A    between atoms: C_11  and  O_12
REMARK    4  A    between atoms: O_12  and  C_13
REMARK                            x       y       z     vdW  Elec       q    Type
REMARK                         _______ _______ _______ _____ _____    ______ ____
ROOT
ATOM      1  C   UNL     1      49.276   5.866  17.558  0.00  0.00    +0.000 C 
ATOM      2  N   UNL     1      48.924   5.420  16.210  0.00  0.00    +0.000 NA
ATOM      3  C   UNL     1      47.719   4.548  16.246  0.00  0.00    +0.000 C 
ATOM      4  C   UNL     1      47.199   4.151  14.836  0.00  0.00    +0.000 C 
ATOM      5  N   UNL     1      46.948   5.388  14.096  0.00  0.00    +0.000 N 
ATOM      6  C   UNL     1      46.014   5.395  13.075  0.00  0.00    +0.000 A 
ATOM      7  C   UNL     1      45.462   6.621  12.694  0.00  0.00    +0.000 A 
ATOM      8  C   UNL     1      44.464   6.678  11.731  0.00  0.00    +0.000 A 
ATOM      9  C   UNL     1      44.040   5.501  11.142  0.00  0.00    +0.000 A 
ATOM     10  C   UNL     1      44.604   4.303  11.563  0.00  0.00    +0.000 A 
ATOM     11  N   UNL     1      45.569   4.242  12.529  0.00  0.00    +0.000 NA
ATOM     12  C   UNL     1      48.164   6.198  13.932  0.00  0.00    +0.000 C 
ATOM     13  C   UNL     1      48.675   6.592  15.337  0.00  0.00    +0.000 C 
ENDROOT
BRANCH  10  14
ATOM     14  C   UNL     1      44.123   3.002  10.955  0.00  0.00    +0.000 C 
BRANCH  14  15
ATOM     15  O   UNL     1      43.916   3.170   9.549  0.00  0.00    +0.000 OA
BRANCH  15  16
ATOM     16  C   UNL     1      44.987   2.935   8.729  0.00  0.00    +0.000 A 
ATOM     17  C   UNL     1      45.657   3.891   7.956  0.00  0.00    +0.000 A 
ATOM     18  C   UNL     1      46.754   3.522   7.169  0.00  0.00    +0.000 A 
ATOM     19  C   UNL     1      47.180   2.198   7.156  0.00  0.00    +0.000 A 
ATOM     20  F   UNL     1      48.234   1.853   6.404  0.00  0.00    +0.000 F 
ATOM     21  C   UNL     1      46.515   1.245   7.914  0.00  0.00    +0.000 A 
ATOM     22  F   UNL     1      46.923  -0.033   7.899  0.00  0.00    +0.000 F 
ATOM     23  C   UNL     1      45.423   1.604   8.700  0.00  0.00    +0.000 A 
ENDBRANCH  15  16
ENDBRANCH  14  15
ENDBRANCH  10  14
TORSDOF 3
ENDMDL
MODEL 2
REMARK VINA RESULT:    -6.556      4.288      7.838
REMARK INTER + INTRA:          -8.213
REMARK INTER:                  -7.781
REMARK INTRA:                  -0.432
REMARK UNBOUND:                -0.507
REMARK  Name = 
REMARK  4 active torsions:
REMARK  status: ('A' for Active; 'I' for Inactive)
REMARK    1  A    between atoms: C_1  and  N_2
REMARK    2  A    between atoms: C_10  and  C_11
REMARK    3  A    between atoms: C_11  and  O_12
REMARK    4  A    between atoms: O_12  and  C_13
REMARK                            x       y       z     vdW  Elec       q    Type
REMARK                         _______ _______ _______ _____ _____    ______ ____
ROOT
ATOM      1  C   UNL     1      44.141   3.217  10.391  0.00  0.00    +0.000 C 
ATOM      2  N   UNL     1      44.559   4.177  11.413  0.00  0.00    +0.000 NA
ATOM      3  C   UNL     1      45.480   3.534  12.388  0.00  0.00    +0.000 C 
ATOM      4  C   UNL     1      46.080   4.527  13.422  0.00  0.00    +0.000 C 
ATOM      5  N   UNL     1      46.747   5.592  12.672  0.00  0.00    +0.000 N 
ATOM      6  C   UNL     1      47.791   6.288  13.256  0.00  0.00    +0.000 A 
ATOM      7  C   UNL     1      48.691   6.954  12.420  0.00  0.00    +0.000 A 
ATOM      8  C   UNL     1      49.799   7.601  12.947  0.00  0.00    +0.000 A 
ATOM      9  C   UNL     1      49.986   7.592  14.318  0.00  0.00    +0.000 A 
ATOM     10  C   UNL     1      49.076   6.902  15.110  0.00  0.00    +0.000 A 
ATOM     11  N   UNL     1      47.998   6.243  14.591  0.00  0.00    +0.000 NA
ATOM     12  C   UNL     1      45.820   6.330  11.802  0.00  0.00    +0.000 C 
ATOM     13  C   UNL     1      45.228   5.337  10.775  0.00  0.00    +0.000 C 
ENDROOT
BRANCH  10  14
ATOM     14  C   UNL     1      49.289   6.850  16.609  0.00  0.00    +0.000 C 
BRANCH  14  15
ATOM     15  O   UNL     1      48.536   5.770  17.169  0.00  0.00    +0.000 OA
BRANCH  15  16
ATOM     16  C   UNL     1      49.134   4.538  17.192  0.00  0.00    +0.000 A 
ATOM     17  C   UNL     1      48.530   3.324  16.843  0.00  0.00    +0.000 A 
ATOM     18  C   UNL     1      49.261   2.131  16.894  0.00  0.00    +0.000 A 
ATOM     19  C   UNL     1      50.593   2.154  17.294  0.00  0.00    +0.000 A 
ATOM     20  F   UNL     1      51.287   1.008  17.337  0.00  0.00    +0.000 F 
ATOM     21  C   UNL     1      51.194   3.353  17.649  0.00  0.00    +0.000 A 
ATOM     22  F   UNL     1      52.476   3.376  18.039  0.00  0.00    +0.000 F 
ATOM     23  C   UNL     1      50.474   4.544  17.600  0.00  0.00    +0.000 A 
ENDBRANCH  15  16
ENDBRANCH  14  15
ENDBRANCH  10  14
TORSDOF 3
ENDMDL
MODEL 3
REMARK VINA RESULT:    -6.500      1.687      2.352
REMARK INTER + INTRA:          -8.147
REMARK INTER:                  -7.782
REMARK INTRA:                  -0.365
REMARK UNBOUND:                -0.507
REMARK  Name = 
REMARK  4 active torsions:
REMARK  status: ('A' for Active; 'I' for Inactive)
REMARK    1  A    between atoms: C_1  and  N_2
REMARK    2  A    between atoms: C_10  and  C_11
REMARK    3  A    between atoms: C_11  and  O_12
REMARK    4  A    between atoms: O_12  and  C_13
REMARK                            x       y       z     vdW  Elec       q    Type
REMARK                         _______ _______ _______ _____ _____    ______ ____
ROOT
ATOM      1  C   UNL     1      51.196   7.797  18.304  0.00  0.00    +0.000 C 
ATOM      2  N   UNL     1      50.713   7.145  17.087  0.00  0.00    +0.000 NA
ATOM      3  C   UNL     1      49.367   6.554  17.310  0.00  0.00    +0.000 C 
ATOM      4  C   UNL     1      48.725   5.968  16.021  0.00  0.00    +0.000 C 
ATOM      5  N   UNL     1      48.685   7.040  15.025  0.00  0.00    +0.000 N 
ATOM      6  C   UNL     1      47.730   7.006  14.025  0.00  0.00    +0.000 A 
ATOM      7  C   UNL     1      47.406   8.204  13.381  0.00  0.00    +0.000 A 
ATOM      8  C   UNL     1      46.400   8.243  12.426  0.00  0.00    +0.000 A 
ATOM      9  C   UNL     1      45.737   7.071  12.109  0.00  0.00    +0.000 A 
ATOM     10  C   UNL     1      46.079   5.907  12.787  0.00  0.00    +0.000 A 
ATOM     11  N   UNL     1      47.052   5.871  13.745  0.00  0.00    +0.000 NA
ATOM     12  C   UNL     1      50.025   7.543  14.690  0.00  0.00    +0.000 C 
ATOM     13  C   UNL     1      50.657   8.125  15.976  0.00  0.00    +0.000 C 
ENDROOT
BRANCH  10  14
ATOM     14  C   UNL     1      45.335   4.624  12.479  0.00  0.00    +0.000 C 
BRANCH  14  15
ATOM     15  O   UNL     1      44.528   4.798  11.310  0.00  0.00    +0.000 OA
BRANCH  15  16
ATOM     16  C   UNL     1      44.997   4.258  10.142  0.00  0.00    +0.000 A 
ATOM     17  C   UNL     1      45.656   4.953   9.121  0.00  0.00    +0.000 A 
ATOM     18  C   UNL     1      46.102   4.276   7.980  0.00  0.00    +0.000 A 
ATOM     19  C   UNL     1      45.889   2.907   7.862  0.00  0.00    +0.000 A 
ATOM     20  F   UNL     1      46.323   2.265   6.768  0.00  0.00    +0.000 F 
ATOM     21  C   UNL     1      45.230   2.215   8.867  0.00  0.00    +0.000 A 
ATOM     22  F   UNL     1      45.020   0.895   8.753  0.00  0.00    +0.000 F 
ATOM     23  C   UNL     1      44.783   2.881  10.006  0.00  0.00    +0.000 A 
ENDBRANCH  15  16
ENDBRANCH  14  15
ENDBRANCH  10  14
TORSDOF 3
ENDMDL
MODEL 4
REMARK VINA RESULT:    -6.051      3.929      6.285
REMARK INTER + INTRA:          -7.619
REMARK INTER:                  -7.336
REMARK INTRA:                  -0.283
REMARK UNBOUND:                -0.507
REMARK  Name = 
REMARK  4 active torsions:
REMARK  status: ('A' for Active; 'I' for Inactive)
REMARK    1  A    between atoms: C_1  and  N_2
REMARK    2  A    between atoms: C_10  and  C_11
REMARK    3  A    between atoms: C_11  and  O_12
REMARK    4  A    between atoms: O_12  and  C_13
REMARK                            x       y       z     vdW  Elec       q    Type
REMARK                         _______ _______ _______ _____ _____    ______ ____
ROOT
ATOM      1  C   UNL     1      54.503   0.437  18.803  0.00  0.00    +0.000 C 
ATOM      2  N   UNL     1      53.696   1.379  18.028  0.00  0.00    +0.000 NA
ATOM      3  C   UNL     1      52.376   0.781  17.690  0.00  0.00    +0.000 C 
ATOM      4  C   UNL     1      51.406   1.774  16.990  0.00  0.00    +0.000 C 
ATOM      5  N   UNL     1      51.263   2.938  17.865  0.00  0.00    +0.000 N 
ATOM      6  C   UNL     1      50.112   3.704  17.799  0.00  0.00    +0.000 A 
ATOM      7  C   UNL     1      49.784   4.500  18.900  0.00  0.00    +0.000 A 
ATOM      8  C   UNL     1      48.603   5.226  18.920  0.00  0.00    +0.000 A 
ATOM      9  C   UNL     1      47.764   5.164  17.822  0.00  0.00    +0.000 A 
ATOM     10  C   UNL     1      48.120   4.346  16.757  0.00  0.00    +0.000 A 
ATOM     11  N   UNL     1      49.271   3.610  16.745  0.00  0.00    +0.000 NA
ATOM     12  C   UNL     1      52.542   3.624  18.099  0.00  0.00    +0.000 C 
ATOM     13  C   UNL     1      53.501   2.632  18.797  0.00  0.00    +0.000 C 
ENDROOT
BRANCH  10  14
ATOM     14  C   UNL     1      47.194   4.236  15.564  0.00  0.00    +0.000 C 
BRANCH  14  15
ATOM     15  O   UNL     1      47.580   5.181  14.560  0.00  0.00    +0.000 OA
BRANCH  15  16
ATOM     16  C   UNL     1      46.841   5.203  13.407  0.00  0.00    +0.000 A 
ATOM     17  C   UNL     1      46.873   6.205  12.430  0.00  0.00    +0.000 A 
ATOM     18  C   UNL     1      46.077   6.100  11.283  0.00  0.00    +0.000 A 
ATOM     19  C   UNL     1      45.252   4.993  11.115  0.00  0.00    +0.000 A 
ATOM     20  F   UNL     1      44.497   4.896  10.012  0.00  0.00    +0.000 F 
ATOM     21  C   UNL     1      45.211   4.000  12.084  0.00  0.00    +0.000 A 
ATOM     22  F   UNL     1      44.413   2.935  11.925  0.00  0.00    +0.000 F 
ATOM     23  C   UNL     1      46.000   4.098  13.227  0.00  0.00    +0.000 A 
ENDBRANCH  15  16
ENDBRANCH  14  15
ENDBRANCH  10  14
TORSDOF 3
ENDMDL
MODEL 5
REMARK VINA RESULT:    -6.047      2.857      4.115
REMARK INTER + INTRA:          -7.615
REMARK INTER:                  -7.079
REMARK INTRA:                  -0.536
REMARK UNBOUND:                -0.507
REMARK  Name = 
REMARK  4 active torsions:
REMARK  status: ('A' for Active; 'I' for Inactive)
REMARK    1  A    between atoms: C_1  and  N_2
REMARK    2  A    between atoms: C_10  and  C_11
REMARK    3  A    between atoms: C_11  and  O_12
REMARK    4  A    between atoms: O_12  and  C_13
REMARK                            x       y       z     vdW  Elec       q    Type
REMARK                         _______ _______ _______ _____ _____    ______ ____
ROOT
ATOM      1  C   UNL     1      51.919  10.736  11.967  0.00  0.00    +0.000 C 
ATOM      2  N   UNL     1      50.551  10.383  12.349  0.00  0.00    +0.000 NA
ATOM      3  C   UNL     1      49.902   9.578  11.279  0.00  0.00    +0.000 C 
ATOM      4  C   UNL     1      48.496   9.044  11.672  0.00  0.00    +0.000 C 
ATOM      5  N   UNL     1      48.648   8.276  12.909  0.00  0.00    +0.000 N 
ATOM      6  C   UNL     1      47.745   7.270  13.202  0.00  0.00    +0.000 A 
ATOM      7  C   UNL     1      48.135   6.275  14.104  0.00  0.00    +0.000 A 
ATOM      8  C   UNL     1      47.300   5.201  14.375  0.00  0.00    +0.000 A 
ATOM      9  C   UNL     1      46.067   5.141  13.750  0.00  0.00    +0.000 A 
ATOM     10  C   UNL     1      45.728   6.142  12.848  0.00  0.00    +0.000 A 
ATOM     11  N   UNL     1      46.558   7.189  12.561  0.00  0.00    +0.000 NA
ATOM     12  C   UNL     1      49.161   9.096  14.017  0.00  0.00    +0.000 C 
ATOM     13  C   UNL     1      50.559   9.622  13.621  0.00  0.00    +0.000 C 
ENDROOT
BRANCH  10  14
ATOM     14  C   UNL     1      44.398   6.070  12.127  0.00  0.00    +0.000 C 
BRANCH  14  15
ATOM     15  O   UNL     1      44.614   6.003  10.714  0.00  0.00    +0.000 OA
BRANCH  15  16
ATOM     16  C   UNL     1      44.785   4.759  10.168  0.00  0.00    +0.000 A 
ATOM     17  C   UNL     1      44.274   3.559  10.678  0.00  0.00    +0.000 A 
ATOM     18  C   UNL     1      44.508   2.351  10.011  0.00  0.00    +0.000 A 
ATOM     19  C   UNL     1      45.251   2.344   8.835  0.00  0.00    +0.000 A 
ATOM     20  F   UNL     1      45.467   1.184   8.200  0.00  0.00    +0.000 F 
ATOM     21  C   UNL     1      45.766   3.529   8.329  0.00  0.00    +0.000 A 
ATOM     22  F   UNL     1      46.486   3.523   7.198  0.00  0.00    +0.000 F 
ATOM     23  C   UNL     1      45.537   4.735   8.987  0.00  0.00    +0.000 A 
ENDBRANCH  15  16
ENDBRANCH  14  15
ENDBRANCH  10  14
TORSDOF 3
ENDMDL
MODEL 6
REMARK VINA RESULT:    -5.999      2.697      4.585
REMARK INTER + INTRA:          -7.558
REMARK INTER:                  -7.199
REMARK INTRA:                  -0.359
REMARK UNBOUND:                -0.507
REMARK  Name = 
REMARK  4 active torsions:
REMARK  status: ('A' for Active; 'I' for Inactive)
REMARK    1  A    between atoms: C_1  and  N_2
REMARK    2  A    between atoms: C_10  and  C_11
REMARK    3  A    between atoms: C_11  and  O_12
REMARK    4  A    between atoms: O_12  and  C_13
REMARK                            x       y       z     vdW  Elec       q    Type
REMARK                         _______ _______ _______ _____ _____    ______ ____
ROOT
ATOM      1  C   UNL     1      51.593  10.989  15.209  0.00  0.00    +0.000 C 
ATOM      2  N   UNL     1      50.403  10.150  15.073  0.00  0.00    +0.000 NA
ATOM      3  C   UNL     1      50.705   8.942  14.258  0.00  0.00    +0.000 C 
ATOM      4  C   UNL     1      49.528   7.930  14.189  0.00  0.00    +0.000 C 
ATOM      5  N   UNL     1      49.171   7.577  15.564  0.00  0.00    +0.000 N 
ATOM      6  C   UNL     1      48.573   6.357  15.822  0.00  0.00    +0.000 A 
ATOM      7  C   UNL     1      48.651   5.844  17.120  0.00  0.00    +0.000 A 
ATOM      8  C   UNL     1      48.138   4.590  17.416  0.00  0.00    +0.000 A 
ATOM      9  C   UNL     1      47.531   3.863  16.407  0.00  0.00    +0.000 A 
ATOM     10  C   UNL     1      47.492   4.403  15.128  0.00  0.00    +0.000 A 
ATOM     11  N   UNL     1      48.018   5.628  14.828  0.00  0.00    +0.000 NA
ATOM     12  C   UNL     1      48.736   8.744  16.346  0.00  0.00    +0.000 C 
ATOM     13  C   UNL     1      49.911   9.746  16.412  0.00  0.00    +0.000 C 
ENDROOT
BRANCH  10  14
ATOM     14  C   UNL     1      46.866   3.603  14.004  0.00  0.00    +0.000 C 
BRANCH  14  15
ATOM     15  O   UNL     1      45.639   4.217  13.596  0.00  0.00    +0.000 OA
BRANCH  15  16
ATOM     16  C   UNL     1      45.429   4.357  12.250  0.00  0.00    +0.000 A 
ATOM     17  C   UNL     1      45.705   5.499  11.490  0.00  0.00    +0.000 A 
ATOM     18  C   UNL     1      45.459   5.508  10.112  0.00  0.00    +0.000 A 
ATOM     19  C   UNL     1      44.938   4.374   9.497  0.00  0.00    +0.000 A 
ATOM     20  F   UNL     1      44.709   4.387   8.177  0.00  0.00    +0.000 F 
ATOM     21  C   UNL     1      44.655   3.241  10.247  0.00  0.00    +0.000 A 
ATOM     22  F   UNL     1      44.149   2.149   9.657  0.00  0.00    +0.000 F 
ATOM     23  C   UNL     1      44.898   3.226  11.619  0.00  0.00    +0.000 A 
ENDBRANCH  15  16
ENDBRANCH  14  15
ENDBRANCH  10  14
TORSDOF 3
ENDMDL
MODEL 7
REMARK VINA RESULT:    -5.969      2.977      5.263
REMARK INTER + INTRA:          -7.523
REMARK INTER:                  -7.238
REMARK INTRA:                  -0.285
REMARK UNBOUND:                -0.507
REMARK  Name = 
REMARK  4 active torsions:
REMARK  status: ('A' for Active; 'I' for Inactive)
REMARK    1  A    between atoms: C_1  and  N_2
REMARK    2  A    between atoms: C_10  and  C_11
REMARK    3  A    between atoms: C_11  and  O_12
REMARK    4  A    between atoms: O_12  and  C_13
REMARK                            x       y       z     vdW  Elec       q    Type
REMARK                         _______ _______ _______ _____ _____    ______ ____
ROOT
ATOM      1  C   UNL     1      54.192   6.574  19.497  0.00  0.00    +0.000 C 
ATOM      2  N   UNL     1      52.852   6.776  18.946  0.00  0.00    +0.000 NA
ATOM      3  C   UNL     1      52.779   6.267  17.550  0.00  0.00    +0.000 C 
ATOM      4  C   UNL     1      51.348   6.315  16.946  0.00  0.00    +0.000 C 
ATOM      5  N   UNL     1      50.468   5.563  17.841  0.00  0.00    +0.000 N 
ATOM      6  C   UNL     1      49.318   4.981  17.338  0.00  0.00    +0.000 A 
ATOM      7  C   UNL     1      48.745   3.925  18.051  0.00  0.00    +0.000 A 
ATOM      8  C   UNL     1      47.638   3.254  17.552  0.00  0.00    +0.000 A 
ATOM      9  C   UNL     1      47.100   3.662  16.346  0.00  0.00    +0.000 A 
ATOM     10  C   UNL     1      47.711   4.705  15.661  0.00  0.00    +0.000 A 
ATOM     11  N   UNL     1      48.817   5.352  16.138  0.00  0.00    +0.000 NA
ATOM     12  C   UNL     1      50.422   6.138  19.194  0.00  0.00    +0.000 C 
ATOM     13  C   UNL     1      51.847   6.084  19.789  0.00  0.00    +0.000 C 
ENDROOT
BRANCH  10  14
ATOM     14  C   UNL     1      47.157   5.139  14.320  0.00  0.00    +0.000 C 
BRANCH  14  15
ATOM     15  O   UNL     1      45.978   4.388  14.016  0.00  0.00    +0.000 OA
BRANCH  15  16
ATOM     16  C   UNL     1      45.496   4.474  12.737  0.00  0.00    +0.000 A 
ATOM     17  C   UNL     1      45.614   5.580  11.886  0.00  0.00    +0.000 A 
ATOM     18  C   UNL     1      45.090   5.533  10.590  0.00  0.00    +0.000 A 
ATOM     19  C   UNL     1      44.449   4.382  10.145  0.00  0.00    +0.000 A 
ATOM     20  F   UNL     1      43.953   4.343   8.901  0.00  0.00    +0.000 F 
ATOM     21  C   UNL     1      44.322   3.286  10.987  0.00  0.00    +0.000 A 
ATOM     22  F   UNL     1      43.700   2.176  10.561  0.00  0.00    +0.000 F 
ATOM     23  C   UNL     1      44.841   3.324  12.278  0.00  0.00    +0.000 A 
ENDBRANCH  15  16
ENDBRANCH  14  15
ENDBRANCH  10  14
TORSDOF 3
ENDMDL
MODEL 8
REMARK VINA RESULT:    -5.920      5.159      8.571
REMARK INTER + INTRA:          -7.465
REMARK INTER:                  -7.125
REMARK INTRA:                  -0.340
REMARK UNBOUND:                -0.507
REMARK  Name = 
REMARK  4 active torsions:
REMARK  status: ('A' for Active; 'I' for Inactive)
REMARK    1  A    between atoms: C_1  and  N_2
REMARK    2  A    between atoms: C_10  and  C_11
REMARK    3  A    between atoms: C_11  and  O_12
REMARK    4  A    between atoms: O_12  and  C_13
REMARK                            x       y       z     vdW  Elec       q    Type
REMARK                         _______ _______ _______ _____ _____    ______ ____
ROOT
ATOM      1  C   UNL     1      43.435   2.890  11.546  0.00  0.00    +0.000 C 
ATOM      2  N   UNL     1      44.132   3.770  12.484  0.00  0.00    +0.000 NA
ATOM      3  C   UNL     1      45.534   3.315  12.683  0.00  0.00    +0.000 C 
ATOM      4  C   UNL     1      46.382   4.282  13.555  0.00  0.00    +0.000 C 
ATOM      5  N   UNL     1      46.327   5.603  12.927  0.00  0.00    +0.000 N 
ATOM      6  C   UNL     1      47.361   6.500  13.132  0.00  0.00    +0.000 A 
ATOM      7  C   UNL     1      47.530   7.534  12.207  0.00  0.00    +0.000 A 
ATOM      8  C   UNL     1      48.597   8.414  12.319  0.00  0.00    +0.000 A 
ATOM      9  C   UNL     1      49.479   8.261  13.374  0.00  0.00    +0.000 A 
ATOM     10  C   UNL     1      49.283   7.208  14.259  0.00  0.00    +0.000 A 
ATOM     11  N   UNL     1      48.247   6.325  14.137  0.00  0.00    +0.000 NA
ATOM     12  C   UNL     1      44.956   6.128  12.849  0.00  0.00    +0.000 C 
ATOM     13  C   UNL     1      44.119   5.164  11.978  0.00  0.00    +0.000 C 
ENDROOT
BRANCH  10  14
ATOM     14  C   UNL     1      50.262   7.003  15.397  0.00  0.00    +0.000 C 
BRANCH  14  15
ATOM     15  O   UNL     1      49.888   5.850  16.158  0.00  0.00    +0.000 OA
BRANCH  15  16
ATOM     16  C   UNL     1      49.232   6.068  17.340  0.00  0.00    +0.000 A 
ATOM     17  C   UNL     1      48.638   7.271  17.740  0.00  0.00    +0.000 A 
ATOM     18  C   UNL     1      47.979   7.358  18.973  0.00  0.00    +0.000 A 
ATOM     19  C   UNL     1      47.915   6.242  19.801  0.00  0.00    +0.000 A 
ATOM     20  F   UNL     1      47.279   6.331  20.977  0.00  0.00    +0.000 F 
ATOM     21  C   UNL     1      48.508   5.050  19.412  0.00  0.00    +0.000 A 
ATOM     22  F   UNL     1      48.451   3.975  20.211  0.00  0.00    +0.000 F 
ATOM     23  C   UNL     1      49.165   4.956  18.187  0.00  0.00    +0.000 A 
ENDBRANCH  15  16
ENDBRANCH  14  15
ENDBRANCH  10  14
TORSDOF 3
ENDMDL
MODEL 9
REMARK VINA RESULT:    -5.877      2.581      4.061
REMARK INTER + INTRA:          -7.415
REMARK INTER:                  -7.030
REMARK INTRA:                  -0.385
REMARK UNBOUND:                -0.507
REMARK  Name = 
REMARK  4 active torsions:
REMARK  status: ('A' for Active; 'I' for Inactive)
REMARK    1  A    between atoms: C_1  and  N_2
REMARK    2  A    between atoms: C_10  and  C_11
REMARK    3  A    between atoms: C_11  and  O_12
REMARK    4  A    between atoms: O_12  and  C_13
REMARK                            x       y       z     vdW  Elec       q    Type
REMARK                         _______ _______ _______ _____ _____    ______ ____
ROOT
ATOM      1  C   UNL     1      51.438   8.595  19.289  0.00  0.00    +0.000 C 
ATOM      2  N   UNL     1      50.763   7.748  18.305  0.00  0.00    +0.000 NA
ATOM      3  C   UNL     1      49.453   8.339  17.919  0.00  0.00    +0.000 C 
ATOM      4  C   UNL     1      48.741   7.571  16.771  0.00  0.00    +0.000 C 
ATOM      5  N   UNL     1      49.665   7.521  15.637  0.00  0.00    +0.000 N 
ATOM      6  C   UNL     1      49.164   7.404  14.353  0.00  0.00    +0.000 A 
ATOM      7  C   UNL     1      49.976   7.804  13.288  0.00  0.00    +0.000 A 
ATOM      8  C   UNL     1      49.496   7.783  11.986  0.00  0.00    +0.000 A 
ATOM      9  C   UNL     1      48.205   7.339  11.760  0.00  0.00    +0.000 A 
ATOM     10  C   UNL     1      47.427   6.968  12.849  0.00  0.00    +0.000 A 
ATOM     11  N   UNL     1      47.889   7.012  14.135  0.00  0.00    +0.000 NA
ATOM     12  C   UNL     1      50.913   6.816  15.963  0.00  0.00    +0.000 C 
ATOM     13  C   UNL     1      51.618   7.586  17.104  0.00  0.00    +0.000 C 
ENDROOT
BRANCH  10  14
ATOM     14  C   UNL     1      45.999   6.517  12.622  0.00  0.00    +0.000 C 
BRANCH  14  15
ATOM     15  O   UNL     1      45.679   6.602  11.230  0.00  0.00    +0.000 OA
BRANCH  15  16
ATOM     16  C   UNL     1      45.342   5.436  10.594  0.00  0.00    +0.000 A 
ATOM     17  C   UNL     1      45.653   5.102   9.271  0.00  0.00    +0.000 A 
ATOM     18  C   UNL     1      45.264   3.865   8.744  0.00  0.00    +0.000 A 
ATOM     19  C   UNL     1      44.565   2.965   9.542  0.00  0.00    +0.000 A 
ATOM     20  F   UNL     1      44.199   1.780   9.032  0.00  0.00    +0.000 F 
ATOM     21  C   UNL     1      44.248   3.294  10.852  0.00  0.00    +0.000 A 
ATOM     22  F   UNL     1      43.571   2.428  11.620  0.00  0.00    +0.000 F 
ATOM     23  C   UNL     1      44.632   4.523  11.383  0.00  0.00    +0.000 A 
ENDBRANCH  15  16
ENDBRANCH  14  15
ENDBRANCH  10  14
TORSDOF 3
ENDMDL
