MODEL 1
REMARK VINA RESULT:    -8.345      0.000      0.000
REMARK INTER + INTRA:         -10.538
REMARK INTER:                 -10.541
REMARK INTRA:                   0.003
REMARK UNBOUND:                 0.003
REMARK  Name = 
REMARK  5 active torsions:
REMARK  status: ('A' for Active; 'I' for Inactive)
REMARK    1  A    between atoms: N_1  and  C_2
REMARK    2  A    between atoms: C_2  and  C_3
REMARK    3  A    between atoms: C_6  and  C_7
REMARK    4  A    between atoms: C_7  and  N_8
REMARK    5  A    between atoms: C_13  and  C_14
REMARK                            x       y       z     vdW  Elec       q    Type
REMARK                         _______ _______ _______ _____ _____    ______ ____
ROOT
ATOM      1  N   UNL     1      43.816   4.334  10.481  0.00  0.00    +0.000 N 
ATOM      2  N   UNL     1      43.199   3.252  10.992  0.00  0.00    +0.000 NA
ATOM      3  N   UNL     1      43.763   2.178  10.456  0.00  0.00    +0.000 NA
ATOM      4  C   UNL     1      44.708   2.600   9.561  0.00  0.00    +0.000 A 
ATOM      5  C   UNL     1      45.558   1.859   8.727  0.00  0.00    +0.000 A 
ATOM      6  C   UNL     1      46.408   2.552   7.849  0.00  0.00    +0.000 A 
ATOM      7  C   UNL     1      46.421   3.958   7.846  0.00  0.00    +0.000 A 
ATOM      8  C   UNL     1      45.599   4.710   8.698  0.00  0.00    +0.000 A 
ATOM      9  C   UNL     1      44.749   3.987   9.537  0.00  0.00    +0.000 A 
ENDROOT
BRANCH   6  10
ATOM     10  C   UNL     1      47.304   1.847   6.885  0.00  0.00    +0.000 C 
ATOM     11  N   UNL     1      48.371   2.524   6.367  0.00  0.00    +0.000 N 
ATOM     12  O   UNL     1      47.107   0.677   6.570  0.00  0.00    +0.000 OA
ATOM     13  H   UNL     1      48.635   3.471   6.594  0.00  0.00    +0.000 HD
ATOM     14  H   UNL     1      48.972   2.008   5.742  0.00  0.00    +0.000 HD
ENDBRANCH   6  10
BRANCH   1  15
ATOM     15  C   UNL     1      43.453   5.661  10.935  0.00  0.00    +0.000 C 
BRANCH  15  19
ATOM     16  C   UNL     1      46.953   5.866  12.507  0.00  0.00    +0.000 C 
ATOM     17  C   UNL     1      46.076   4.600  12.523  0.00  0.00    +0.000 C 
ATOM     18  C   UNL     1      44.661   4.831  13.057  0.00  0.00    +0.000 C 
ATOM     19  C   UNL     1      43.923   5.993  12.368  0.00  0.00    +0.000 C 
ATOM     20  C   UNL     1      44.802   7.255  12.373  0.00  0.00    +0.000 C 
ATOM     21  C   UNL     1      46.202   7.012  11.804  0.00  0.00    +0.000 C 
BRANCH  16  22
ATOM     22  C   UNL     1      47.453   6.310  13.899  0.00  0.00    +0.000 C 
BRANCH  22  23
ATOM     23  N   UNL     1      47.571   5.198  14.840  0.00  0.00    +0.000 NA
ATOM     24  H   UNL     1      46.756   4.592  14.746  0.00  0.00    +0.000 HD
ATOM     25  H   UNL     1      47.543   5.551  15.795  0.00  0.00    +0.000 HD
ENDBRANCH  22  23
ENDBRANCH  16  22
ENDBRANCH  15  19
ENDBRANCH   1  15
TORSDOF 5
ENDMDL
MODEL 2
REMARK VINA RESULT:    -7.753      2.893      6.425
REMARK INTER + INTRA:          -9.790
REMARK INTER:                  -9.146
REMARK INTRA:                  -0.643
REMARK UNBOUND:                 0.003
REMARK  Name = 
REMARK  5 active torsions:
REMARK  status: ('A' for Active; 'I' for Inactive)
REMARK    1  A    between atoms: N_1  and  C_2
REMARK    2  A    between atoms: C_2  and  C_3
REMARK    3  A    between atoms: C_6  and  C_7
REMARK    4  A    between atoms: C_7  and  N_8
REMARK    5  A    between atoms: C_13  and  C_14
REMARK                            x       y       z     vdW  Elec       q    Type
REMARK                         _______ _______ _______ _____ _____    ______ ____
ROOT
ATOM      1  N   UNL     1      44.288   3.854  10.807  0.00  0.00    +0.000 N 
ATOM      2  N   UNL     1      42.976   3.815  11.112  0.00  0.00    +0.000 NA
ATOM      3  N   UNL     1      42.631   5.018  11.549  0.00  0.00    +0.000 NA
ATOM      4  C   UNL     1      43.754   5.800  11.566  0.00  0.00    +0.000 A 
ATOM      5  C   UNL     1      43.920   7.135  11.964  0.00  0.00    +0.000 A 
ATOM      6  C   UNL     1      45.211   7.688  11.934  0.00  0.00    +0.000 A 
ATOM      7  C   UNL     1      46.295   6.918  11.478  0.00  0.00    +0.000 A 
ATOM      8  C   UNL     1      46.136   5.593  11.047  0.00  0.00    +0.000 A 
ATOM      9  C   UNL     1      44.843   5.070  11.115  0.00  0.00    +0.000 A 
ENDROOT
BRANCH   6  10
ATOM     10  C   UNL     1      45.491   9.081  12.393  0.00  0.00    +0.000 C 
ATOM     11  N   UNL     1      44.439   9.930  12.589  0.00  0.00    +0.000 N 
ATOM     12  O   UNL     1      46.637   9.462  12.609  0.00  0.00    +0.000 OA
ATOM     13  H   UNL     1      43.465   9.697  12.475  0.00  0.00    +0.000 HD
ATOM     14  H   UNL     1      44.664  10.854  12.928  0.00  0.00    +0.000 HD
ENDBRANCH   6  10
BRANCH   1  15
ATOM     15  C   UNL     1      44.937   2.691  10.238  0.00  0.00    +0.000 C 
BRANCH  15  19
ATOM     16  C   UNL     1      47.235   2.856   7.163  0.00  0.00    +0.000 C 
ATOM     17  C   UNL     1      46.412   4.048   7.686  0.00  0.00    +0.000 C 
ATOM     18  C   UNL     1      44.926   3.739   7.882  0.00  0.00    +0.000 C 
ATOM     19  C   UNL     1      44.663   2.484   8.732  0.00  0.00    +0.000 C 
ATOM     20  C   UNL     1      45.478   1.297   8.191  0.00  0.00    +0.000 C 
ATOM     21  C   UNL     1      46.967   1.615   8.033  0.00  0.00    +0.000 C 
BRANCH  16  22
ATOM     22  C   UNL     1      47.011   2.537   5.669  0.00  0.00    +0.000 C 
BRANCH  22  23
ATOM     23  N   UNL     1      48.223   2.069   5.002  0.00  0.00    +0.000 NA
ATOM     24  H   UNL     1      48.683   2.859   4.549  0.00  0.00    +0.000 HD
ATOM     25  H   UNL     1      47.977   1.426   4.250  0.00  0.00    +0.000 HD
ENDBRANCH  22  23
ENDBRANCH  16  22
ENDBRANCH  15  19
ENDBRANCH   1  15
TORSDOF 5
ENDMDL
MODEL 3
REMARK VINA RESULT:    -6.753      1.602      2.113
REMARK INTER + INTRA:          -8.526
REMARK INTER:                  -8.630
REMARK INTRA:                   0.104
REMARK UNBOUND:                 0.003
REMARK  Name = 
REMARK  5 active torsions:
REMARK  status: ('A' for Active; 'I' for Inactive)
REMARK    1  A    between atoms: N_1  and  C_2
REMARK    2  A    between atoms: C_2  and  C_3
REMARK    3  A    between atoms: C_6  and  C_7
REMARK    4  A    between atoms: C_7  and  N_8
REMARK    5  A    between atoms: C_13  and  C_14
REMARK                            x       y       z     vdW  Elec       q    Type
REMARK                         _______ _______ _______ _____ _____    ______ ____
ROOT
ATOM      1  N   UNL     1      44.427   4.623  10.603  0.00  0.00    +0.000 N 
ATOM      2  N   UNL     1      43.766   3.580  11.142  0.00  0.00    +0.000 NA
ATOM      3  N   UNL     1      44.137   2.489  10.486  0.00  0.00    +0.000 NA
ATOM      4  C   UNL     1      44.999   2.866   9.492  0.00  0.00    +0.000 A 
ATOM      5  C   UNL     1      45.650   2.093   8.519  0.00  0.00    +0.000 A 
ATOM      6  C   UNL     1      46.450   2.748   7.567  0.00  0.00    +0.000 A 
ATOM      7  C   UNL     1      46.614   4.143   7.627  0.00  0.00    +0.000 A 
ATOM      8  C   UNL     1      45.995   4.922   8.616  0.00  0.00    +0.000 A 
ATOM      9  C   UNL     1      45.187   4.239   9.527  0.00  0.00    +0.000 A 
ENDROOT
BRANCH   6  10
ATOM     10  C   UNL     1      47.133   2.014   6.461  0.00  0.00    +0.000 C 
ATOM     11  N   UNL     1      47.809   2.734   5.518  0.00  0.00    +0.000 N 
ATOM     12  O   UNL     1      47.108   0.789   6.398  0.00  0.00    +0.000 OA
ATOM     13  H   UNL     1      47.917   3.737   5.507  0.00  0.00    +0.000 HD
ATOM     14  H   UNL     1      48.284   2.205   4.801  0.00  0.00    +0.000 HD
ENDBRANCH   6  10
BRANCH   1  15
ATOM     15  C   UNL     1      44.271   5.950  11.162  0.00  0.00    +0.000 C 
BRANCH  15  19
ATOM     16  C   UNL     1      46.421   8.115  13.497  0.00  0.00    +0.000 C 
ATOM     17  C   UNL     1      45.165   8.625  12.766  0.00  0.00    +0.000 C 
ATOM     18  C   UNL     1      45.173   8.364  11.259  0.00  0.00    +0.000 C 
ATOM     19  C   UNL     1      45.459   6.898  10.888  0.00  0.00    +0.000 C 
ATOM     20  C   UNL     1      46.724   6.406  11.610  0.00  0.00    +0.000 C 
ATOM     21  C   UNL     1      46.683   6.645  13.121  0.00  0.00    +0.000 C 
BRANCH  16  22
ATOM     22  C   UNL     1      47.683   8.973  13.263  0.00  0.00    +0.000 C 
BRANCH  22  23
ATOM     23  N   UNL     1      47.381  10.394  13.106  0.00  0.00    +0.000 NA
ATOM     24  H   UNL     1      46.887  10.536  12.225  0.00  0.00    +0.000 HD
ATOM     25  H   UNL     1      48.248  10.924  13.024  0.00  0.00    +0.000 HD
ENDBRANCH  22  23
ENDBRANCH  16  22
ENDBRANCH  15  19
ENDBRANCH   1  15
TORSDOF 5
ENDMDL
MODEL 4
REMARK VINA RESULT:    -6.416      3.332      5.497
REMARK INTER + INTRA:          -8.100
REMARK INTER:                  -7.520
REMARK INTRA:                  -0.580
REMARK UNBOUND:                 0.003
REMARK  Name = 
REMARK  5 active torsions:
REMARK  status: ('A' for Active; 'I' for Inactive)
REMARK    1  A    between atoms: N_1  and  C_2
REMARK    2  A    between atoms: C_2  and  C_3
REMARK    3  A    between atoms: C_6  and  C_7
REMARK    4  A    between atoms: C_7  and  N_8
REMARK    5  A    between atoms: C_13  and  C_14
REMARK                            x       y       z     vdW  Elec       q    Type
REMARK                         _______ _______ _______ _____ _____    ______ ____
ROOT
ATOM      1  N   UNL     1      47.615   5.952  14.225  0.00  0.00    +0.000 N 
ATOM      2  N   UNL     1      47.871   4.846  14.951  0.00  0.00    +0.000 NA
ATOM      3  N   UNL     1      47.183   3.848  14.414  0.00  0.00    +0.000 NA
ATOM      4  C   UNL     1      46.449   4.351  13.374  0.00  0.00    +0.000 A 
ATOM      5  C   UNL     1      45.552   3.710  12.507  0.00  0.00    +0.000 A 
ATOM      6  C   UNL     1      44.880   4.483  11.546  0.00  0.00    +0.000 A 
ATOM      7  C   UNL     1      45.141   5.861  11.443  0.00  0.00    +0.000 A 
ATOM      8  C   UNL     1      46.061   6.506  12.283  0.00  0.00    +0.000 A 
ATOM      9  C   UNL     1      46.689   5.711  13.242  0.00  0.00    +0.000 A 
ENDROOT
BRANCH   6  10
ATOM     10  C   UNL     1      43.865   3.898  10.621  0.00  0.00    +0.000 C 
ATOM     11  N   UNL     1      43.832   4.331   9.326  0.00  0.00    +0.000 N 
ATOM     12  O   UNL     1      43.081   3.032  10.999  0.00  0.00    +0.000 OA
ATOM     13  H   UNL     1      44.457   5.007   8.915  0.00  0.00    +0.000 HD
ATOM     14  H   UNL     1      43.153   3.892   8.721  0.00  0.00    +0.000 HD
ENDBRANCH   6  10
BRANCH   1  15
ATOM     15  C   UNL     1      48.284   7.198  14.539  0.00  0.00    +0.000 C 
BRANCH  15  19
ATOM     16  C   UNL     1      49.710   9.948  12.266  0.00  0.00    +0.000 C 
ATOM     17  C   UNL     1      49.024   8.672  11.745  0.00  0.00    +0.000 C 
ATOM     18  C   UNL     1      49.595   7.377  12.326  0.00  0.00    +0.000 C 
ATOM     19  C   UNL     1      49.662   7.367  13.863  0.00  0.00    +0.000 C 
ATOM     20  C   UNL     1      50.364   8.637  14.371  0.00  0.00    +0.000 C 
ATOM     21  C   UNL     1      49.758   9.924  13.805  0.00  0.00    +0.000 C 
BRANCH  16  22
ATOM     22  C   UNL     1      51.117  10.197  11.678  0.00  0.00    +0.000 C 
BRANCH  22  23
ATOM     23  N   UNL     1      51.076  10.743  10.324  0.00  0.00    +0.000 NA
ATOM     24  H   UNL     1      52.015  11.032  10.051  0.00  0.00    +0.000 HD
ATOM     25  H   UNL     1      50.512  11.592  10.312  0.00  0.00    +0.000 HD
ENDBRANCH  22  23
ENDBRANCH  16  22
ENDBRANCH  15  19
ENDBRANCH   1  15
TORSDOF 5
ENDMDL
MODEL 5
REMARK VINA RESULT:    -6.359      4.260      8.062
REMARK INTER + INTRA:          -8.029
REMARK INTER:                  -7.687
REMARK INTRA:                  -0.342
REMARK UNBOUND:                 0.003
REMARK  Name = 
REMARK  5 active torsions:
REMARK  status: ('A' for Active; 'I' for Inactive)
REMARK    1  A    between atoms: N_1  and  C_2
REMARK    2  A    between atoms: C_2  and  C_3
REMARK    3  A    between atoms: C_6  and  C_7
REMARK    4  A    between atoms: C_7  and  N_8
REMARK    5  A    between atoms: C_13  and  C_14
REMARK                            x       y       z     vdW  Elec       q    Type
REMARK                         _______ _______ _______ _____ _____    ______ ____
ROOT
ATOM      1  N   UNL     1      47.945   6.317  14.263  0.00  0.00    +0.000 N 
ATOM      2  N   UNL     1      48.476   7.550  14.382  0.00  0.00    +0.000 NA
ATOM      3  N   UNL     1      48.998   7.645  15.597  0.00  0.00    +0.000 NA
ATOM      4  C   UNL     1      48.742   6.475  16.260  0.00  0.00    +0.000 A 
ATOM      5  C   UNL     1      49.066   6.088  17.569  0.00  0.00    +0.000 A 
ATOM      6  C   UNL     1      48.628   4.834  18.025  0.00  0.00    +0.000 A 
ATOM      7  C   UNL     1      47.916   3.981  17.164  0.00  0.00    +0.000 A 
ATOM      8  C   UNL     1      47.615   4.344  15.842  0.00  0.00    +0.000 A 
ATOM      9  C   UNL     1      48.043   5.608  15.433  0.00  0.00    +0.000 A 
ENDROOT
BRANCH   6  10
ATOM     10  C   UNL     1      48.876   4.363  19.420  0.00  0.00    +0.000 C 
ATOM     11  N   UNL     1      48.292   3.199  19.832  0.00  0.00    +0.000 N 
ATOM     12  O   UNL     1      49.600   4.991  20.186  0.00  0.00    +0.000 OA
ATOM     13  H   UNL     1      47.714   2.597  19.265  0.00  0.00    +0.000 HD
ATOM     14  H   UNL     1      48.505   2.895  20.771  0.00  0.00    +0.000 HD
ENDBRANCH   6  10
BRANCH   1  15
ATOM     15  C   UNL     1      47.354   5.898  13.009  0.00  0.00    +0.000 C 
BRANCH  15  19
ATOM     16  C   UNL     1      44.869   3.760  11.006  0.00  0.00    +0.000 C 
ATOM     17  C   UNL     1      45.313   5.175  10.592  0.00  0.00    +0.000 C 
ATOM     18  C   UNL     1      45.158   6.223  11.696  0.00  0.00    +0.000 C 
ATOM     19  C   UNL     1      45.812   5.817  13.029  0.00  0.00    +0.000 C 
ATOM     20  C   UNL     1      45.348   4.410  13.439  0.00  0.00    +0.000 C 
ATOM     21  C   UNL     1      45.541   3.368  12.334  0.00  0.00    +0.000 C 
BRANCH  16  22
ATOM     22  C   UNL     1      43.337   3.575  11.092  0.00  0.00    +0.000 C 
BRANCH  22  23
ATOM     23  N   UNL     1      42.953   2.276  11.638  0.00  0.00    +0.000 NA
ATOM     24  H   UNL     1      43.069   2.290  12.651  0.00  0.00    +0.000 HD
ATOM     25  H   UNL     1      43.591   1.557  11.297  0.00  0.00    +0.000 HD
ENDBRANCH  22  23
ENDBRANCH  16  22
ENDBRANCH  15  19
ENDBRANCH   1  15
TORSDOF 5
ENDMDL
MODEL 6
REMARK VINA RESULT:    -6.275      3.575      5.509
REMARK INTER + INTRA:          -7.922
REMARK INTER:                  -7.639
REMARK INTRA:                  -0.283
REMARK UNBOUND:                 0.003
REMARK  Name = 
REMARK  5 active torsions:
REMARK  status: ('A' for Active; 'I' for Inactive)
REMARK    1  A    between atoms: N_1  and  C_2
REMARK    2  A    between atoms: C_2  and  C_3
REMARK    3  A    between atoms: C_6  and  C_7
REMARK    4  A    between atoms: C_7  and  N_8
REMARK    5  A    between atoms: C_13  and  C_14
REMARK                            x       y       z     vdW  Elec       q    Type
REMARK                         _______ _______ _______ _____ _____    ______ ____
ROOT
ATOM      1  N   UNL     1      47.607   6.322  13.646  0.00  0.00    +0.000 N 
ATOM      2  N   UNL     1      47.930   5.546  14.699  0.00  0.00    +0.000 NA
ATOM      3  N   UNL     1      47.327   4.376  14.535  0.00  0.00    +0.000 NA
ATOM      4  C   UNL     1      46.577   4.444  13.392  0.00  0.00    +0.000 A 
ATOM      5  C   UNL     1      45.744   3.484  12.798  0.00  0.00    +0.000 A 
ATOM      6  C   UNL     1      45.034   3.837  11.639  0.00  0.00    +0.000 A 
ATOM      7  C   UNL     1      45.196   5.115  11.076  0.00  0.00    +0.000 A 
ATOM      8  C   UNL     1      46.051   6.072  11.643  0.00  0.00    +0.000 A 
ATOM      9  C   UNL     1      46.719   5.695  12.809  0.00  0.00    +0.000 A 
ENDROOT
BRANCH   6  10
ATOM     10  C   UNL     1      44.082   2.900  10.972  0.00  0.00    +0.000 C 
ATOM     11  N   UNL     1      44.502   2.215   9.868  0.00  0.00    +0.000 N 
ATOM     12  O   UNL     1      42.947   2.728  11.407  0.00  0.00    +0.000 OA
ATOM     13  H   UNL     1      45.424   2.261   9.461  0.00  0.00    +0.000 HD
ATOM     14  H   UNL     1      43.842   1.568   9.461  0.00  0.00    +0.000 HD
ENDBRANCH   6  10
BRANCH   1  15
ATOM     15  C   UNL     1      48.176   7.647  13.517  0.00  0.00    +0.000 C 
BRANCH  15  19
ATOM     16  C   UNL     1      50.931   9.878  12.034  0.00  0.00    +0.000 C 
ATOM     17  C   UNL     1      49.530  10.386  12.424  0.00  0.00    +0.000 C 
ATOM     18  C   UNL     1      48.384   9.576  11.817  0.00  0.00    +0.000 C 
ATOM     19  C   UNL     1      48.499   8.061  12.065  0.00  0.00    +0.000 C 
ATOM     20  C   UNL     1      49.896   7.563  11.656  0.00  0.00    +0.000 C 
ATOM     21  C   UNL     1      51.030   8.365  12.299  0.00  0.00    +0.000 C 
BRANCH  16  22
ATOM     22  C   UNL     1      51.344  10.209  10.583  0.00  0.00    +0.000 C 
BRANCH  22  23
ATOM     23  N   UNL     1      52.592   9.559  10.188  0.00  0.00    +0.000 NA
ATOM     24  H   UNL     1      52.383   8.802   9.537  0.00  0.00    +0.000 HD
ATOM     25  H   UNL     1      53.021   9.115  10.999  0.00  0.00    +0.000 HD
ENDBRANCH  22  23
ENDBRANCH  16  22
ENDBRANCH  15  19
ENDBRANCH   1  15
TORSDOF 5
ENDMDL
MODEL 7
REMARK VINA RESULT:    -6.155      3.521      5.829
REMARK INTER + INTRA:          -7.771
REMARK INTER:                  -7.206
REMARK INTRA:                  -0.565
REMARK UNBOUND:                 0.003
REMARK  Name = 
REMARK  5 active torsions:
REMARK  status: ('A' for Active; 'I' for Inactive)
REMARK    1  A    between atoms: N_1  and  C_2
REMARK    2  A    between atoms: C_2  and  C_3
REMARK    3  A    between atoms: C_6  and  C_7
REMARK    4  A    between atoms: C_7  and  N_8
REMARK    5  A    between atoms: C_13  and  C_14
REMARK                            x       y       z     vdW  Elec       q    Type
REMARK                         _______ _______ _______ _____ _____    ______ ____
ROOT
ATOM      1  N   UNL     1      47.858   6.273  13.929  0.00  0.00    +0.000 N 
ATOM      2  N   UNL     1      47.921   7.512  13.405  0.00  0.00    +0.000 NA
ATOM      3  N   UNL     1      46.996   7.594  12.458  0.00  0.00    +0.000 NA
ATOM      4  C   UNL     1      46.386   6.374  12.357  0.00  0.00    +0.000 A 
ATOM      5  C   UNL     1      45.365   5.942  11.497  0.00  0.00    +0.000 A 
ATOM      6  C   UNL     1      44.955   4.600  11.564  0.00  0.00    +0.000 A 
ATOM      7  C   UNL     1      45.538   3.732  12.503  0.00  0.00    +0.000 A 
ATOM      8  C   UNL     1      46.537   4.160  13.390  0.00  0.00    +0.000 A 
ATOM      9  C   UNL     1      46.937   5.493  13.276  0.00  0.00    +0.000 A 
ENDROOT
BRANCH   6  10
ATOM     10  C   UNL     1      43.916   4.038  10.649  0.00  0.00    +0.000 C 
ATOM     11  N   UNL     1      43.923   4.421   9.338  0.00  0.00    +0.000 N 
ATOM     12  O   UNL     1      43.079   3.236  11.051  0.00  0.00    +0.000 OA
ATOM     13  H   UNL     1      44.591   5.043   8.909  0.00  0.00    +0.000 HD
ATOM     14  H   UNL     1      43.225   3.999   8.742  0.00  0.00    +0.000 HD
ENDBRANCH   6  10
BRANCH   1  15
ATOM     15  C   UNL     1      48.715   5.908  15.038  0.00  0.00    +0.000 C 
BRANCH  15  19
ATOM     16  C   UNL     1      49.647   4.375  18.436  0.00  0.00    +0.000 C 
ATOM     17  C   UNL     1      48.723   3.693  17.410  0.00  0.00    +0.000 C 
ATOM     18  C   UNL     1      47.571   4.576  16.928  0.00  0.00    +0.000 C 
ATOM     19  C   UNL     1      48.022   5.956  16.418  0.00  0.00    +0.000 C 
ATOM     20  C   UNL     1      48.930   6.633  17.457  0.00  0.00    +0.000 C 
ATOM     21  C   UNL     1      50.096   5.747  17.903  0.00  0.00    +0.000 C 
BRANCH  16  22
ATOM     22  C   UNL     1      49.037   4.508  19.849  0.00  0.00    +0.000 C 
BRANCH  22  23
ATOM     23  N   UNL     1      48.351   3.295  20.286  0.00  0.00    +0.000 NA
ATOM     24  H   UNL     1      47.435   3.544  20.659  0.00  0.00    +0.000 HD
ATOM     25  H   UNL     1      48.859   2.872  21.061  0.00  0.00    +0.000 HD
ENDBRANCH  22  23
ENDBRANCH  16  22
ENDBRANCH  15  19
ENDBRANCH   1  15
TORSDOF 5
ENDMDL
MODEL 8
REMARK VINA RESULT:    -6.015      4.835      8.369
REMARK INTER + INTRA:          -7.595
REMARK INTER:                  -7.436
REMARK INTRA:                  -0.158
REMARK UNBOUND:                 0.003
REMARK  Name = 
REMARK  5 active torsions:
REMARK  status: ('A' for Active; 'I' for Inactive)
REMARK    1  A    between atoms: N_1  and  C_2
REMARK    2  A    between atoms: C_2  and  C_3
REMARK    3  A    between atoms: C_6  and  C_7
REMARK    4  A    between atoms: C_7  and  N_8
REMARK    5  A    between atoms: C_13  and  C_14
REMARK                            x       y       z     vdW  Elec       q    Type
REMARK                         _______ _______ _______ _____ _____    ______ ____
ROOT
ATOM      1  N   UNL     1      47.355   4.087  15.396  0.00  0.00    +0.000 N 
ATOM      2  N   UNL     1      47.827   2.882  15.022  0.00  0.00    +0.000 NA
ATOM      3  N   UNL     1      48.658   2.466  15.968  0.00  0.00    +0.000 NA
ATOM      4  C   UNL     1      48.745   3.449  16.916  0.00  0.00    +0.000 A 
ATOM      5  C   UNL     1      49.502   3.504  18.096  0.00  0.00    +0.000 A 
ATOM      6  C   UNL     1      49.449   4.672  18.873  0.00  0.00    +0.000 A 
ATOM      7  C   UNL     1      48.621   5.740  18.484  0.00  0.00    +0.000 A 
ATOM      8  C   UNL     1      47.835   5.684  17.324  0.00  0.00    +0.000 A 
ATOM      9  C   UNL     1      47.934   4.518  16.563  0.00  0.00    +0.000 A 
ENDROOT
BRANCH   6  10
ATOM     10  C   UNL     1      50.265   4.841  20.113  0.00  0.00    +0.000 C 
ATOM     11  N   UNL     1      51.540   4.353  20.129  0.00  0.00    +0.000 N 
ATOM     12  O   UNL     1      49.816   5.420  21.097  0.00  0.00    +0.000 OA
ATOM     13  H   UNL     1      52.007   3.898  19.359  0.00  0.00    +0.000 HD
ATOM     14  H   UNL     1      52.073   4.511  20.972  0.00  0.00    +0.000 HD
ENDBRANCH   6  10
BRANCH   1  15
ATOM     15  C   UNL     1      46.367   4.765  14.583  0.00  0.00    +0.000 C 
BRANCH  15  19
ATOM     16  C   UNL     1      43.776   4.878  11.748  0.00  0.00    +0.000 C 
ATOM     17  C   UNL     1      44.112   3.611  12.556  0.00  0.00    +0.000 C 
ATOM     18  C   UNL     1      45.605   3.287  12.612  0.00  0.00    +0.000 C 
ATOM     19  C   UNL     1      46.477   4.469  13.071  0.00  0.00    +0.000 C 
ATOM     20  C   UNL     1      46.144   5.724  12.247  0.00  0.00    +0.000 C 
ATOM     21  C   UNL     1      44.649   6.051  12.230  0.00  0.00    +0.000 C 
BRANCH  16  22
ATOM     22  C   UNL     1      43.888   4.703  10.218  0.00  0.00    +0.000 C 
BRANCH  22  23
ATOM     23  N   UNL     1      43.762   3.310   9.796  0.00  0.00    +0.000 NA
ATOM     24  H   UNL     1      44.663   2.846   9.901  0.00  0.00    +0.000 HD
ATOM     25  H   UNL     1      43.545   3.270   8.800  0.00  0.00    +0.000 HD
ENDBRANCH  22  23
ENDBRANCH  16  22
ENDBRANCH  15  19
ENDBRANCH   1  15
TORSDOF 5
ENDMDL
MODEL 9
REMARK VINA RESULT:    -6.007      3.599      5.988
REMARK INTER + INTRA:          -7.584
REMARK INTER:                  -7.194
REMARK INTRA:                  -0.391
REMARK UNBOUND:                 0.003
REMARK  Name = 
REMARK  5 active torsions:
REMARK  status: ('A' for Active; 'I' for Inactive)
REMARK    1  A    between atoms: N_1  and  C_2
REMARK    2  A    between atoms: C_2  and  C_3
REMARK    3  A    between atoms: C_6  and  C_7
REMARK    4  A    between atoms: C_7  and  N_8
REMARK    5  A    between atoms: C_13  and  C_14
REMARK                            x       y       z     vdW  Elec       q    Type
REMARK                         _______ _______ _______ _____ _____    ______ ____
ROOT
ATOM      1  N   UNL     1      47.679   5.369  14.660  0.00  0.00    +0.000 N 
ATOM      2  N   UNL     1      47.894   4.142  15.173  0.00  0.00    +0.000 NA
ATOM      3  N   UNL     1      47.190   3.279  14.454  0.00  0.00    +0.000 NA
ATOM      4  C   UNL     1      46.488   3.985  13.515  0.00  0.00    +0.000 A 
ATOM      5  C   UNL     1      45.590   3.539  12.534  0.00  0.00    +0.000 A 
ATOM      6  C   UNL     1      44.955   4.494  11.722  0.00  0.00    +0.000 A 
ATOM      7  C   UNL     1      45.254   5.859  11.877  0.00  0.00    +0.000 A 
ATOM      8  C   UNL     1      46.175   6.313  12.832  0.00  0.00    +0.000 A 
ATOM      9  C   UNL     1      46.765   5.338  13.638  0.00  0.00    +0.000 A 
ENDROOT
BRANCH   6  10
ATOM     10  C   UNL     1      43.942   4.117  10.692  0.00  0.00    +0.000 C 
ATOM     11  N   UNL     1      44.001   4.715   9.466  0.00  0.00    +0.000 N 
ATOM     12  O   UNL     1      43.079   3.276  10.924  0.00  0.00    +0.000 OA
ATOM     13  H   UNL     1      44.693   5.386   9.171  0.00  0.00    +0.000 HD
ATOM     14  H   UNL     1      43.320   4.415   8.784  0.00  0.00    +0.000 HD
ENDBRANCH   6  10
BRANCH   1  15
ATOM     15  C   UNL     1      48.374   6.517  15.206  0.00  0.00    +0.000 C 
BRANCH  15  19
ATOM     16  C   UNL     1      49.991   8.778  17.859  0.00  0.00    +0.000 C 
ATOM     17  C   UNL     1      50.701   8.320  16.571  0.00  0.00    +0.000 C 
ATOM     18  C   UNL     1      50.669   6.808  16.347  0.00  0.00    +0.000 C 
ATOM     19  C   UNL     1      49.257   6.201  16.433  0.00  0.00    +0.000 C 
ATOM     20  C   UNL     1      48.566   6.651  17.730  0.00  0.00    +0.000 C 
ATOM     21  C   UNL     1      48.578   8.169  17.921  0.00  0.00    +0.000 C 
BRANCH  16  22
ATOM     22  C   UNL     1      50.775   8.477  19.156  0.00  0.00    +0.000 C 
BRANCH  22  23
ATOM     23  N   UNL     1      50.245   9.192  20.315  0.00  0.00    +0.000 NA
ATOM     24  H   UNL     1      50.808  10.026  20.480  0.00  0.00    +0.000 HD
ATOM     25  H   UNL     1      50.351   8.618  21.151  0.00  0.00    +0.000 HD
ENDBRANCH  22  23
ENDBRANCH  16  22
ENDBRANCH  15  19
ENDBRANCH   1  15
TORSDOF 5
ENDMDL
