MODEL 1
REMARK VINA RESULT:    -9.121      0.000      0.000
REMARK INTER + INTRA:         -11.887
REMARK INTER:                 -11.254
REMARK INTRA:                  -0.632
REMARK UNBOUND:                -0.632
REMARK  Name = 
REMARK  5 active torsions:
REMARK  status: ('A' for Active; 'I' for Inactive)
REMARK    1  A    between atoms: C_1  and  C_2
REMARK    2  A    between atoms: C_8  and  C_9
REMARK    3  A    between atoms: C_9  and  N_10
REMARK    4  A    between atoms: N_10  and  C_11
REMARK    5  A    between atoms: C_14  and  C_15
REMARK                            x       y       z     vdW  Elec       q    Type
REMARK                         _______ _______ _______ _____ _____    ______ ____
ROOT
ATOM      1  C   UNL     1      43.975   5.017  11.259  0.00  0.00    +0.000 C 
ATOM      2  C   UNL     1      42.843   5.853  11.844  0.00  0.00    +0.000 C 
ATOM      3  C   UNL     1      42.716   4.368  11.800  0.00  0.00    +0.000 C 
ENDROOT
BRANCH   1  11
ATOM      4  C   UNL     1      49.076  11.204  13.191  0.00  0.00    +0.000 C 
ATOM      5  C   UNL     1      49.315   9.718  12.937  0.00  0.00    +0.000 C 
ATOM      6  C   UNL     1      49.000   8.890  14.201  0.00  0.00    +0.000 C 
ATOM      7  C   UNL     1      49.044   7.379  13.934  0.00  0.00    +0.000 C 
ATOM      8  N   UNL     1      48.165   7.126  12.800  0.00  0.00    +0.000 N 
ATOM      9  C   UNL     1      47.350   6.015  12.795  0.00  0.00    +0.000 A 
ATOM     10  C   UNL     1      46.170   6.034  12.047  0.00  0.00    +0.000 A 
ATOM     11  C   UNL     1      45.268   4.961  12.063  0.00  0.00    +0.000 A 
ATOM     12  C   UNL     1      45.627   3.863  12.842  0.00  0.00    +0.000 A 
ATOM     13  C   UNL     1      46.807   3.905  13.564  0.00  0.00    +0.000 A 
ATOM     14  N   UNL     1      47.655   4.954  13.566  0.00  0.00    +0.000 NA
ATOM     15  C   UNL     1      48.581   7.738  11.547  0.00  0.00    +0.000 C 
ATOM     16  C   UNL     1      48.479   9.249  11.730  0.00  0.00    +0.000 C 
ENDBRANCH   1  11
BRANCH   1  17
ATOM     17  N   UNL     1      44.186   5.109   9.799  0.00  0.00    +0.000 N 
ATOM     18  H   UNL     1      44.357   6.050   9.449  0.00  0.00    +0.000 HD
BRANCH  17  19
ATOM     19  C   UNL     1      44.892   4.135   9.063  0.00  0.00    +0.000 A 
ATOM     20  C   UNL     1      45.871   4.441   8.116  0.00  0.00    +0.000 A 
ATOM     21  C   UNL     1      46.602   3.431   7.494  0.00  0.00    +0.000 A 
ATOM     22  C   UNL     1      46.347   2.120   7.863  0.00  0.00    +0.000 A 
ATOM     23  N   UNL     1      45.422   1.758   8.795  0.00  0.00    +0.000 NA
ATOM     24  C   UNL     1      44.738   2.778   9.370  0.00  0.00    +0.000 A 
BRANCH  22  25
ATOM     25  C   UNL     1      47.132   1.013   7.232  0.00  0.00    +0.000 C 
ATOM     26  N   UNL     1      46.800  -0.247   7.653  0.00  0.00    +0.000 N 
ATOM     27  O   UNL     1      48.010   1.209   6.401  0.00  0.00    +0.000 OA
ATOM     28  H   UNL     1      46.074  -0.358   8.353  0.00  0.00    +0.000 HD
ATOM     29  H   UNL     1      47.291  -1.045   7.282  0.00  0.00    +0.000 HD
ENDBRANCH  22  25
ENDBRANCH  17  19
ENDBRANCH   1  17
TORSDOF 4
ENDMDL
MODEL 2
REMARK VINA RESULT:    -8.166      1.635      2.513
REMARK INTER + INTRA:         -10.708
REMARK INTER:                 -10.063
REMARK INTRA:                  -0.645
REMARK UNBOUND:                -0.632
REMARK  Name = 
REMARK  5 active torsions:
REMARK  status: ('A' for Active; 'I' for Inactive)
REMARK    1  A    between atoms: C_1  and  C_2
REMARK    2  A    between atoms: C_8  and  C_9
REMARK    3  A    between atoms: C_9  and  N_10
REMARK    4  A    between atoms: N_10  and  C_11
REMARK    5  A    between atoms: C_14  and  C_15
REMARK                            x       y       z     vdW  Elec       q    Type
REMARK                         _______ _______ _______ _____ _____    ______ ____
ROOT
ATOM      1  C   UNL     1      44.451   4.973  11.634  0.00  0.00    +0.000 C 
ATOM      2  C   UNL     1      43.768   4.411  12.875  0.00  0.00    +0.000 C 
ATOM      3  C   UNL     1      45.164   3.998  12.551  0.00  0.00    +0.000 C 
ENDROOT
BRANCH   1  11
ATOM      4  C   UNL     1      51.924   8.413  12.217  0.00  0.00    +0.000 C 
ATOM      5  C   UNL     1      50.546   8.866  12.693  0.00  0.00    +0.000 C 
ATOM      6  C   UNL     1      49.760   9.525  11.539  0.00  0.00    +0.000 C 
ATOM      7  C   UNL     1      48.303   9.822  11.922  0.00  0.00    +0.000 C 
ATOM      8  N   UNL     1      47.736   8.575  12.418  0.00  0.00    +0.000 N 
ATOM      9  C   UNL     1      46.447   8.223  12.082  0.00  0.00    +0.000 A 
ATOM     10  C   UNL     1      46.087   6.872  12.069  0.00  0.00    +0.000 A 
ATOM     11  C   UNL     1      44.811   6.452  11.664  0.00  0.00    +0.000 A 
ATOM     12  C   UNL     1      43.914   7.457  11.305  0.00  0.00    +0.000 A 
ATOM     13  C   UNL     1      44.332   8.776  11.334  0.00  0.00    +0.000 A 
ATOM     14  N   UNL     1      45.571   9.169  11.697  0.00  0.00    +0.000 NA
ATOM     15  C   UNL     1      48.344   8.061  13.637  0.00  0.00    +0.000 C 
ATOM     16  C   UNL     1      49.779   7.673  13.293  0.00  0.00    +0.000 C 
ENDBRANCH   1  11
BRANCH   1  17
ATOM     17  N   UNL     1      43.940   4.513  10.326  0.00  0.00    +0.000 N 
ATOM     18  H   UNL     1      43.280   5.145   9.876  0.00  0.00    +0.000 HD
BRANCH  17  19
ATOM     19  C   UNL     1      44.741   3.830   9.386  0.00  0.00    +0.000 A 
ATOM     20  C   UNL     1      45.599   4.470   8.491  0.00  0.00    +0.000 A 
ATOM     21  C   UNL     1      46.436   3.735   7.655  0.00  0.00    +0.000 A 
ATOM     22  C   UNL     1      46.411   2.354   7.760  0.00  0.00    +0.000 A 
ATOM     23  N   UNL     1      45.614   1.670   8.627  0.00  0.00    +0.000 NA
ATOM     24  C   UNL     1      44.817   2.433   9.417  0.00  0.00    +0.000 A 
BRANCH  22  25
ATOM     25  C   UNL     1      47.316   1.534   6.894  0.00  0.00    +0.000 C 
ATOM     26  N   UNL     1      48.421   2.192   6.424  0.00  0.00    +0.000 N 
ATOM     27  O   UNL     1      47.092   0.362   6.618  0.00  0.00    +0.000 OA
ATOM     28  H   UNL     1      48.558   3.167   6.669  0.00  0.00    +0.000 HD
ATOM     29  H   UNL     1      49.074   1.711   5.825  0.00  0.00    +0.000 HD
ENDBRANCH  22  25
ENDBRANCH  17  19
ENDBRANCH   1  17
TORSDOF 4
ENDMDL
MODEL 3
REMARK VINA RESULT:    -8.053      2.985      7.266
REMARK INTER + INTRA:         -10.569
REMARK INTER:                 -10.707
REMARK INTRA:                   0.138
REMARK UNBOUND:                -0.632
REMARK  Name = 
REMARK  5 active torsions:
REMARK  status: ('A' for Active; 'I' for Inactive)
REMARK    1  A    between atoms: C_1  and  C_2
REMARK    2  A    between atoms: C_8  and  C_9
REMARK    3  A    between atoms: C_9  and  N_10
REMARK    4  A    between atoms: N_10  and  C_11
REMARK    5  A    between atoms: C_14  and  C_15
REMARK                            x       y       z     vdW  Elec       q    Type
REMARK                         _______ _______ _______ _____ _____    ______ ____
ROOT
ATOM      1  C   UNL     1      46.357   7.304  12.477  0.00  0.00    +0.000 C 
ATOM      2  C   UNL     1      45.766   8.471  13.261  0.00  0.00    +0.000 C 
ATOM      3  C   UNL     1      46.301   8.700  11.887  0.00  0.00    +0.000 C 
ENDROOT
BRANCH   1  11
ATOM      4  C   UNL     1      47.585   1.355   6.897  0.00  0.00    +0.000 C 
ATOM      5  C   UNL     1      46.338   2.136   7.308  0.00  0.00    +0.000 C 
ATOM      6  C   UNL     1      45.710   1.532   8.582  0.00  0.00    +0.000 C 
ATOM      7  C   UNL     1      44.570   2.398   9.136  0.00  0.00    +0.000 C 
ATOM      8  N   UNL     1      45.102   3.744   9.293  0.00  0.00    +0.000 N 
ATOM      9  C   UNL     1      44.767   4.493  10.401  0.00  0.00    +0.000 A 
ATOM     10  C   UNL     1      45.637   5.494  10.841  0.00  0.00    +0.000 A 
ATOM     11  C   UNL     1      45.381   6.236  12.003  0.00  0.00    +0.000 A 
ATOM     12  C   UNL     1      44.197   5.941  12.677  0.00  0.00    +0.000 A 
ATOM     13  C   UNL     1      43.379   4.935  12.194  0.00  0.00    +0.000 A 
ATOM     14  N   UNL     1      43.647   4.206  11.091  0.00  0.00    +0.000 NA
ATOM     15  C   UNL     1      45.502   4.401   8.057  0.00  0.00    +0.000 C 
ATOM     16  C   UNL     1      46.690   3.623   7.500  0.00  0.00    +0.000 C 
ENDBRANCH   1  11
BRANCH   1  17
ATOM     17  N   UNL     1      47.645   6.761  12.959  0.00  0.00    +0.000 N 
ATOM     18  H   UNL     1      48.433   7.403  12.895  0.00  0.00    +0.000 HD
BRANCH  17  19
ATOM     19  C   UNL     1      47.747   5.911  14.080  0.00  0.00    +0.000 A 
ATOM     20  C   UNL     1      48.279   6.310  15.307  0.00  0.00    +0.000 A 
ATOM     21  C   UNL     1      48.262   5.452  16.404  0.00  0.00    +0.000 A 
ATOM     22  C   UNL     1      47.677   4.206  16.248  0.00  0.00    +0.000 A 
ATOM     23  N   UNL     1      47.122   3.766  15.085  0.00  0.00    +0.000 NA
ATOM     24  C   UNL     1      47.166   4.638  14.047  0.00  0.00    +0.000 A 
BRANCH  22  25
ATOM     25  C   UNL     1      47.620   3.269  17.414  0.00  0.00    +0.000 C 
ATOM     26  N   UNL     1      48.753   3.230  18.183  0.00  0.00    +0.000 N 
ATOM     27  O   UNL     1      46.639   2.582  17.669  0.00  0.00    +0.000 OA
ATOM     28  H   UNL     1      49.545   3.808  17.924  0.00  0.00    +0.000 HD
ATOM     29  H   UNL     1      48.796   2.615  18.980  0.00  0.00    +0.000 HD
ENDBRANCH  22  25
ENDBRANCH  17  19
ENDBRANCH   1  17
TORSDOF 4
ENDMDL
MODEL 4
REMARK VINA RESULT:    -7.251      2.953      7.409
REMARK INTER + INTRA:          -9.578
REMARK INTER:                  -9.151
REMARK INTRA:                  -0.427
REMARK UNBOUND:                -0.632
REMARK  Name = 
REMARK  5 active torsions:
REMARK  status: ('A' for Active; 'I' for Inactive)
REMARK    1  A    between atoms: C_1  and  C_2
REMARK    2  A    between atoms: C_8  and  C_9
REMARK    3  A    between atoms: C_9  and  N_10
REMARK    4  A    between atoms: N_10  and  C_11
REMARK    5  A    between atoms: C_14  and  C_15
REMARK                            x       y       z     vdW  Elec       q    Type
REMARK                         _______ _______ _______ _____ _____    ______ ____
ROOT
ATOM      1  C   UNL     1      45.494   6.734  12.476  0.00  0.00    +0.000 C 
ATOM      2  C   UNL     1      44.533   7.917  12.522  0.00  0.00    +0.000 C 
ATOM      3  C   UNL     1      45.621   7.890  11.502  0.00  0.00    +0.000 C 
ENDROOT
BRANCH   1  11
ATOM      4  C   UNL     1      47.929   2.029   6.155  0.00  0.00    +0.000 C 
ATOM      5  C   UNL     1      46.564   2.253   6.801  0.00  0.00    +0.000 C 
ATOM      6  C   UNL     1      46.410   1.383   8.067  0.00  0.00    +0.000 C 
ATOM      7  C   UNL     1      45.134   1.717   8.852  0.00  0.00    +0.000 C 
ATOM      8  N   UNL     1      45.152   3.154   9.093  0.00  0.00    +0.000 N 
ATOM      9  C   UNL     1      44.743   3.654  10.310  0.00  0.00    +0.000 A 
ATOM     10  C   UNL     1      45.242   4.883  10.749  0.00  0.00    +0.000 A 
ATOM     11  C   UNL     1      44.917   5.404  12.010  0.00  0.00    +0.000 A 
ATOM     12  C   UNL     1      44.047   4.643  12.788  0.00  0.00    +0.000 A 
ATOM     13  C   UNL     1      43.590   3.432  12.300  0.00  0.00    +0.000 A 
ATOM     14  N   UNL     1      43.931   2.923  11.098  0.00  0.00    +0.000 NA
ATOM     15  C   UNL     1      45.082   3.982   7.898  0.00  0.00    +0.000 C 
ATOM     16  C   UNL     1      46.370   3.749   7.114  0.00  0.00    +0.000 C 
ENDBRANCH   1  11
BRANCH   1  17
ATOM     17  N   UNL     1      46.450   6.608  13.596  0.00  0.00    +0.000 N 
ATOM     18  H   UNL     1      46.383   5.738  14.122  0.00  0.00    +0.000 HD
BRANCH  17  19
ATOM     19  C   UNL     1      47.776   7.084  13.530  0.00  0.00    +0.000 A 
ATOM     20  C   UNL     1      48.662   6.764  12.501  0.00  0.00    +0.000 A 
ATOM     21  C   UNL     1      49.927   7.345  12.442  0.00  0.00    +0.000 A 
ATOM     22  C   UNL     1      50.266   8.268  13.418  0.00  0.00    +0.000 A 
ATOM     23  N   UNL     1      49.439   8.638  14.435  0.00  0.00    +0.000 NA
ATOM     24  C   UNL     1      48.221   8.043  14.448  0.00  0.00    +0.000 A 
BRANCH  22  25
ATOM     25  C   UNL     1      51.608   8.929  13.371  0.00  0.00    +0.000 C 
ATOM     26  N   UNL     1      52.674   8.073  13.302  0.00  0.00    +0.000 N 
ATOM     27  O   UNL     1      51.752  10.145  13.393  0.00  0.00    +0.000 OA
ATOM     28  H   UNL     1      52.506   7.073  13.299  0.00  0.00    +0.000 HD
ATOM     29  H   UNL     1      53.612   8.442  13.278  0.00  0.00    +0.000 HD
ENDBRANCH  22  25
ENDBRANCH  17  19
ENDBRANCH   1  17
TORSDOF 4
ENDMDL
MODEL 5
REMARK VINA RESULT:    -7.110      3.227      7.827
REMARK INTER + INTRA:          -9.404
REMARK INTER:                  -8.952
REMARK INTRA:                  -0.452
REMARK UNBOUND:                -0.632
REMARK  Name = 
REMARK  5 active torsions:
REMARK  status: ('A' for Active; 'I' for Inactive)
REMARK    1  A    between atoms: C_1  and  C_2
REMARK    2  A    between atoms: C_8  and  C_9
REMARK    3  A    between atoms: C_9  and  N_10
REMARK    4  A    between atoms: N_10  and  C_11
REMARK    5  A    between atoms: C_14  and  C_15
REMARK                            x       y       z     vdW  Elec       q    Type
REMARK                         _______ _______ _______ _____ _____    ______ ____
ROOT
ATOM      1  C   UNL     1      47.118   7.360  12.682  0.00  0.00    +0.000 C 
ATOM      2  C   UNL     1      47.300   8.622  11.846  0.00  0.00    +0.000 C 
ATOM      3  C   UNL     1      48.331   7.545  11.790  0.00  0.00    +0.000 C 
ENDROOT
BRANCH   1  11
ATOM      4  C   UNL     1      47.297   1.430   6.953  0.00  0.00    +0.000 C 
ATOM      5  C   UNL     1      46.177   2.336   7.457  0.00  0.00    +0.000 C 
ATOM      6  C   UNL     1      45.570   1.779   8.762  0.00  0.00    +0.000 C 
ATOM      7  C   UNL     1      44.573   2.755   9.404  0.00  0.00    +0.000 C 
ATOM      8  N   UNL     1      45.263   4.030   9.543  0.00  0.00    +0.000 N 
ATOM      9  C   UNL     1      45.088   4.788  10.681  0.00  0.00    +0.000 A 
ATOM     10  C   UNL     1      46.092   5.676  11.075  0.00  0.00    +0.000 A 
ATOM     11  C   UNL     1      45.999   6.418  12.261  0.00  0.00    +0.000 A 
ATOM     12  C   UNL     1      44.836   6.243  13.009  0.00  0.00    +0.000 A 
ATOM     13  C   UNL     1      43.879   5.345  12.570  0.00  0.00    +0.000 A 
ATOM     14  N   UNL     1      43.991   4.613  11.441  0.00  0.00    +0.000 NA
ATOM     15  C   UNL     1      45.652   4.664   8.291  0.00  0.00    +0.000 C 
ATOM     16  C   UNL     1      46.706   3.770   7.645  0.00  0.00    +0.000 C 
ENDBRANCH   1  11
BRANCH   1  17
ATOM     17  N   UNL     1      47.254   7.506  14.146  0.00  0.00    +0.000 N 
ATOM     18  H   UNL     1      46.378   7.467  14.664  0.00  0.00    +0.000 HD
BRANCH  17  19
ATOM     19  C   UNL     1      48.324   6.949  14.877  0.00  0.00    +0.000 A 
ATOM     20  C   UNL     1      49.543   7.598  15.080  0.00  0.00    +0.000 A 
ATOM     21  C   UNL     1      50.524   7.036  15.894  0.00  0.00    +0.000 A 
ATOM     22  C   UNL     1      50.242   5.831  16.516  0.00  0.00    +0.000 A 
ATOM     23  N   UNL     1      49.066   5.159  16.377  0.00  0.00    +0.000 NA
ATOM     24  C   UNL     1      48.145   5.748  15.574  0.00  0.00    +0.000 A 
BRANCH  22  25
ATOM     25  C   UNL     1      51.265   5.213  17.418  0.00  0.00    +0.000 C 
ATOM     26  N   UNL     1      52.397   5.959  17.607  0.00  0.00    +0.000 N 
ATOM     27  O   UNL     1      51.111   4.120  17.948  0.00  0.00    +0.000 OA
ATOM     28  H   UNL     1      52.485   6.852  17.137  0.00  0.00    +0.000 HD
ATOM     29  H   UNL     1      53.138   5.605  18.193  0.00  0.00    +0.000 HD
ENDBRANCH  22  25
ENDBRANCH  17  19
ENDBRANCH   1  17
TORSDOF 4
ENDMDL
MODEL 6
REMARK VINA RESULT:    -6.736      3.268      5.897
REMARK INTER + INTRA:          -8.944
REMARK INTER:                  -8.780
REMARK INTRA:                  -0.164
REMARK UNBOUND:                -0.632
REMARK  Name = 
REMARK  5 active torsions:
REMARK  status: ('A' for Active; 'I' for Inactive)
REMARK    1  A    between atoms: C_1  and  C_2
REMARK    2  A    between atoms: C_8  and  C_9
REMARK    3  A    between atoms: C_9  and  N_10
REMARK    4  A    between atoms: N_10  and  C_11
REMARK    5  A    between atoms: C_14  and  C_15
REMARK                            x       y       z     vdW  Elec       q    Type
REMARK                         _______ _______ _______ _____ _____    ______ ____
ROOT
ATOM      1  C   UNL     1      47.630   8.002  13.183  0.00  0.00    +0.000 C 
ATOM      2  C   UNL     1      48.425   7.523  11.973  0.00  0.00    +0.000 C 
ATOM      3  C   UNL     1      48.054   8.964  12.089  0.00  0.00    +0.000 C 
ENDROOT
BRANCH   1  11
ATOM      4  C   UNL     1      50.957   1.608  17.192  0.00  0.00    +0.000 C 
ATOM      5  C   UNL     1      50.321   2.908  17.680  0.00  0.00    +0.000 C 
ATOM      6  C   UNL     1      51.336   4.069  17.621  0.00  0.00    +0.000 C 
ATOM      7  C   UNL     1      50.686   5.427  17.921  0.00  0.00    +0.000 C 
ATOM      8  N   UNL     1      49.550   5.559  17.020  0.00  0.00    +0.000 N 
ATOM      9  C   UNL     1      49.279   6.772  16.424  0.00  0.00    +0.000 A 
ATOM     10  C   UNL     1      48.594   6.800  15.206  0.00  0.00    +0.000 A 
ATOM     11  C   UNL     1      48.356   8.000  14.521  0.00  0.00    +0.000 A 
ATOM     12  C   UNL     1      48.815   9.164  15.135  0.00  0.00    +0.000 A 
ATOM     13  C   UNL     1      49.491   9.071  16.338  0.00  0.00    +0.000 A 
ATOM     14  N   UNL     1      49.742   7.909  16.977  0.00  0.00    +0.000 NA
ATOM     15  C   UNL     1      48.486   4.584  17.218  0.00  0.00    +0.000 C 
ATOM     16  C   UNL     1      49.057   3.217  16.855  0.00  0.00    +0.000 C 
ENDBRANCH   1  11
BRANCH   1  17
ATOM     17  N   UNL     1      46.221   7.564  13.270  0.00  0.00    +0.000 N 
ATOM     18  H   UNL     1      45.533   8.310  13.177  0.00  0.00    +0.000 HD
BRANCH  17  19
ATOM     19  C   UNL     1      45.759   6.349  12.722  0.00  0.00    +0.000 A 
ATOM     20  C   UNL     1      45.960   5.105  13.322  0.00  0.00    +0.000 A 
ATOM     21  C   UNL     1      45.394   3.953  12.780  0.00  0.00    +0.000 A 
ATOM     22  C   UNL     1      44.606   4.084  11.649  0.00  0.00    +0.000 A 
ATOM     23  N   UNL     1      44.355   5.271  11.030  0.00  0.00    +0.000 NA
ATOM     24  C   UNL     1      44.929   6.361  11.595  0.00  0.00    +0.000 A 
BRANCH  22  25
ATOM     25  C   UNL     1      43.963   2.869  11.056  0.00  0.00    +0.000 C 
ATOM     26  N   UNL     1      44.576   2.377   9.935  0.00  0.00    +0.000 N 
ATOM     27  O   UNL     1      42.961   2.348  11.529  0.00  0.00    +0.000 OA
ATOM     28  H   UNL     1      45.397   2.851   9.572  0.00  0.00    +0.000 HD
ATOM     29  H   UNL     1      44.196   1.567   9.471  0.00  0.00    +0.000 HD
ENDBRANCH  22  25
ENDBRANCH  17  19
ENDBRANCH   1  17
TORSDOF 4
ENDMDL
MODEL 7
REMARK VINA RESULT:    -6.635      4.356      8.125
REMARK INTER + INTRA:          -8.819
REMARK INTER:                  -8.117
REMARK INTRA:                  -0.701
REMARK UNBOUND:                -0.632
REMARK  Name = 
REMARK  5 active torsions:
REMARK  status: ('A' for Active; 'I' for Inactive)
REMARK    1  A    between atoms: C_1  and  C_2
REMARK    2  A    between atoms: C_8  and  C_9
REMARK    3  A    between atoms: C_9  and  N_10
REMARK    4  A    between atoms: N_10  and  C_11
REMARK    5  A    between atoms: C_14  and  C_15
REMARK                            x       y       z     vdW  Elec       q    Type
REMARK                         _______ _______ _______ _____ _____    ______ ____
ROOT
ATOM      1  C   UNL     1      49.097   7.180  16.858  0.00  0.00    +0.000 C 
ATOM      2  C   UNL     1      48.480   8.416  17.503  0.00  0.00    +0.000 C 
ATOM      3  C   UNL     1      49.959   8.225  17.540  0.00  0.00    +0.000 C 
ENDROOT
BRANCH   1  11
ATOM      4  C   UNL     1      42.666   5.350  12.030  0.00  0.00    +0.000 C 
ATOM      5  C   UNL     1      44.167   5.128  11.867  0.00  0.00    +0.000 C 
ATOM      6  C   UNL     1      44.855   6.410  11.351  0.00  0.00    +0.000 C 
ATOM      7  C   UNL     1      46.386   6.292  11.355  0.00  0.00    +0.000 C 
ATOM      8  N   UNL     1      46.774   5.884  12.698  0.00  0.00    +0.000 N 
ATOM      9  C   UNL     1      47.890   6.436  13.290  0.00  0.00    +0.000 A 
ATOM     10  C   UNL     1      47.969   6.493  14.684  0.00  0.00    +0.000 A 
ATOM     11  C   UNL     1      49.047   7.108  15.338  0.00  0.00    +0.000 A 
ATOM     12  C   UNL     1      50.048   7.631  14.522  0.00  0.00    +0.000 A 
ATOM     13  C   UNL     1      49.910   7.548  13.147  0.00  0.00    +0.000 A 
ATOM     14  N   UNL     1      48.855   6.981  12.526  0.00  0.00    +0.000 NA
ATOM     15  C   UNL     1      46.297   4.572  13.109  0.00  0.00    +0.000 C 
ATOM     16  C   UNL     1      44.777   4.655  13.200  0.00  0.00    +0.000 C 
ENDBRANCH   1  11
BRANCH   1  17
ATOM     17  N   UNL     1      48.847   5.885  17.524  0.00  0.00    +0.000 N 
ATOM     18  H   UNL     1      47.879   5.567  17.494  0.00  0.00    +0.000 HD
BRANCH  17  19
ATOM     19  C   UNL     1      49.757   4.809  17.477  0.00  0.00    +0.000 A 
ATOM     20  C   UNL     1      51.133   4.952  17.664  0.00  0.00    +0.000 A 
ATOM     21  C   UNL     1      51.967   3.836  17.704  0.00  0.00    +0.000 A 
ATOM     22  C   UNL     1      51.387   2.584  17.580  0.00  0.00    +0.000 A 
ATOM     23  N   UNL     1      50.051   2.378  17.416  0.00  0.00    +0.000 NA
ATOM     24  C   UNL     1      49.283   3.495  17.384  0.00  0.00    +0.000 A 
BRANCH  22  25
ATOM     25  C   UNL     1      52.251   1.364  17.642  0.00  0.00    +0.000 C 
ATOM     26  N   UNL     1      51.632   0.238  18.114  0.00  0.00    +0.000 N 
ATOM     27  O   UNL     1      53.428   1.363  17.302  0.00  0.00    +0.000 OA
ATOM     28  H   UNL     1      50.659   0.290  18.396  0.00  0.00    +0.000 HD
ATOM     29  H   UNL     1      52.151  -0.623  18.196  0.00  0.00    +0.000 HD
ENDBRANCH  22  25
ENDBRANCH  17  19
ENDBRANCH   1  17
TORSDOF 4
ENDMDL
MODEL 8
REMARK VINA RESULT:    -6.604      3.547      7.661
REMARK INTER + INTRA:          -8.780
REMARK INTER:                  -8.629
REMARK INTRA:                  -0.151
REMARK UNBOUND:                -0.632
REMARK  Name = 
REMARK  5 active torsions:
REMARK  status: ('A' for Active; 'I' for Inactive)
REMARK    1  A    between atoms: C_1  and  C_2
REMARK    2  A    between atoms: C_8  and  C_9
REMARK    3  A    between atoms: C_9  and  N_10
REMARK    4  A    between atoms: N_10  and  C_11
REMARK    5  A    between atoms: C_14  and  C_15
REMARK                            x       y       z     vdW  Elec       q    Type
REMARK                         _______ _______ _______ _____ _____    ______ ____
ROOT
ATOM      1  C   UNL     1      48.956   8.167  12.699  0.00  0.00    +0.000 C 
ATOM      2  C   UNL     1      49.972   8.963  11.887  0.00  0.00    +0.000 C 
ATOM      3  C   UNL     1      49.931   7.477  11.764  0.00  0.00    +0.000 C 
ENDROOT
BRANCH   1  11
ATOM      4  C   UNL     1      43.265   2.272  11.763  0.00  0.00    +0.000 C 
ATOM      5  C   UNL     1      43.461   3.625  11.084  0.00  0.00    +0.000 C 
ATOM      6  C   UNL     1      42.892   4.762  11.959  0.00  0.00    +0.000 C 
ATOM      7  C   UNL     1      43.238   6.152  11.406  0.00  0.00    +0.000 C 
ATOM      8  N   UNL     1      44.683   6.184  11.221  0.00  0.00    +0.000 N 
ATOM      9  C   UNL     1      45.394   7.319  11.544  0.00  0.00    +0.000 A 
ATOM     10  C   UNL     1      46.743   7.207  11.892  0.00  0.00    +0.000 A 
ATOM     11  C   UNL     1      47.495   8.318  12.300  0.00  0.00    +0.000 A 
ATOM     12  C   UNL     1      46.831   9.544  12.311  0.00  0.00    +0.000 A 
ATOM     13  C   UNL     1      45.493   9.590  11.960  0.00  0.00    +0.000 A 
ATOM     14  N   UNL     1      44.769   8.511  11.597  0.00  0.00    +0.000 NA
ATOM     15  C   UNL     1      45.201   5.249  10.232  0.00  0.00    +0.000 C 
ATOM     16  C   UNL     1      44.954   3.844  10.771  0.00  0.00    +0.000 C 
ENDBRANCH   1  11
BRANCH   1  17
ATOM     17  N   UNL     1      49.171   8.107  14.160  0.00  0.00    +0.000 N 
ATOM     18  H   UNL     1      49.164   9.009  14.632  0.00  0.00    +0.000 HD
BRANCH  17  19
ATOM     19  C   UNL     1      48.641   7.082  14.972  0.00  0.00    +0.000 A 
ATOM     20  C   UNL     1      47.934   5.987  14.473  0.00  0.00    +0.000 A 
ATOM     21  C   UNL     1      47.522   4.959  15.318  0.00  0.00    +0.000 A 
ATOM     22  C   UNL     1      47.859   5.043  16.658  0.00  0.00    +0.000 A 
ATOM     23  N   UNL     1      48.565   6.073  17.203  0.00  0.00    +0.000 NA
ATOM     24  C   UNL     1      48.942   7.048  16.339  0.00  0.00    +0.000 A 
BRANCH  22  25
ATOM     25  C   UNL     1      47.453   3.943  17.589  0.00  0.00    +0.000 C 
ATOM     26  N   UNL     1      48.002   4.010  18.841  0.00  0.00    +0.000 N 
ATOM     27  O   UNL     1      46.689   3.043  17.263  0.00  0.00    +0.000 OA
ATOM     28  H   UNL     1      48.641   4.767  19.061  0.00  0.00    +0.000 HD
ATOM     29  H   UNL     1      47.786   3.299  19.522  0.00  0.00    +0.000 HD
ENDBRANCH  22  25
ENDBRANCH  17  19
ENDBRANCH   1  17
TORSDOF 4
ENDMDL
MODEL 9
REMARK VINA RESULT:    -6.198      2.848      7.336
REMARK INTER + INTRA:          -8.280
REMARK INTER:                  -8.496
REMARK INTRA:                   0.216
REMARK UNBOUND:                -0.632
REMARK  Name = 
REMARK  5 active torsions:
REMARK  status: ('A' for Active; 'I' for Inactive)
REMARK    1  A    between atoms: C_1  and  C_2
REMARK    2  A    between atoms: C_8  and  C_9
REMARK    3  A    between atoms: C_9  and  N_10
REMARK    4  A    between atoms: N_10  and  C_11
REMARK    5  A    between atoms: C_14  and  C_15
REMARK                            x       y       z     vdW  Elec       q    Type
REMARK                         _______ _______ _______ _____ _____    ______ ____
ROOT
ATOM      1  C   UNL     1      46.027   5.221  13.528  0.00  0.00    +0.000 C 
ATOM      2  C   UNL     1      47.446   4.748  13.822  0.00  0.00    +0.000 C 
ATOM      3  C   UNL     1      46.425   4.740  14.910  0.00  0.00    +0.000 C 
ENDROOT
BRANCH   1  11
ATOM      4  C   UNL     1      47.935   2.211   6.090  0.00  0.00    +0.000 C 
ATOM      5  C   UNL     1      46.605   2.612   6.725  0.00  0.00    +0.000 C 
ATOM      6  C   UNL     1      46.064   1.477   7.621  0.00  0.00    +0.000 C 
ATOM      7  C   UNL     1      44.830   1.909   8.426  0.00  0.00    +0.000 C 
ATOM      8  N   UNL     1      45.195   3.129   9.133  0.00  0.00    +0.000 N 
ATOM      9  C   UNL     1      44.777   3.324  10.432  0.00  0.00    +0.000 A 
ATOM     10  C   UNL     1      45.522   4.155  11.274  0.00  0.00    +0.000 A 
ATOM     11  C   UNL     1      45.185   4.330  12.624  0.00  0.00    +0.000 A 
ATOM     12  C   UNL     1      44.051   3.655  13.071  0.00  0.00    +0.000 A 
ATOM     13  C   UNL     1      43.358   2.843  12.191  0.00  0.00    +0.000 A 
ATOM     14  N   UNL     1      43.706   2.656  10.900  0.00  0.00    +0.000 NA
ATOM     15  C   UNL     1      45.503   4.270   8.282  0.00  0.00    +0.000 C 
ATOM     16  C   UNL     1      46.774   3.925   7.512  0.00  0.00    +0.000 C 
ENDBRANCH   1  11
BRANCH   1  17
ATOM     17  N   UNL     1      45.844   6.666  13.276  0.00  0.00    +0.000 N 
ATOM     18  H   UNL     1      45.178   7.128  13.893  0.00  0.00    +0.000 HD
BRANCH  17  19
ATOM     19  C   UNL     1      46.904   7.520  12.909  0.00  0.00    +0.000 A 
ATOM     20  C   UNL     1      47.755   7.277  11.830  0.00  0.00    +0.000 A 
ATOM     21  C   UNL     1      48.721   8.210  11.459  0.00  0.00    +0.000 A 
ATOM     22  C   UNL     1      48.792   9.394  12.174  0.00  0.00    +0.000 A 
ATOM     23  N   UNL     1      47.978   9.700  13.221  0.00  0.00    +0.000 NA
ATOM     24  C   UNL     1      47.056   8.759  13.543  0.00  0.00    +0.000 A 
BRANCH  22  25
ATOM     25  C   UNL     1      49.803  10.428  11.785  0.00  0.00    +0.000 C 
ATOM     26  N   UNL     1      49.531  11.095  10.621  0.00  0.00    +0.000 N 
ATOM     27  O   UNL     1      50.803  10.664  12.451  0.00  0.00    +0.000 OA
ATOM     28  H   UNL     1      48.697  10.856  10.097  0.00  0.00    +0.000 HD
ATOM     29  H   UNL     1      50.171  11.800  10.287  0.00  0.00    +0.000 HD
ENDBRANCH  22  25
ENDBRANCH  17  19
ENDBRANCH   1  17
TORSDOF 4
ENDMDL
