MODEL 1
REMARK VINA RESULT:    -8.230      0.000      0.000
REMARK INTER + INTRA:         -10.838
REMARK INTER:                 -10.155
REMARK INTRA:                  -0.683
REMARK UNBOUND:                -0.683
REMARK  Name = 
REMARK  4 active torsions:
REMARK  status: ('A' for Active; 'I' for Inactive)
REMARK    1  A    between atoms: C_2  and  C_4
REMARK    2  A    between atoms: C_7  and  C_8
REMARK    3  A    between atoms: C_8  and  C_9
REMARK    4  A    between atoms: C_9  and  C_10
REMARK                            x       y       z     vdW  Elec       q    Type
REMARK                         _______ _______ _______ _____ _____    ______ ____
ROOT
ATOM      1  C   UNL     1      46.384   2.304   7.838  0.00  0.00    +0.000 A 
ATOM      2  C   UNL     1      46.358   3.673   7.615  0.00  0.00    +0.000 A 
ATOM      3  C   UNL     1      45.485   4.450   8.377  0.00  0.00    +0.000 A 
ATOM      4  C   UNL     1      44.642   3.846   9.314  0.00  0.00    +0.000 A 
ATOM      5  C   UNL     1      44.756   2.461   9.461  0.00  0.00    +0.000 A 
ATOM      6  N   UNL     1      45.598   1.673   8.751  0.00  0.00    +0.000 NA
ENDROOT
BRANCH   1   8
ATOM      7  N   UNL     1      48.415   2.100   6.524  0.00  0.00    +0.000 N 
ATOM      8  C   UNL     1      47.338   1.446   7.063  0.00  0.00    +0.000 C 
ATOM      9  O   UNL     1      47.173   0.241   6.912  0.00  0.00    +0.000 OA
ATOM     10  H   UNL     1      49.092   1.588   5.978  0.00  0.00    +0.000 HD
ATOM     11  H   UNL     1      48.511   3.098   6.664  0.00  0.00    +0.000 HD
ENDBRANCH   1   8
BRANCH   4  12
ATOM     12  C   UNL     1      43.729   4.618  10.239  0.00  0.00    +0.000 C 
BRANCH  12  13
ATOM     13  C   UNL     1      44.123   4.614  11.713  0.00  0.00    +0.000 C 
ATOM     14  C   UNL     1      43.545   3.521  12.602  0.00  0.00    +0.000 C 
ATOM     15  C   UNL     1      43.006   4.910  12.720  0.00  0.00    +0.000 C 
BRANCH  13  16
ATOM     16  C   UNL     1      45.473   5.236  12.075  0.00  0.00    +0.000 A 
ATOM     17  C   UNL     1      45.954   6.371  11.396  0.00  0.00    +0.000 A 
ATOM     18  C   UNL     1      47.126   7.020  11.796  0.00  0.00    +0.000 A 
ATOM     19  C   UNL     1      47.853   6.535  12.878  0.00  0.00    +0.000 A 
ATOM     20  C   UNL     1      47.421   5.393  13.544  0.00  0.00    +0.000 A 
ATOM     21  C   UNL     1      46.248   4.752  13.142  0.00  0.00    +0.000 A 
ENDBRANCH  13  16
ENDBRANCH  12  13
ENDBRANCH   4  12
TORSDOF 4
ENDMDL
MODEL 2
REMARK VINA RESULT:    -8.186      0.704      1.581
REMARK INTER + INTRA:         -10.783
REMARK INTER:                  -9.988
REMARK INTRA:                  -0.795
REMARK UNBOUND:                -0.683
REMARK  Name = 
REMARK  4 active torsions:
REMARK  status: ('A' for Active; 'I' for Inactive)
REMARK    1  A    between atoms: C_2  and  C_4
REMARK    2  A    between atoms: C_7  and  C_8
REMARK    3  A    between atoms: C_8  and  C_9
REMARK    4  A    between atoms: C_9  and  C_10
REMARK                            x       y       z     vdW  Elec       q    Type
REMARK                         _______ _______ _______ _____ _____    ______ ____
ROOT
ATOM      1  C   UNL     1      46.447   2.532   7.750  0.00  0.00    +0.000 A 
ATOM      2  C   UNL     1      45.695   1.797   8.654  0.00  0.00    +0.000 A 
ATOM      3  C   UNL     1      44.824   2.483   9.500  0.00  0.00    +0.000 A 
ATOM      4  C   UNL     1      44.745   3.877   9.447  0.00  0.00    +0.000 A 
ATOM      5  C   UNL     1      45.542   4.516   8.494  0.00  0.00    +0.000 A 
ATOM      6  N   UNL     1      46.391   3.887   7.647  0.00  0.00    +0.000 NA
ENDROOT
BRANCH   1   8
ATOM      7  N   UNL     1      48.409   2.567   6.320  0.00  0.00    +0.000 N 
ATOM      8  C   UNL     1      47.365   1.821   6.800  0.00  0.00    +0.000 C 
ATOM      9  O   UNL     1      47.199   0.654   6.467  0.00  0.00    +0.000 OA
ATOM     10  H   UNL     1      49.059   2.158   5.665  0.00  0.00    +0.000 HD
ATOM     11  H   UNL     1      48.506   3.532   6.612  0.00  0.00    +0.000 HD
ENDBRANCH   1   8
BRANCH   4  12
ATOM     12  C   UNL     1      43.769   4.692  10.266  0.00  0.00    +0.000 C 
BRANCH  12  13
ATOM     13  C   UNL     1      44.066   4.776  11.760  0.00  0.00    +0.000 C 
ATOM     14  C   UNL     1      43.437   3.731  12.671  0.00  0.00    +0.000 C 
ATOM     15  C   UNL     1      42.884   5.119  12.673  0.00  0.00    +0.000 C 
BRANCH  13  16
ATOM     16  C   UNL     1      45.386   5.430  12.171  0.00  0.00    +0.000 A 
ATOM     17  C   UNL     1      46.173   4.888  13.204  0.00  0.00    +0.000 A 
ATOM     18  C   UNL     1      47.437   5.404  13.507  0.00  0.00    +0.000 A 
ATOM     19  C   UNL     1      47.935   6.488  12.792  0.00  0.00    +0.000 A 
ATOM     20  C   UNL     1      47.162   7.067  11.790  0.00  0.00    +0.000 A 
ATOM     21  C   UNL     1      45.903   6.545  11.490  0.00  0.00    +0.000 A 
ENDBRANCH  13  16
ENDBRANCH  12  13
ENDBRANCH   4  12
TORSDOF 4
ENDMDL
MODEL 3
REMARK VINA RESULT:    -7.483      1.182      1.713
REMARK INTER + INTRA:          -9.916
REMARK INTER:                  -9.309
REMARK INTRA:                  -0.607
REMARK UNBOUND:                -0.683
REMARK  Name = 
REMARK  4 active torsions:
REMARK  status: ('A' for Active; 'I' for Inactive)
REMARK    1  A    between atoms: C_2  and  C_4
REMARK    2  A    between atoms: C_7  and  C_8
REMARK    3  A    between atoms: C_8  and  C_9
REMARK    4  A    between atoms: C_9  and  C_10
REMARK                            x       y       z     vdW  Elec       q    Type
REMARK                         _______ _______ _______ _____ _____    ______ ____
ROOT
ATOM      1  C   UNL     1      46.465   2.512   7.712  0.00  0.00    +0.000 A 
ATOM      2  C   UNL     1      46.562   3.895   7.763  0.00  0.00    +0.000 A 
ATOM      3  C   UNL     1      45.697   4.587   8.611  0.00  0.00    +0.000 A 
ATOM      4  C   UNL     1      44.744   3.893   9.362  0.00  0.00    +0.000 A 
ATOM      5  C   UNL     1      44.739   2.501   9.239  0.00  0.00    +0.000 A 
ATOM      6  N   UNL     1      45.568   1.791   8.437  0.00  0.00    +0.000 NA
ENDROOT
BRANCH   1   8
ATOM      7  N   UNL     1      48.476   2.439   6.355  0.00  0.00    +0.000 N 
ATOM      8  C   UNL     1      47.405   1.736   6.838  0.00  0.00    +0.000 C 
ATOM      9  O   UNL     1      47.233   0.554   6.567  0.00  0.00    +0.000 OA
ATOM     10  H   UNL     1      49.143   1.985   5.748  0.00  0.00    +0.000 HD
ATOM     11  H   UNL     1      48.578   3.418   6.595  0.00  0.00    +0.000 HD
ENDBRANCH   1   8
BRANCH   4  12
ATOM     12  C   UNL     1      43.828   4.553  10.368  0.00  0.00    +0.000 C 
BRANCH  12  13
ATOM     13  C   UNL     1      44.428   4.798  11.749  0.00  0.00    +0.000 C 
ATOM     14  C   UNL     1      45.116   3.631  12.444  0.00  0.00    +0.000 C 
ATOM     15  C   UNL     1      43.768   4.065  12.921  0.00  0.00    +0.000 C 
BRANCH  13  16
ATOM     16  C   UNL     1      44.870   6.227  12.072  0.00  0.00    +0.000 A 
ATOM     17  C   UNL     1      45.926   6.474  12.969  0.00  0.00    +0.000 A 
ATOM     18  C   UNL     1      46.419   7.766  13.180  0.00  0.00    +0.000 A 
ATOM     19  C   UNL     1      45.852   8.843  12.507  0.00  0.00    +0.000 A 
ATOM     20  C   UNL     1      44.783   8.632  11.642  0.00  0.00    +0.000 A 
ATOM     21  C   UNL     1      44.299   7.340  11.433  0.00  0.00    +0.000 A 
ENDBRANCH  13  16
ENDBRANCH  12  13
ENDBRANCH   4  12
TORSDOF 4
ENDMDL
MODEL 4
REMARK VINA RESULT:    -6.582      3.928      6.034
REMARK INTER + INTRA:          -8.804
REMARK INTER:                  -8.276
REMARK INTRA:                  -0.528
REMARK UNBOUND:                -0.683
REMARK  Name = 
REMARK  4 active torsions:
REMARK  status: ('A' for Active; 'I' for Inactive)
REMARK    1  A    between atoms: C_2  and  C_4
REMARK    2  A    between atoms: C_7  and  C_8
REMARK    3  A    between atoms: C_8  and  C_9
REMARK    4  A    between atoms: C_9  and  C_10
REMARK                            x       y       z     vdW  Elec       q    Type
REMARK                         _______ _______ _______ _____ _____    ______ ____
ROOT
ATOM      1  C   UNL     1      48.283   6.472  13.993  0.00  0.00    +0.000 A 
ATOM      2  C   UNL     1      47.701   6.839  12.789  0.00  0.00    +0.000 A 
ATOM      3  C   UNL     1      46.598   6.112  12.340  0.00  0.00    +0.000 A 
ATOM      4  C   UNL     1      46.123   5.026  13.080  0.00  0.00    +0.000 A 
ATOM      5  C   UNL     1      46.780   4.748  14.281  0.00  0.00    +0.000 A 
ATOM      6  N   UNL     1      47.845   5.436  14.758  0.00  0.00    +0.000 NA
ENDROOT
BRANCH   1   8
ATOM      7  N   UNL     1      50.424   7.548  13.609  0.00  0.00    +0.000 N 
ATOM      8  C   UNL     1      49.446   7.256  14.523  0.00  0.00    +0.000 C 
ATOM      9  O   UNL     1      49.527   7.612  15.692  0.00  0.00    +0.000 OA
ATOM     10  H   UNL     1      51.244   8.062  13.898  0.00  0.00    +0.000 HD
ATOM     11  H   UNL     1      50.324   7.228  12.654  0.00  0.00    +0.000 HD
ENDBRANCH   1   8
BRANCH   4  12
ATOM     12  C   UNL     1      44.885   4.239  12.712  0.00  0.00    +0.000 C 
BRANCH  12  13
ATOM     13  C   UNL     1      44.209   4.642  11.404  0.00  0.00    +0.000 C 
ATOM     14  C   UNL     1      43.557   6.016  11.333  0.00  0.00    +0.000 C 
ATOM     15  C   UNL     1      42.686   4.808  11.445  0.00  0.00    +0.000 C 
BRANCH  13  16
ATOM     16  C   UNL     1      44.735   3.995  10.121  0.00  0.00    +0.000 A 
ATOM     17  C   UNL     1      45.383   4.762   9.135  0.00  0.00    +0.000 A 
ATOM     18  C   UNL     1      45.974   4.166   8.017  0.00  0.00    +0.000 A 
ATOM     19  C   UNL     1      45.915   2.786   7.853  0.00  0.00    +0.000 A 
ATOM     20  C   UNL     1      45.248   2.007   8.793  0.00  0.00    +0.000 A 
ATOM     21  C   UNL     1      44.663   2.608   9.910  0.00  0.00    +0.000 A 
ENDBRANCH  13  16
ENDBRANCH  12  13
ENDBRANCH   4  12
TORSDOF 4
ENDMDL
MODEL 5
REMARK VINA RESULT:    -5.743      3.735      6.004
REMARK INTER + INTRA:          -7.769
REMARK INTER:                  -8.646
REMARK INTRA:                   0.877
REMARK UNBOUND:                -0.683
REMARK  Name = 
REMARK  4 active torsions:
REMARK  status: ('A' for Active; 'I' for Inactive)
REMARK    1  A    between atoms: C_2  and  C_4
REMARK    2  A    between atoms: C_7  and  C_8
REMARK    3  A    between atoms: C_8  and  C_9
REMARK    4  A    between atoms: C_9  and  C_10
REMARK                            x       y       z     vdW  Elec       q    Type
REMARK                         _______ _______ _______ _____ _____    ______ ____
ROOT
ATOM      1  C   UNL     1      46.818   7.524  12.966  0.00  0.00    +0.000 A 
ATOM      2  C   UNL     1      45.809   8.228  12.326  0.00  0.00    +0.000 A 
ATOM      3  C   UNL     1      44.845   7.505  11.621  0.00  0.00    +0.000 A 
ATOM      4  C   UNL     1      44.926   6.112  11.547  0.00  0.00    +0.000 A 
ATOM      5  C   UNL     1      45.980   5.506  12.235  0.00  0.00    +0.000 A 
ATOM      6  N   UNL     1      46.928   6.169  12.939  0.00  0.00    +0.000 NA
ENDROOT
BRANCH   1   8
ATOM      7  N   UNL     1      47.369   8.962  14.843  0.00  0.00    +0.000 N 
ATOM      8  C   UNL     1      47.848   8.268  13.763  0.00  0.00    +0.000 C 
ATOM      9  O   UNL     1      49.038   8.265  13.473  0.00  0.00    +0.000 OA
ATOM     10  H   UNL     1      48.003   9.498  15.417  0.00  0.00    +0.000 HD
ATOM     11  H   UNL     1      46.377   8.947  15.043  0.00  0.00    +0.000 HD
ENDBRANCH   1   8
BRANCH   4  12
ATOM     12  C   UNL     1      43.880   5.247  10.879  0.00  0.00    +0.000 C 
BRANCH  12  13
ATOM     13  C   UNL     1      44.240   3.772  10.727  0.00  0.00    +0.000 C 
ATOM     14  C   UNL     1      43.345   2.746  11.408  0.00  0.00    +0.000 C 
ATOM     15  C   UNL     1      44.684   3.043  11.999  0.00  0.00    +0.000 C 
BRANCH  13  16
ATOM     16  C   UNL     1      45.016   3.372   9.471  0.00  0.00    +0.000 A 
ATOM     17  C   UNL     1      45.566   4.345   8.616  0.00  0.00    +0.000 A 
ATOM     18  C   UNL     1      46.378   3.993   7.534  0.00  0.00    +0.000 A 
ATOM     19  C   UNL     1      46.645   2.653   7.274  0.00  0.00    +0.000 A 
ATOM     20  C   UNL     1      46.085   1.668   8.080  0.00  0.00    +0.000 A 
ATOM     21  C   UNL     1      45.278   2.026   9.161  0.00  0.00    +0.000 A 
ENDBRANCH  13  16
ENDBRANCH  12  13
ENDBRANCH   4  12
TORSDOF 4
ENDMDL
MODEL 6
REMARK VINA RESULT:    -5.696      3.991      6.512
REMARK INTER + INTRA:          -7.712
REMARK INTER:                  -8.148
REMARK INTRA:                   0.437
REMARK UNBOUND:                -0.683
REMARK  Name = 
REMARK  4 active torsions:
REMARK  status: ('A' for Active; 'I' for Inactive)
REMARK    1  A    between atoms: C_2  and  C_4
REMARK    2  A    between atoms: C_7  and  C_8
REMARK    3  A    between atoms: C_8  and  C_9
REMARK    4  A    between atoms: C_9  and  C_10
REMARK                            x       y       z     vdW  Elec       q    Type
REMARK                         _______ _______ _______ _____ _____    ______ ____
ROOT
ATOM      1  C   UNL     1      47.622   4.607  15.768  0.00  0.00    +0.000 A 
ATOM      2  C   UNL     1      48.152   5.866  15.525  0.00  0.00    +0.000 A 
ATOM      3  C   UNL     1      47.972   6.426  14.261  0.00  0.00    +0.000 A 
ATOM      4  C   UNL     1      47.298   5.713  13.265  0.00  0.00    +0.000 A 
ATOM      5  C   UNL     1      46.799   4.457  13.620  0.00  0.00    +0.000 A 
ATOM      6  N   UNL     1      46.942   3.883  14.839  0.00  0.00    +0.000 NA
ENDROOT
BRANCH   1   8
ATOM      7  N   UNL     1      46.803   3.080  17.467  0.00  0.00    +0.000 N 
ATOM      8  C   UNL     1      47.766   3.993  17.128  0.00  0.00    +0.000 C 
ATOM      9  O   UNL     1      48.677   4.285  17.893  0.00  0.00    +0.000 OA
ATOM     10  H   UNL     1      46.828   2.636  18.374  0.00  0.00    +0.000 HD
ATOM     11  H   UNL     1      46.060   2.873  16.810  0.00  0.00    +0.000 HD
ENDBRANCH   1   8
BRANCH   4  12
ATOM     12  C   UNL     1      46.984   6.277  11.898  0.00  0.00    +0.000 C 
BRANCH  12  13
ATOM     13  C   UNL     1      45.526   6.172  11.458  0.00  0.00    +0.000 C 
ATOM     14  C   UNL     1      44.697   7.449  11.433  0.00  0.00    +0.000 C 
ATOM     15  C   UNL     1      44.468   6.459  12.527  0.00  0.00    +0.000 C 
BRANCH  13  16
ATOM     16  C   UNL     1      45.166   5.027  10.509  0.00  0.00    +0.000 A 
ATOM     17  C   UNL     1      45.587   5.038   9.166  0.00  0.00    +0.000 A 
ATOM     18  C   UNL     1      45.369   3.944   8.324  0.00  0.00    +0.000 A 
ATOM     19  C   UNL     1      44.708   2.818   8.804  0.00  0.00    +0.000 A 
ATOM     20  C   UNL     1      44.248   2.795  10.117  0.00  0.00    +0.000 A 
ATOM     21  C   UNL     1      44.472   3.889  10.954  0.00  0.00    +0.000 A 
ENDBRANCH  13  16
ENDBRANCH  12  13
ENDBRANCH   4  12
TORSDOF 4
ENDMDL
MODEL 7
REMARK VINA RESULT:    -5.679      2.319      4.115
REMARK INTER + INTRA:          -7.690
REMARK INTER:                  -7.101
REMARK INTRA:                  -0.589
REMARK UNBOUND:                -0.683
REMARK  Name = 
REMARK  4 active torsions:
REMARK  status: ('A' for Active; 'I' for Inactive)
REMARK    1  A    between atoms: C_2  and  C_4
REMARK    2  A    between atoms: C_7  and  C_8
REMARK    3  A    between atoms: C_8  and  C_9
REMARK    4  A    between atoms: C_9  and  C_10
REMARK                            x       y       z     vdW  Elec       q    Type
REMARK                         _______ _______ _______ _____ _____    ______ ____
ROOT
ATOM      1  C   UNL     1      44.982   3.715  10.037  0.00  0.00    +0.000 A 
ATOM      2  C   UNL     1      45.286   5.035   9.741  0.00  0.00    +0.000 A 
ATOM      3  C   UNL     1      45.602   5.893  10.796  0.00  0.00    +0.000 A 
ATOM      4  C   UNL     1      45.578   5.425  12.112  0.00  0.00    +0.000 A 
ATOM      5  C   UNL     1      45.265   4.076  12.295  0.00  0.00    +0.000 A 
ATOM      6  N   UNL     1      44.965   3.209  11.299  0.00  0.00    +0.000 NA
ENDROOT
BRANCH   1   8
ATOM      7  N   UNL     1      44.477   3.330   7.694  0.00  0.00    +0.000 N 
ATOM      8  C   UNL     1      44.676   2.759   8.923  0.00  0.00    +0.000 C 
ATOM      9  O   UNL     1      44.602   1.547   9.091  0.00  0.00    +0.000 OA
ATOM     10  H   UNL     1      44.253   2.749   6.900  0.00  0.00    +0.000 HD
ATOM     11  H   UNL     1      44.538   4.336   7.598  0.00  0.00    +0.000 HD
ENDBRANCH   1   8
BRANCH   4  12
ATOM     12  C   UNL     1      45.988   6.260  13.305  0.00  0.00    +0.000 C 
BRANCH  12  13
ATOM     13  C   UNL     1      47.155   7.216  13.074  0.00  0.00    +0.000 C 
ATOM     14  C   UNL     1      48.515   6.614  12.747  0.00  0.00    +0.000 C 
ATOM     15  C   UNL     1      48.283   7.179  14.110  0.00  0.00    +0.000 C 
BRANCH  13  16
ATOM     16  C   UNL     1      46.816   8.618  12.566  0.00  0.00    +0.000 A 
ATOM     17  C   UNL     1      47.809   9.451  12.018  0.00  0.00    +0.000 A 
ATOM     18  C   UNL     1      47.492  10.684  11.441  0.00  0.00    +0.000 A 
ATOM     19  C   UNL     1      46.171  11.119  11.414  0.00  0.00    +0.000 A 
ATOM     20  C   UNL     1      45.173  10.333  11.981  0.00  0.00    +0.000 A 
ATOM     21  C   UNL     1      45.496   9.101  12.553  0.00  0.00    +0.000 A 
ENDBRANCH  13  16
ENDBRANCH  12  13
ENDBRANCH   4  12
TORSDOF 4
ENDMDL
MODEL 8
REMARK VINA RESULT:    -5.549      2.396      4.303
REMARK INTER + INTRA:          -7.530
REMARK INTER:                  -6.936
REMARK INTRA:                  -0.594
REMARK UNBOUND:                -0.683
REMARK  Name = 
REMARK  4 active torsions:
REMARK  status: ('A' for Active; 'I' for Inactive)
REMARK    1  A    between atoms: C_2  and  C_4
REMARK    2  A    between atoms: C_7  and  C_8
REMARK    3  A    between atoms: C_8  and  C_9
REMARK    4  A    between atoms: C_9  and  C_10
REMARK                            x       y       z     vdW  Elec       q    Type
REMARK                         _______ _______ _______ _____ _____    ______ ____
ROOT
ATOM      1  C   UNL     1      44.994   3.765   9.994  0.00  0.00    +0.000 A 
ATOM      2  C   UNL     1      44.944   3.385  11.327  0.00  0.00    +0.000 A 
ATOM      3  C   UNL     1      45.254   4.339  12.297  0.00  0.00    +0.000 A 
ATOM      4  C   UNL     1      45.632   5.630  11.919  0.00  0.00    +0.000 A 
ATOM      5  C   UNL     1      45.642   5.906  10.549  0.00  0.00    +0.000 A 
ATOM      6  N   UNL     1      45.337   5.013   9.577  0.00  0.00    +0.000 NA
ENDROOT
BRANCH   1   8
ATOM      7  N   UNL     1      44.389   3.305   7.689  0.00  0.00    +0.000 N 
ATOM      8  C   UNL     1      44.631   2.775   8.928  0.00  0.00    +0.000 C 
ATOM      9  O   UNL     1      44.551   1.571   9.142  0.00  0.00    +0.000 OA
ATOM     10  H   UNL     1      44.125   2.699   6.925  0.00  0.00    +0.000 HD
ATOM     11  H   UNL     1      44.457   4.306   7.554  0.00  0.00    +0.000 HD
ENDBRANCH   1   8
BRANCH   4  12
ATOM     12  C   UNL     1      45.900   6.747  12.903  0.00  0.00    +0.000 C 
BRANCH  12  13
ATOM     13  C   UNL     1      47.309   7.332  12.873  0.00  0.00    +0.000 C 
ATOM     14  C   UNL     1      48.483   6.363  12.905  0.00  0.00    +0.000 C 
ATOM     15  C   UNL     1      48.154   7.142  14.136  0.00  0.00    +0.000 C 
BRANCH  13  16
ATOM     16  C   UNL     1      47.482   8.695  12.201  0.00  0.00    +0.000 A 
ATOM     17  C   UNL     1      46.422   9.620  12.152  0.00  0.00    +0.000 A 
ATOM     18  C   UNL     1      46.602  10.912  11.651  0.00  0.00    +0.000 A 
ATOM     19  C   UNL     1      47.848  11.303  11.170  0.00  0.00    +0.000 A 
ATOM     20  C   UNL     1      48.904  10.398  11.171  0.00  0.00    +0.000 A 
ATOM     21  C   UNL     1      48.718   9.110  11.677  0.00  0.00    +0.000 A 
ENDBRANCH  13  16
ENDBRANCH  12  13
ENDBRANCH   4  12
TORSDOF 4
ENDMDL
MODEL 9
REMARK VINA RESULT:    -5.490      3.883      6.094
REMARK INTER + INTRA:          -7.457
REMARK INTER:                  -7.307
REMARK INTRA:                  -0.149
REMARK UNBOUND:                -0.683
REMARK  Name = 
REMARK  4 active torsions:
REMARK  status: ('A' for Active; 'I' for Inactive)
REMARK    1  A    between atoms: C_2  and  C_4
REMARK    2  A    between atoms: C_7  and  C_8
REMARK    3  A    between atoms: C_8  and  C_9
REMARK    4  A    between atoms: C_9  and  C_10
REMARK                            x       y       z     vdW  Elec       q    Type
REMARK                         _______ _______ _______ _____ _____    ______ ____
ROOT
ATOM      1  C   UNL     1      48.901   7.584  12.853  0.00  0.00    +0.000 A 
ATOM      2  C   UNL     1      48.617   6.893  14.022  0.00  0.00    +0.000 A 
ATOM      3  C   UNL     1      47.529   6.019  14.024  0.00  0.00    +0.000 A 
ATOM      4  C   UNL     1      46.738   5.879  12.881  0.00  0.00    +0.000 A 
ATOM      5  C   UNL     1      47.118   6.617  11.758  0.00  0.00    +0.000 A 
ATOM      6  N   UNL     1      48.173   7.466  11.710  0.00  0.00    +0.000 NA
ENDROOT
BRANCH   1   8
ATOM      7  N   UNL     1      51.275   7.912  12.465  0.00  0.00    +0.000 N 
ATOM      8  C   UNL     1      50.086   8.501  12.806  0.00  0.00    +0.000 C 
ATOM      9  O   UNL     1      50.007   9.698  13.057  0.00  0.00    +0.000 OA
ATOM     10  H   UNL     1      52.118   8.466  12.426  0.00  0.00    +0.000 HD
ATOM     11  H   UNL     1      51.300   6.918  12.273  0.00  0.00    +0.000 HD
ENDBRANCH   1   8
BRANCH   4  12
ATOM     12  C   UNL     1      45.595   4.894  12.769  0.00  0.00    +0.000 C 
BRANCH  12  13
ATOM     13  C   UNL     1      44.634   5.125  11.607  0.00  0.00    +0.000 C 
ATOM     14  C   UNL     1      43.957   6.485  11.502  0.00  0.00    +0.000 C 
ATOM     15  C   UNL     1      43.157   5.314  11.969  0.00  0.00    +0.000 C 
BRANCH  13  16
ATOM     16  C   UNL     1      44.868   4.305  10.337  0.00  0.00    +0.000 A 
ATOM     17  C   UNL     1      45.442   4.889   9.192  0.00  0.00    +0.000 A 
ATOM     18  C   UNL     1      45.772   4.124   8.069  0.00  0.00    +0.000 A 
ATOM     19  C   UNL     1      45.519   2.756   8.061  0.00  0.00    +0.000 A 
ATOM     20  C   UNL     1      44.918   2.159   9.165  0.00  0.00    +0.000 A 
ATOM     21  C   UNL     1      44.595   2.928  10.285  0.00  0.00    +0.000 A 
ENDBRANCH  13  16
ENDBRANCH  12  13
ENDBRANCH   4  12
TORSDOF 4
ENDMDL
