MODEL 1
REMARK VINA RESULT:    -7.581      0.000      0.000
REMARK INTER + INTRA:         -11.410
REMARK INTER:                 -10.241
REMARK INTRA:                  -1.169
REMARK UNBOUND:                -1.169
REMARK  Name = 
REMARK  7 active torsions:
REMARK  status: ('A' for Active; 'I' for Inactive)
REMARK    1  A    between atoms: C_1  and  C_2
REMARK    2  A    between atoms: C_7  and  C_8
REMARK    3  A    between atoms: N_10  and  C_11
REMARK    4  A    between atoms: C_11  and  C_12
REMARK    5  A    between atoms: C_15  and  C_16
REMARK    6  A    between atoms: C_16  and  N_17
REMARK    7  A    between atoms: C_18  and  C_20
REMARK                            x       y       z     vdW  Elec       q    Type
REMARK                         _______ _______ _______ _____ _____    ______ ____
ROOT
ATOM      1  C   UNL     1      50.229   7.231  15.486  0.00  0.00    +0.000 A 
ATOM      2  C   UNL     1      48.961   6.632  15.461  0.00  0.00    +0.000 A 
ATOM      3  C   UNL     1      48.117   6.787  14.354  0.00  0.00    +0.000 A 
ATOM      4  C   UNL     1      48.527   7.532  13.240  0.00  0.00    +0.000 A 
ATOM      5  C   UNL     1      49.786   8.147  13.274  0.00  0.00    +0.000 A 
ATOM      6  C   UNL     1      50.631   7.990  14.379  0.00  0.00    +0.000 A 
ENDROOT
BRANCH   1   7
ATOM      7  C   UNL     1      51.154   7.029  16.661  0.00  0.00    +0.000 C 
BRANCH   7  10
ATOM      8  C   UNL     1      51.083   4.847  17.801  0.00  0.00    +0.000 C 
ATOM      9  O   UNL     1      50.318   5.266  18.662  0.00  0.00    +0.000 OA
ATOM     10  N   UNL     1      51.554   5.642  16.776  0.00  0.00    +0.000 N 
ATOM     11  H   UNL     1      51.944   5.209  15.952  0.00  0.00    +0.000 HD
BRANCH   8  18
ATOM     12  C   UNL     1      49.294   2.501  16.839  0.00  0.00    +0.000 C 
ATOM     13  C   UNL     1      50.684   2.343  17.379  0.00  0.00    +0.000 A 
ATOM     14  N   UNL     1      51.130   1.053  17.383  0.00  0.00    +0.000 NA
ATOM     15  C   UNL     1      52.398   0.814  17.781  0.00  0.00    +0.000 A 
ATOM     16  C   UNL     1      53.264   1.806  18.194  0.00  0.00    +0.000 A 
ATOM     17  C   UNL     1      52.799   3.119  18.201  0.00  0.00    +0.000 A 
ATOM     18  C   UNL     1      51.484   3.410  17.803  0.00  0.00    +0.000 A 
ENDBRANCH   8  18
ENDBRANCH   7  10
ENDBRANCH   1   7
BRANCH   4  19
ATOM     19  C   UNL     1      47.627   7.692  12.039  0.00  0.00    +0.000 C 
BRANCH  19  20
ATOM     20  N   UNL     1      46.926   6.470  11.732  0.00  0.00    +0.000 N 
ATOM     21  C   UNL     1      45.553   6.419  11.739  0.00  0.00    +0.000 C 
ATOM     22  O   UNL     1      44.868   7.417  11.949  0.00  0.00    +0.000 OA
ATOM     23  H   UNL     1      47.456   5.607  11.789  0.00  0.00    +0.000 HD
BRANCH  21  24
ATOM     24  C   UNL     1      44.937   5.122  11.425  0.00  0.00    +0.000 A 
ATOM     25  C   UNL     1      44.181   4.468  12.389  0.00  0.00    +0.000 A 
ATOM     26  S   UNL     1      43.499   3.002  11.846  0.00  0.00    +0.000 S 
ATOM     27  C   UNL     1      44.233   3.161  10.320  0.00  0.00    +0.000 A 
ATOM     28  N   UNL     1      44.072   2.208   9.364  0.00  0.00    +0.000 NA
ATOM     29  C   UNL     1      44.708   2.441   8.265  0.00  0.00    +0.000 A 
ATOM     30  N   UNL     1      45.488   3.545   8.034  0.00  0.00    +0.000 N 
ATOM     31  C   UNL     1      45.657   4.547   8.960  0.00  0.00    +0.000 A 
ATOM     32  O   UNL     1      46.330   5.542   8.707  0.00  0.00    +0.000 OA
ATOM     33  C   UNL     1      44.972   4.328  10.219  0.00  0.00    +0.000 A 
ATOM     34  H   UNL     1      45.954   3.673   7.148  0.00  0.00    +0.000 HD
ENDBRANCH  21  24
ENDBRANCH  19  20
ENDBRANCH   4  19
TORSDOF 6
ENDMDL
MODEL 2
REMARK VINA RESULT:    -7.401      3.241      8.960
REMARK INTER + INTRA:         -11.167
REMARK INTER:                 -10.475
REMARK INTRA:                  -0.692
REMARK UNBOUND:                -1.169
REMARK  Name = 
REMARK  7 active torsions:
REMARK  status: ('A' for Active; 'I' for Inactive)
REMARK    1  A    between atoms: C_1  and  C_2
REMARK    2  A    between atoms: C_7  and  C_8
REMARK    3  A    between atoms: N_10  and  C_11
REMARK    4  A    between atoms: C_11  and  C_12
REMARK    5  A    between atoms: C_15  and  C_16
REMARK    6  A    between atoms: C_16  and  N_17
REMARK    7  A    between atoms: C_18  and  C_20
REMARK                            x       y       z     vdW  Elec       q    Type
REMARK                         _______ _______ _______ _____ _____    ______ ____
ROOT
ATOM      1  C   UNL     1      45.011   5.638  10.965  0.00  0.00    +0.000 A 
ATOM      2  C   UNL     1      44.328   6.273  12.011  0.00  0.00    +0.000 A 
ATOM      3  C   UNL     1      44.991   7.169  12.861  0.00  0.00    +0.000 A 
ATOM      4  C   UNL     1      46.348   7.460  12.672  0.00  0.00    +0.000 A 
ATOM      5  C   UNL     1      47.035   6.810  11.638  0.00  0.00    +0.000 A 
ATOM      6  C   UNL     1      46.372   5.917  10.788  0.00  0.00    +0.000 A 
ENDROOT
BRANCH   1   7
ATOM      7  C   UNL     1      44.286   4.705  10.025  0.00  0.00    +0.000 C 
BRANCH   7  10
ATOM      8  C   UNL     1      45.463   3.006   8.688  0.00  0.00    +0.000 C 
ATOM      9  O   UNL     1      45.075   2.095   9.411  0.00  0.00    +0.000 OA
ATOM     10  N   UNL     1      45.131   4.326   8.913  0.00  0.00    +0.000 N 
ATOM     11  H   UNL     1      45.230   4.997   8.165  0.00  0.00    +0.000 HD
BRANCH   8  18
ATOM     12  C   UNL     1      46.571   0.199   7.967  0.00  0.00    +0.000 C 
ATOM     13  C   UNL     1      46.787   1.434   7.144  0.00  0.00    +0.000 A 
ATOM     14  N   UNL     1      47.500   1.217   6.000  0.00  0.00    +0.000 NA
ATOM     15  C   UNL     1      47.685   2.252   5.154  0.00  0.00    +0.000 A 
ATOM     16  C   UNL     1      47.198   3.521   5.389  0.00  0.00    +0.000 A 
ATOM     17  C   UNL     1      46.483   3.741   6.564  0.00  0.00    +0.000 A 
ATOM     18  C   UNL     1      46.275   2.694   7.476  0.00  0.00    +0.000 A 
ENDBRANCH   8  18
ENDBRANCH   7  10
ENDBRANCH   1   7
BRANCH   4  19
ATOM     19  C   UNL     1      47.065   8.435  13.576  0.00  0.00    +0.000 C 
BRANCH  19  20
ATOM     20  N   UNL     1      47.561   7.791  14.767  0.00  0.00    +0.000 N 
ATOM     21  C   UNL     1      48.852   7.328  14.837  0.00  0.00    +0.000 C 
ATOM     22  O   UNL     1      49.651   7.491  13.917  0.00  0.00    +0.000 OA
ATOM     23  H   UNL     1      46.872   7.445  15.425  0.00  0.00    +0.000 HD
BRANCH  21  24
ATOM     24  C   UNL     1      49.255   6.677  16.091  0.00  0.00    +0.000 A 
ATOM     25  C   UNL     1      50.276   7.227  16.854  0.00  0.00    +0.000 A 
ATOM     26  S   UNL     1      50.586   6.378  18.300  0.00  0.00    +0.000 S 
ATOM     27  C   UNL     1      49.404   5.211  17.933  0.00  0.00    +0.000 A 
ATOM     28  N   UNL     1      49.173   4.163  18.768  0.00  0.00    +0.000 NA
ATOM     29  C   UNL     1      48.269   3.339  18.353  0.00  0.00    +0.000 A 
ATOM     30  N   UNL     1      47.573   3.472  17.179  0.00  0.00    +0.000 N 
ATOM     31  C   UNL     1      47.753   4.529  16.319  0.00  0.00    +0.000 A 
ATOM     32  O   UNL     1      47.084   4.639  15.296  0.00  0.00    +0.000 OA
ATOM     33  C   UNL     1      48.766   5.479  16.733  0.00  0.00    +0.000 A 
ATOM     34  H   UNL     1      46.872   2.795  16.914  0.00  0.00    +0.000 HD
ENDBRANCH  21  24
ENDBRANCH  19  20
ENDBRANCH   4  19
TORSDOF 6
ENDMDL
MODEL 3
REMARK VINA RESULT:    -7.288      3.544      9.076
REMARK INTER + INTRA:         -11.014
REMARK INTER:                 -10.074
REMARK INTRA:                  -0.940
REMARK UNBOUND:                -1.169
REMARK  Name = 
REMARK  7 active torsions:
REMARK  status: ('A' for Active; 'I' for Inactive)
REMARK    1  A    between atoms: C_1  and  C_2
REMARK    2  A    between atoms: C_7  and  C_8
REMARK    3  A    between atoms: N_10  and  C_11
REMARK    4  A    between atoms: C_11  and  C_12
REMARK    5  A    between atoms: C_15  and  C_16
REMARK    6  A    between atoms: C_16  and  N_17
REMARK    7  A    between atoms: C_18  and  C_20
REMARK                            x       y       z     vdW  Elec       q    Type
REMARK                         _______ _______ _______ _____ _____    ______ ____
ROOT
ATOM      1  C   UNL     1      44.704   4.795  12.082  0.00  0.00    +0.000 A 
ATOM      2  C   UNL     1      44.209   5.987  11.533  0.00  0.00    +0.000 A 
ATOM      3  C   UNL     1      44.762   7.224  11.888  0.00  0.00    +0.000 A 
ATOM      4  C   UNL     1      45.835   7.296  12.787  0.00  0.00    +0.000 A 
ATOM      5  C   UNL     1      46.317   6.106  13.350  0.00  0.00    +0.000 A 
ATOM      6  C   UNL     1      45.765   4.870  12.994  0.00  0.00    +0.000 A 
ENDROOT
BRANCH   1   7
ATOM      7  C   UNL     1      44.134   3.461  11.668  0.00  0.00    +0.000 C 
BRANCH   7  10
ATOM      8  C   UNL     1      44.817   3.072   9.334  0.00  0.00    +0.000 C 
ATOM      9  O   UNL     1      43.962   3.838   8.904  0.00  0.00    +0.000 OA
ATOM     10  N   UNL     1      44.976   2.818  10.681  0.00  0.00    +0.000 N 
ATOM     11  H   UNL     1      45.841   2.415  11.011  0.00  0.00    +0.000 HD
BRANCH   8  18
ATOM     12  C   UNL     1      46.803   4.597   7.502  0.00  0.00    +0.000 C 
ATOM     13  C   UNL     1      46.670   3.104   7.553  0.00  0.00    +0.000 A 
ATOM     14  N   UNL     1      47.540   2.444   6.734  0.00  0.00    +0.000 NA
ATOM     15  C   UNL     1      47.551   1.095   6.763  0.00  0.00    +0.000 A 
ATOM     16  C   UNL     1      46.721   0.346   7.573  0.00  0.00    +0.000 A 
ATOM     17  C   UNL     1      45.825   1.024   8.396  0.00  0.00    +0.000 A 
ATOM     18  C   UNL     1      45.776   2.428   8.390  0.00  0.00    +0.000 A 
ENDBRANCH   8  18
ENDBRANCH   7  10
ENDBRANCH   1   7
BRANCH   4  19
ATOM     19  C   UNL     1      46.444   8.625  13.162  0.00  0.00    +0.000 C 
BRANCH  19  20
ATOM     20  N   UNL     1      47.031   8.589  14.478  0.00  0.00    +0.000 N 
ATOM     21  C   UNL     1      48.315   9.026  14.695  0.00  0.00    +0.000 C 
ATOM     22  O   UNL     1      48.994   9.516  13.795  0.00  0.00    +0.000 OA
ATOM     23  H   UNL     1      46.588   7.988  15.164  0.00  0.00    +0.000 HD
BRANCH  21  24
ATOM     24  C   UNL     1      48.822   8.937  16.071  0.00  0.00    +0.000 A 
ATOM     25  C   UNL     1      49.055  10.098  16.795  0.00  0.00    +0.000 A 
ATOM     26  S   UNL     1      49.595   9.817  18.389  0.00  0.00    +0.000 S 
ATOM     27  C   UNL     1      49.590   8.133  18.151  0.00  0.00    +0.000 A 
ATOM     28  N   UNL     1      49.980   7.286  19.141  0.00  0.00    +0.000 NA
ATOM     29  C   UNL     1      49.955   6.037  18.816  0.00  0.00    +0.000 A 
ATOM     30  N   UNL     1      49.569   5.557  17.590  0.00  0.00    +0.000 N 
ATOM     31  C   UNL     1      49.141   6.373  16.570  0.00  0.00    +0.000 A 
ATOM     32  O   UNL     1      48.764   5.909  15.498  0.00  0.00    +0.000 OA
ATOM     33  C   UNL     1      49.161   7.789  16.880  0.00  0.00    +0.000 A 
ATOM     34  H   UNL     1      49.565   4.566  17.401  0.00  0.00    +0.000 HD
ENDBRANCH  21  24
ENDBRANCH  19  20
ENDBRANCH   4  19
TORSDOF 6
ENDMDL
MODEL 4
REMARK VINA RESULT:    -7.265      1.321      2.143
REMARK INTER + INTRA:         -10.983
REMARK INTER:                  -9.971
REMARK INTRA:                  -1.012
REMARK UNBOUND:                -1.169
REMARK  Name = 
REMARK  7 active torsions:
REMARK  status: ('A' for Active; 'I' for Inactive)
REMARK    1  A    between atoms: C_1  and  C_2
REMARK    2  A    between atoms: C_7  and  C_8
REMARK    3  A    between atoms: N_10  and  C_11
REMARK    4  A    between atoms: C_11  and  C_12
REMARK    5  A    between atoms: C_15  and  C_16
REMARK    6  A    between atoms: C_16  and  N_17
REMARK    7  A    between atoms: C_18  and  C_20
REMARK                            x       y       z     vdW  Elec       q    Type
REMARK                         _______ _______ _______ _____ _____    ______ ____
ROOT
ATOM      1  C   UNL     1      50.223   7.260  15.633  0.00  0.00    +0.000 A 
ATOM      2  C   UNL     1      50.899   7.870  14.566  0.00  0.00    +0.000 A 
ATOM      3  C   UNL     1      50.228   8.178  13.376  0.00  0.00    +0.000 A 
ATOM      4  C   UNL     1      48.863   7.898  13.231  0.00  0.00    +0.000 A 
ATOM      5  C   UNL     1      48.193   7.271  14.290  0.00  0.00    +0.000 A 
ATOM      6  C   UNL     1      48.862   6.964  15.480  0.00  0.00    +0.000 A 
ENDROOT
BRANCH   1   7
ATOM      7  C   UNL     1      50.937   6.966  16.930  0.00  0.00    +0.000 C 
BRANCH   7  10
ATOM      8  C   UNL     1      51.032   4.725  17.945  0.00  0.00    +0.000 C 
ATOM      9  O   UNL     1      50.263   5.045  18.845  0.00  0.00    +0.000 OA
ATOM     10  N   UNL     1      51.426   5.604  16.958  0.00  0.00    +0.000 N 
ATOM     11  H   UNL     1      51.823   5.244  16.102  0.00  0.00    +0.000 HD
BRANCH   8  18
ATOM     12  C   UNL     1      49.412   2.347  16.785  0.00  0.00    +0.000 C 
ATOM     13  C   UNL     1      50.799   2.237  17.343  0.00  0.00    +0.000 A 
ATOM     14  N   UNL     1      51.326   0.979  17.268  0.00  0.00    +0.000 NA
ATOM     15  C   UNL     1      52.598   0.792  17.677  0.00  0.00    +0.000 A 
ATOM     16  C   UNL     1      53.393   1.804  18.175  0.00  0.00    +0.000 A 
ATOM     17  C   UNL     1      52.846   3.082  18.263  0.00  0.00    +0.000 A 
ATOM     18  C   UNL     1      51.522   3.319  17.857  0.00  0.00    +0.000 A 
ENDBRANCH   8  18
ENDBRANCH   7  10
ENDBRANCH   1   7
BRANCH   4  19
ATOM     19  C   UNL     1      48.132   8.241  11.955  0.00  0.00    +0.000 C 
BRANCH  19  20
ATOM     20  N   UNL     1      47.488   7.084  11.383  0.00  0.00    +0.000 N 
ATOM     21  C   UNL     1      46.120   6.965  11.376  0.00  0.00    +0.000 C 
ATOM     22  O   UNL     1      45.389   7.856  11.802  0.00  0.00    +0.000 OA
ATOM     23  H   UNL     1      48.061   6.258  11.248  0.00  0.00    +0.000 HD
BRANCH  21  24
ATOM     24  C   UNL     1      45.565   5.742  10.780  0.00  0.00    +0.000 A 
ATOM     25  C   UNL     1      45.757   5.488   9.428  0.00  0.00    +0.000 A 
ATOM     26  S   UNL     1      45.091   4.007   8.907  0.00  0.00    +0.000 S 
ATOM     27  C   UNL     1      44.475   3.675  10.457  0.00  0.00    +0.000 A 
ATOM     28  N   UNL     1      43.760   2.544  10.699  0.00  0.00    +0.000 NA
ATOM     29  C   UNL     1      43.329   2.434  11.910  0.00  0.00    +0.000 A 
ATOM     30  N   UNL     1      43.552   3.351  12.905  0.00  0.00    +0.000 N 
ATOM     31  C   UNL     1      44.292   4.494  12.715  0.00  0.00    +0.000 A 
ATOM     32  O   UNL     1      44.508   5.274  13.637  0.00  0.00    +0.000 OA
ATOM     33  C   UNL     1      44.792   4.672  11.365  0.00  0.00    +0.000 A 
ATOM     34  H   UNL     1      43.193   3.202  13.836  0.00  0.00    +0.000 HD
ENDBRANCH  21  24
ENDBRANCH  19  20
ENDBRANCH   4  19
TORSDOF 6
ENDMDL
MODEL 5
REMARK VINA RESULT:    -7.182      3.175      5.126
REMARK INTER + INTRA:         -10.870
REMARK INTER:                 -10.226
REMARK INTRA:                  -0.644
REMARK UNBOUND:                -1.169
REMARK  Name = 
REMARK  7 active torsions:
REMARK  status: ('A' for Active; 'I' for Inactive)
REMARK    1  A    between atoms: C_1  and  C_2
REMARK    2  A    between atoms: C_7  and  C_8
REMARK    3  A    between atoms: N_10  and  C_11
REMARK    4  A    between atoms: C_11  and  C_12
REMARK    5  A    between atoms: C_15  and  C_16
REMARK    6  A    between atoms: C_16  and  N_17
REMARK    7  A    between atoms: C_18  and  C_20
REMARK                            x       y       z     vdW  Elec       q    Type
REMARK                         _______ _______ _______ _____ _____    ______ ____
ROOT
ATOM      1  C   UNL     1      51.433   3.085  17.721  0.00  0.00    +0.000 A 
ATOM      2  C   UNL     1      50.723   4.224  18.125  0.00  0.00    +0.000 A 
ATOM      3  C   UNL     1      49.347   4.332  17.888  0.00  0.00    +0.000 A 
ATOM      4  C   UNL     1      48.646   3.296  17.257  0.00  0.00    +0.000 A 
ATOM      5  C   UNL     1      49.360   2.165  16.836  0.00  0.00    +0.000 A 
ATOM      6  C   UNL     1      50.735   2.056  17.074  0.00  0.00    +0.000 A 
ENDROOT
BRANCH   1   7
ATOM      7  C   UNL     1      52.908   2.952  18.013  0.00  0.00    +0.000 C 
BRANCH   7  10
ATOM      8  C   UNL     1      54.135   0.855  18.413  0.00  0.00    +0.000 C 
ATOM      9  O   UNL     1      54.391   1.167  19.571  0.00  0.00    +0.000 OA
ATOM     10  N   UNL     1      53.414   1.671  17.566  0.00  0.00    +0.000 N 
ATOM     11  H   UNL     1      52.993   1.278  16.737  0.00  0.00    +0.000 HD
BRANCH   8  18
ATOM     12  C   UNL     1      55.774   0.386  15.821  0.00  0.00    +0.000 C 
ATOM     13  C   UNL     1      55.287  -0.705  16.726  0.00  0.00    +0.000 A 
ATOM     14  N   UNL     1      55.659  -1.958  16.330  0.00  0.00    +0.000 NA
ATOM     15  C   UNL     1      55.332  -3.003  17.118  0.00  0.00    +0.000 A 
ATOM     16  C   UNL     1      54.632  -2.874  18.300  0.00  0.00    +0.000 A 
ATOM     17  C   UNL     1      54.241  -1.596  18.693  0.00  0.00    +0.000 A 
ATOM     18  C   UNL     1      54.554  -0.481  17.897  0.00  0.00    +0.000 A 
ENDBRANCH   8  18
ENDBRANCH   7  10
ENDBRANCH   1   7
BRANCH   4  19
ATOM     19  C   UNL     1      47.161   3.401  17.012  0.00  0.00    +0.000 C 
BRANCH  19  20
ATOM     20  N   UNL     1      46.853   4.399  16.019  0.00  0.00    +0.000 N 
ATOM     21  C   UNL     1      46.967   4.125  14.678  0.00  0.00    +0.000 C 
ATOM     22  O   UNL     1      47.278   3.009  14.268  0.00  0.00    +0.000 OA
ATOM     23  H   UNL     1      46.827   5.365  16.329  0.00  0.00    +0.000 HD
BRANCH  21  24
ATOM     24  C   UNL     1      46.641   5.216  13.749  0.00  0.00    +0.000 A 
ATOM     25  C   UNL     1      47.562   6.232  13.532  0.00  0.00    +0.000 A 
ATOM     26  S   UNL     1      47.048   7.391  12.391  0.00  0.00    +0.000 S 
ATOM     27  C   UNL     1      45.554   6.606  12.185  0.00  0.00    +0.000 A 
ATOM     28  N   UNL     1      44.611   7.107  11.342  0.00  0.00    +0.000 NA
ATOM     29  C   UNL     1      43.514   6.427  11.304  0.00  0.00    +0.000 A 
ATOM     30  N   UNL     1      43.276   5.289  12.030  0.00  0.00    +0.000 N 
ATOM     31  C   UNL     1      44.208   4.731  12.872  0.00  0.00    +0.000 A 
ATOM     32  O   UNL     1      43.978   3.688  13.477  0.00  0.00    +0.000 OA
ATOM     33  C   UNL     1      45.457   5.463  12.961  0.00  0.00    +0.000 A 
ATOM     34  H   UNL     1      42.398   4.799  11.950  0.00  0.00    +0.000 HD
ENDBRANCH  21  24
ENDBRANCH  19  20
ENDBRANCH   4  19
TORSDOF 6
ENDMDL
MODEL 6
REMARK VINA RESULT:    -6.813      5.197      8.573
REMARK INTER + INTRA:         -10.372
REMARK INTER:                  -9.666
REMARK INTRA:                  -0.706
REMARK UNBOUND:                -1.169
REMARK  Name = 
REMARK  7 active torsions:
REMARK  status: ('A' for Active; 'I' for Inactive)
REMARK    1  A    between atoms: C_1  and  C_2
REMARK    2  A    between atoms: C_7  and  C_8
REMARK    3  A    between atoms: N_10  and  C_11
REMARK    4  A    between atoms: C_11  and  C_12
REMARK    5  A    between atoms: C_15  and  C_16
REMARK    6  A    between atoms: C_16  and  N_17
REMARK    7  A    between atoms: C_18  and  C_20
REMARK                            x       y       z     vdW  Elec       q    Type
REMARK                         _______ _______ _______ _____ _____    ______ ____
ROOT
ATOM      1  C   UNL     1      44.151   4.572  11.937  0.00  0.00    +0.000 A 
ATOM      2  C   UNL     1      43.357   5.667  11.572  0.00  0.00    +0.000 A 
ATOM      3  C   UNL     1      43.752   6.975  11.881  0.00  0.00    +0.000 A 
ATOM      4  C   UNL     1      44.959   7.217  12.550  0.00  0.00    +0.000 A 
ATOM      5  C   UNL     1      45.744   6.121  12.933  0.00  0.00    +0.000 A 
ATOM      6  C   UNL     1      45.350   4.814  12.621  0.00  0.00    +0.000 A 
ENDROOT
BRANCH   1   7
ATOM      7  C   UNL     1      43.744   3.166  11.566  0.00  0.00    +0.000 C 
BRANCH   7  10
ATOM      8  C   UNL     1      44.724   3.074   9.309  0.00  0.00    +0.000 C 
ATOM      9  O   UNL     1      44.013   3.989   8.909  0.00  0.00    +0.000 OA
ATOM     10  N   UNL     1      44.661   2.596  10.601  0.00  0.00    +0.000 N 
ATOM     11  H   UNL     1      45.428   2.052  10.968  0.00  0.00    +0.000 HD
BRANCH   8  18
ATOM     12  C   UNL     1      46.766   4.701   7.633  0.00  0.00    +0.000 C 
ATOM     13  C   UNL     1      46.670   3.205   7.635  0.00  0.00    +0.000 A 
ATOM     14  N   UNL     1      47.600   2.592   6.845  0.00  0.00    +0.000 NA
ATOM     15  C   UNL     1      47.645   1.243   6.837  0.00  0.00    +0.000 A 
ATOM     16  C   UNL     1      46.792   0.450   7.578  0.00  0.00    +0.000 A 
ATOM     17  C   UNL     1      45.835   1.080   8.370  0.00  0.00    +0.000 A 
ATOM     18  C   UNL     1      45.749   2.482   8.402  0.00  0.00    +0.000 A 
ENDBRANCH   8  18
ENDBRANCH   7  10
ENDBRANCH   1   7
BRANCH   4  19
ATOM     19  C   UNL     1      45.397   8.625  12.875  0.00  0.00    +0.000 C 
BRANCH  19  20
ATOM     20  N   UNL     1      46.600   8.986  12.166  0.00  0.00    +0.000 N 
ATOM     21  C   UNL     1      47.742   9.338  12.841  0.00  0.00    +0.000 C 
ATOM     22  O   UNL     1      47.807   9.306  14.067  0.00  0.00    +0.000 OA
ATOM     23  H   UNL     1      46.500   9.241  11.189  0.00  0.00    +0.000 HD
BRANCH  21  24
ATOM     24  C   UNL     1      48.909   9.701  12.024  0.00  0.00    +0.000 A 
ATOM     25  C   UNL     1      49.058  11.008  11.579  0.00  0.00    +0.000 A 
ATOM     26  S   UNL     1      50.487  11.270  10.687  0.00  0.00    +0.000 S 
ATOM     27  C   UNL     1      50.933   9.634  10.816  0.00  0.00    +0.000 A 
ATOM     28  N   UNL     1      52.073   9.172  10.235  0.00  0.00    +0.000 NA
ATOM     29  C   UNL     1      52.274   7.906  10.387  0.00  0.00    +0.000 A 
ATOM     30  N   UNL     1      51.440   7.060  11.072  0.00  0.00    +0.000 N 
ATOM     31  C   UNL     1      50.293   7.487  11.699  0.00  0.00    +0.000 A 
ATOM     32  O   UNL     1      49.590   6.711  12.338  0.00  0.00    +0.000 OA
ATOM     33  C   UNL     1      50.014   8.902  11.548  0.00  0.00    +0.000 A 
ATOM     34  H   UNL     1      51.658   6.079  11.161  0.00  0.00    +0.000 HD
ENDBRANCH  21  24
ENDBRANCH  19  20
ENDBRANCH   4  19
TORSDOF 6
ENDMDL
MODEL 7
REMARK VINA RESULT:    -6.761      3.280      5.527
REMARK INTER + INTRA:         -10.302
REMARK INTER:                  -9.291
REMARK INTRA:                  -1.010
REMARK UNBOUND:                -1.169
REMARK  Name = 
REMARK  7 active torsions:
REMARK  status: ('A' for Active; 'I' for Inactive)
REMARK    1  A    between atoms: C_1  and  C_2
REMARK    2  A    between atoms: C_7  and  C_8
REMARK    3  A    between atoms: N_10  and  C_11
REMARK    4  A    between atoms: C_11  and  C_12
REMARK    5  A    between atoms: C_15  and  C_16
REMARK    6  A    between atoms: C_16  and  N_17
REMARK    7  A    between atoms: C_18  and  C_20
REMARK                            x       y       z     vdW  Elec       q    Type
REMARK                         _______ _______ _______ _____ _____    ______ ____
ROOT
ATOM      1  C   UNL     1      51.350   3.174  17.740  0.00  0.00    +0.000 A 
ATOM      2  C   UNL     1      50.718   4.414  17.906  0.00  0.00    +0.000 A 
ATOM      3  C   UNL     1      49.360   4.574  17.603  0.00  0.00    +0.000 A 
ATOM      4  C   UNL     1      48.599   3.492  17.140  0.00  0.00    +0.000 A 
ATOM      5  C   UNL     1      49.235   2.257  16.955  0.00  0.00    +0.000 A 
ATOM      6  C   UNL     1      50.592   2.097  17.260  0.00  0.00    +0.000 A 
ENDROOT
BRANCH   1   7
ATOM      7  C   UNL     1      52.803   2.993  18.106  0.00  0.00    +0.000 C 
BRANCH   7  10
ATOM      8  C   UNL     1      54.101   0.931  18.460  0.00  0.00    +0.000 C 
ATOM      9  O   UNL     1      54.441   1.278  19.585  0.00  0.00    +0.000 OA
ATOM     10  N   UNL     1      53.299   1.710  17.653  0.00  0.00    +0.000 N 
ATOM     11  H   UNL     1      52.822   1.287  16.870  0.00  0.00    +0.000 HD
BRANCH   8  18
ATOM     12  C   UNL     1      55.768   0.443  15.889  0.00  0.00    +0.000 C 
ATOM     13  C   UNL     1      55.251  -0.643  16.784  0.00  0.00    +0.000 A 
ATOM     14  N   UNL     1      55.609  -1.900  16.389  0.00  0.00    +0.000 NA
ATOM     15  C   UNL     1      55.255  -2.942  17.170  0.00  0.00    +0.000 A 
ATOM     16  C   UNL     1      54.540  -2.805  18.343  0.00  0.00    +0.000 A 
ATOM     17  C   UNL     1      54.164  -1.522  18.734  0.00  0.00    +0.000 A 
ATOM     18  C   UNL     1      54.506  -0.410  17.945  0.00  0.00    +0.000 A 
ENDBRANCH   8  18
ENDBRANCH   7  10
ENDBRANCH   1   7
BRANCH   4  19
ATOM     19  C   UNL     1      47.132   3.655  16.824  0.00  0.00    +0.000 C 
BRANCH  19  20
ATOM     20  N   UNL     1      46.912   4.668  15.822  0.00  0.00    +0.000 N 
ATOM     21  C   UNL     1      47.018   4.377  14.484  0.00  0.00    +0.000 C 
ATOM     22  O   UNL     1      47.247   3.238  14.084  0.00  0.00    +0.000 OA
ATOM     23  H   UNL     1      46.956   5.634  16.127  0.00  0.00    +0.000 HD
BRANCH  21  24
ATOM     24  C   UNL     1      46.785   5.483  13.545  0.00  0.00    +0.000 A 
ATOM     25  C   UNL     1      45.673   5.457  12.714  0.00  0.00    +0.000 A 
ATOM     26  S   UNL     1      45.526   6.837  11.722  0.00  0.00    +0.000 S 
ATOM     27  C   UNL     1      46.973   7.495  12.329  0.00  0.00    +0.000 A 
ATOM     28  N   UNL     1      47.447   8.684  11.869  0.00  0.00    +0.000 NA
ATOM     29  C   UNL     1      48.568   9.050  12.395  0.00  0.00    +0.000 A 
ATOM     30  N   UNL     1      49.255   8.337  13.343  0.00  0.00    +0.000 N 
ATOM     31  C   UNL     1      48.801   7.146  13.857  0.00  0.00    +0.000 A 
ATOM     32  O   UNL     1      49.420   6.553  14.735  0.00  0.00    +0.000 OA
ATOM     33  C   UNL     1      47.549   6.683  13.291  0.00  0.00    +0.000 A 
ATOM     34  H   UNL     1      50.125   8.683  13.720  0.00  0.00    +0.000 HD
ENDBRANCH  21  24
ENDBRANCH  19  20
ENDBRANCH   4  19
TORSDOF 6
ENDMDL
MODEL 8
REMARK VINA RESULT:    -6.758      2.686      8.993
REMARK INTER + INTRA:         -10.297
REMARK INTER:                  -9.183
REMARK INTRA:                  -1.115
REMARK UNBOUND:                -1.169
REMARK  Name = 
REMARK  7 active torsions:
REMARK  status: ('A' for Active; 'I' for Inactive)
REMARK    1  A    between atoms: C_1  and  C_2
REMARK    2  A    between atoms: C_7  and  C_8
REMARK    3  A    between atoms: N_10  and  C_11
REMARK    4  A    between atoms: C_11  and  C_12
REMARK    5  A    between atoms: C_15  and  C_16
REMARK    6  A    between atoms: C_16  and  N_17
REMARK    7  A    between atoms: C_18  and  C_20
REMARK                            x       y       z     vdW  Elec       q    Type
REMARK                         _______ _______ _______ _____ _____    ______ ____
ROOT
ATOM      1  C   UNL     1      47.795   7.830  13.269  0.00  0.00    +0.000 A 
ATOM      2  C   UNL     1      48.267   6.612  13.777  0.00  0.00    +0.000 A 
ATOM      3  C   UNL     1      48.736   6.518  15.094  0.00  0.00    +0.000 A 
ATOM      4  C   UNL     1      48.728   7.637  15.937  0.00  0.00    +0.000 A 
ATOM      5  C   UNL     1      48.275   8.859  15.423  0.00  0.00    +0.000 A 
ATOM      6  C   UNL     1      47.804   8.953  14.107  0.00  0.00    +0.000 A 
ENDROOT
BRANCH   1   7
ATOM      7  C   UNL     1      47.251   7.921  11.864  0.00  0.00    +0.000 C 
BRANCH   7  10
ATOM      8  C   UNL     1      45.480   6.368  11.145  0.00  0.00    +0.000 C 
ATOM      9  O   UNL     1      44.604   7.208  11.319  0.00  0.00    +0.000 OA
ATOM     10  N   UNL     1      46.813   6.624  11.390  0.00  0.00    +0.000 N 
ATOM     11  H   UNL     1      47.517   6.025  10.984  0.00  0.00    +0.000 HD
BRANCH   8  18
ATOM     12  C   UNL     1      43.937   4.157  12.679  0.00  0.00    +0.000 C 
ATOM     13  C   UNL     1      44.434   4.024  11.271  0.00  0.00    +0.000 A 
ATOM     14  N   UNL     1      44.117   2.832  10.684  0.00  0.00    +0.000 NA
ATOM     15  C   UNL     1      44.456   2.644   9.392  0.00  0.00    +0.000 A 
ATOM     16  C   UNL     1      45.116   3.590   8.634  0.00  0.00    +0.000 A 
ATOM     17  C   UNL     1      45.450   4.798   9.241  0.00  0.00    +0.000 A 
ATOM     18  C   UNL     1      45.123   5.032  10.587  0.00  0.00    +0.000 A 
ENDBRANCH   8  18
ENDBRANCH   7  10
ENDBRANCH   1   7
BRANCH   4  19
ATOM     19  C   UNL     1      49.220   7.539  17.361  0.00  0.00    +0.000 C 
BRANCH  19  20
ATOM     20  N   UNL     1      50.169   6.466  17.524  0.00  0.00    +0.000 N 
ATOM     21  C   UNL     1      50.481   5.978  18.770  0.00  0.00    +0.000 C 
ATOM     22  O   UNL     1      49.927   6.392  19.785  0.00  0.00    +0.000 OA
ATOM     23  H   UNL     1      50.793   6.281  16.746  0.00  0.00    +0.000 HD
BRANCH  21  24
ATOM     24  C   UNL     1      51.470   4.893  18.827  0.00  0.00    +0.000 A 
ATOM     25  C   UNL     1      52.657   5.080  19.522  0.00  0.00    +0.000 A 
ATOM     26  S   UNL     1      53.671   3.708  19.532  0.00  0.00    +0.000 S 
ATOM     27  C   UNL     1      52.584   2.831  18.561  0.00  0.00    +0.000 A 
ATOM     28  N   UNL     1      52.866   1.559  18.170  0.00  0.00    +0.000 NA
ATOM     29  C   UNL     1      51.968   1.023  17.413  0.00  0.00    +0.000 A 
ATOM     30  N   UNL     1      50.811   1.642  17.015  0.00  0.00    +0.000 N 
ATOM     31  C   UNL     1      50.471   2.915  17.408  0.00  0.00    +0.000 A 
ATOM     32  O   UNL     1      49.409   3.425  17.067  0.00  0.00    +0.000 OA
ATOM     33  C   UNL     1      51.453   3.568  18.252  0.00  0.00    +0.000 A 
ATOM     34  H   UNL     1      50.145   1.164  16.427  0.00  0.00    +0.000 HD
ENDBRANCH  21  24
ENDBRANCH  19  20
ENDBRANCH   4  19
TORSDOF 6
ENDMDL
MODEL 9
REMARK VINA RESULT:    -6.524      4.993      6.082
REMARK INTER + INTRA:          -9.982
REMARK INTER:                  -9.038
REMARK INTRA:                  -0.944
REMARK UNBOUND:                -1.169
REMARK  Name = 
REMARK  7 active torsions:
REMARK  status: ('A' for Active; 'I' for Inactive)
REMARK    1  A    between atoms: C_1  and  C_2
REMARK    2  A    between atoms: C_7  and  C_8
REMARK    3  A    between atoms: N_10  and  C_11
REMARK    4  A    between atoms: C_11  and  C_12
REMARK    5  A    between atoms: C_15  and  C_16
REMARK    6  A    between atoms: C_16  and  N_17
REMARK    7  A    between atoms: C_18  and  C_20
REMARK                            x       y       z     vdW  Elec       q    Type
REMARK                         _______ _______ _______ _____ _____    ______ ____
ROOT
ATOM      1  C   UNL     1      50.631   8.753  11.801  0.00  0.00    +0.000 A 
ATOM      2  C   UNL     1      49.903   7.652  11.329  0.00  0.00    +0.000 A 
ATOM      3  C   UNL     1      48.583   7.434  11.744  0.00  0.00    +0.000 A 
ATOM      4  C   UNL     1      47.955   8.322  12.627  0.00  0.00    +0.000 A 
ATOM      5  C   UNL     1      48.689   9.412  13.114  0.00  0.00    +0.000 A 
ATOM      6  C   UNL     1      50.008   9.631  12.698  0.00  0.00    +0.000 A 
ENDROOT
BRANCH   1   7
ATOM      7  C   UNL     1      52.039   9.009  11.322  0.00  0.00    +0.000 C 
BRANCH   7  10
ATOM      8  C   UNL     1      53.001   8.003   9.291  0.00  0.00    +0.000 C 
ATOM      9  O   UNL     1      52.980   9.073   8.691  0.00  0.00    +0.000 OA
ATOM     10  N   UNL     1      52.555   7.871  10.589  0.00  0.00    +0.000 N 
ATOM     11  H   UNL     1      52.837   7.069  11.132  0.00  0.00    +0.000 HD
BRANCH   8  18
ATOM     12  C   UNL     1      55.675   6.659  10.107  0.00  0.00    +0.000 C 
ATOM     13  C   UNL     1      54.796   6.188   8.988  0.00  0.00    +0.000 A 
ATOM     14  N   UNL     1      55.256   5.067   8.358  0.00  0.00    +0.000 NA
ATOM     15  C   UNL     1      54.497   4.521   7.385  0.00  0.00    +0.000 A 
ATOM     16  C   UNL     1      53.283   5.042   6.986  0.00  0.00    +0.000 A 
ATOM     17  C   UNL     1      52.824   6.193   7.622  0.00  0.00    +0.000 A 
ATOM     18  C   UNL     1      53.587   6.799   8.634  0.00  0.00    +0.000 A 
ENDBRANCH   8  18
ENDBRANCH   7  10
ENDBRANCH   1   7
BRANCH   4  19
ATOM     19  C   UNL     1      46.528   8.100  13.067  0.00  0.00    +0.000 C 
BRANCH  19  20
ATOM     20  N   UNL     1      46.059   6.784  12.711  0.00  0.00    +0.000 N 
ATOM     21  C   UNL     1      45.034   6.614  11.814  0.00  0.00    +0.000 C 
ATOM     22  O   UNL     1      44.513   7.565  11.236  0.00  0.00    +0.000 OA
ATOM     23  H   UNL     1      46.306   6.023  13.335  0.00  0.00    +0.000 HD
BRANCH  21  24
ATOM     24  C   UNL     1      44.624   5.232  11.530  0.00  0.00    +0.000 A 
ATOM     25  C   UNL     1      43.889   4.525  12.473  0.00  0.00    +0.000 A 
ATOM     26  S   UNL     1      43.454   2.955  11.967  0.00  0.00    +0.000 S 
ATOM     27  C   UNL     1      44.278   3.143  10.492  0.00  0.00    +0.000 A 
ATOM     28  N   UNL     1      44.322   2.133   9.582  0.00  0.00    +0.000 NA
ATOM     29  C   UNL     1      45.005   2.400   8.520  0.00  0.00    +0.000 A 
ATOM     30  N   UNL     1      45.646   3.590   8.283  0.00  0.00    +0.000 N 
ATOM     31  C   UNL     1      45.607   4.647   9.160  0.00  0.00    +0.000 A 
ATOM     32  O   UNL     1      46.157   5.712   8.900  0.00  0.00    +0.000 OA
ATOM     33  C   UNL     1      44.860   4.394  10.377  0.00  0.00    +0.000 A 
ATOM     34  H   UNL     1      46.160   3.739   7.427  0.00  0.00    +0.000 HD
ENDBRANCH  21  24
ENDBRANCH  19  20
ENDBRANCH   4  19
TORSDOF 6
ENDMDL
