MODEL 1
REMARK VINA RESULT:    -6.780      0.000      0.000
REMARK INTER + INTRA:         -10.610
REMARK INTER:                  -9.752
REMARK INTRA:                  -0.857
REMARK UNBOUND:                -0.857
REMARK  Name = 
REMARK  8 active torsions:
REMARK  status: ('A' for Active; 'I' for Inactive)
REMARK    1  A    between atoms: N_1  and  C_2
REMARK    2  A    between atoms: C_2  and  C_3
REMARK    3  A    between atoms: C_2  and  C_7
REMARK    4  A    between atoms: C_3  and  C_4
REMARK    5  A    between atoms: C_4  and  C_5
REMARK    6  A    between atoms: C_10  and  O_11
REMARK    7  A    between atoms: O_11  and  C_12
REMARK    8  A    between atoms: C_12  and  C_13
REMARK                            x       y       z     vdW  Elec       q    Type
REMARK                         _______ _______ _______ _____ _____    ______ ____
ROOT
ATOM      1  C   UNL     1      46.507   5.633  12.708  0.00  0.00    +0.000 A 
ATOM      2  C   UNL     1      46.305   6.255  11.465  0.00  0.00    +0.000 A 
ATOM      3  C   UNL     1      45.499   5.668  10.485  0.00  0.00    +0.000 A 
ATOM      4  C   UNL     1      44.911   4.431  10.726  0.00  0.00    +0.000 A 
ATOM      5  C   UNL     1      45.062   3.827  11.973  0.00  0.00    +0.000 A 
ATOM      6  C   UNL     1      45.872   4.405  12.942  0.00  0.00    +0.000 A 
ENDROOT
BRANCH   1   7
ATOM      7  C   UNL     1      47.407   6.223  13.782  0.00  0.00    +0.000 C 
BRANCH   7   8
ATOM      8  N   UNL     1      47.598   5.320  14.921  0.00  0.00    +0.000 NA
ATOM      9  H   UNL     1      48.590   5.203  15.102  0.00  0.00    +0.000 HD
ATOM     10  H   UNL     1      47.242   4.397  14.677  0.00  0.00    +0.000 HD
ENDBRANCH   7   8
BRANCH   7  11
ATOM     11  C   UNL     1      48.771   6.695  13.227  0.00  0.00    +0.000 C 
BRANCH  11  12
ATOM     12  C   UNL     1      49.001   8.210  13.307  0.00  0.00    +0.000 C 
BRANCH  12  13
ATOM     13  C   UNL     1      49.301   8.786  11.935  0.00  0.00    +0.000 C 
ATOM     14  F   UNL     1      49.173   7.801  11.005  0.00  0.00    +0.000 F 
ENDBRANCH  12  13
ENDBRANCH  11  12
ENDBRANCH   7  11
ENDBRANCH   1   7
BRANCH   4  15
ATOM     15  O   UNL     1      44.219   3.871   9.688  0.00  0.00    +0.000 OA
BRANCH  15  16
ATOM     16  C   UNL     1      44.525   2.485   9.484  0.00  0.00    +0.000 C 
BRANCH  16  17
ATOM     17  C   UNL     1      45.528   2.339   8.374  0.00  0.00    +0.000 A 
ATOM     18  C   UNL     1      45.749   3.416   7.513  0.00  0.00    +0.000 A 
ATOM     19  C   UNL     1      46.694   3.276   6.505  0.00  0.00    +0.000 A 
ATOM     20  C   UNL     1      47.393   2.081   6.391  0.00  0.00    +0.000 A 
ATOM     21  C   UNL     1      47.124   1.069   7.301  0.00  0.00    +0.000 A 
ATOM     22  N   UNL     1      46.215   1.175   8.289  0.00  0.00    +0.000 NA
ENDBRANCH  16  17
ENDBRANCH  15  16
ENDBRANCH   4  15
TORSDOF 8
ENDMDL
MODEL 2
REMARK VINA RESULT:    -6.686      2.358      2.937
REMARK INTER + INTRA:         -10.475
REMARK INTER:                  -9.797
REMARK INTRA:                  -0.678
REMARK UNBOUND:                -0.857
REMARK  Name = 
REMARK  8 active torsions:
REMARK  status: ('A' for Active; 'I' for Inactive)
REMARK    1  A    between atoms: N_1  and  C_2
REMARK    2  A    between atoms: C_2  and  C_3
REMARK    3  A    between atoms: C_2  and  C_7
REMARK    4  A    between atoms: C_3  and  C_4
REMARK    5  A    between atoms: C_4  and  C_5
REMARK    6  A    between atoms: C_10  and  O_11
REMARK    7  A    between atoms: O_11  and  C_12
REMARK    8  A    between atoms: C_12  and  C_13
REMARK                            x       y       z     vdW  Elec       q    Type
REMARK                         _______ _______ _______ _____ _____    ______ ____
ROOT
ATOM      1  C   UNL     1      46.669   4.864  13.344  0.00  0.00    +0.000 A 
ATOM      2  C   UNL     1      46.387   5.815  12.350  0.00  0.00    +0.000 A 
ATOM      3  C   UNL     1      45.573   5.500  11.258  0.00  0.00    +0.000 A 
ATOM      4  C   UNL     1      45.059   4.214  11.129  0.00  0.00    +0.000 A 
ATOM      5  C   UNL     1      45.289   3.276  12.134  0.00  0.00    +0.000 A 
ATOM      6  C   UNL     1      46.108   3.586  13.213  0.00  0.00    +0.000 A 
ENDROOT
BRANCH   1   7
ATOM      7  C   UNL     1      47.580   5.160  14.525  0.00  0.00    +0.000 C 
BRANCH   7   8
ATOM      8  N   UNL     1      47.694   6.593  14.808  0.00  0.00    +0.000 NA
ATOM      9  H   UNL     1      47.467   6.768  15.783  0.00  0.00    +0.000 HD
ATOM     10  H   UNL     1      46.998   7.096  14.260  0.00  0.00    +0.000 HD
ENDBRANCH   7   8
BRANCH   7  11
ATOM     11  C   UNL     1      47.180   4.381  15.799  0.00  0.00    +0.000 C 
BRANCH  11  12
ATOM     12  C   UNL     1      48.266   4.332  16.883  0.00  0.00    +0.000 C 
BRANCH  12  13
ATOM     13  C   UNL     1      48.587   2.898  17.264  0.00  0.00    +0.000 C 
ATOM     14  F   UNL     1      48.713   2.158  16.130  0.00  0.00    +0.000 F 
ENDBRANCH  12  13
ENDBRANCH  11  12
ENDBRANCH   7  11
ENDBRANCH   1   7
BRANCH   4  15
ATOM     15  O   UNL     1      44.355   3.948   9.987  0.00  0.00    +0.000 OA
BRANCH  15  16
ATOM     16  C   UNL     1      44.435   2.576   9.577  0.00  0.00    +0.000 C 
BRANCH  16  17
ATOM     17  C   UNL     1      45.460   2.426   8.488  0.00  0.00    +0.000 A 
ATOM     18  C   UNL     1      45.753   3.523   7.674  0.00  0.00    +0.000 A 
ATOM     19  C   UNL     1      46.717   3.376   6.686  0.00  0.00    +0.000 A 
ATOM     20  C   UNL     1      47.364   2.155   6.544  0.00  0.00    +0.000 A 
ATOM     21  C   UNL     1      47.025   1.123   7.407  0.00  0.00    +0.000 A 
ATOM     22  N   UNL     1      46.096   1.235   8.376  0.00  0.00    +0.000 NA
ENDBRANCH  16  17
ENDBRANCH  15  16
ENDBRANCH   4  15
TORSDOF 8
ENDMDL
MODEL 3
REMARK VINA RESULT:    -6.127      2.671      3.056
REMARK INTER + INTRA:          -9.671
REMARK INTER:                  -8.837
REMARK INTRA:                  -0.834
REMARK UNBOUND:                -0.857
REMARK  Name = 
REMARK  8 active torsions:
REMARK  status: ('A' for Active; 'I' for Inactive)
REMARK    1  A    between atoms: N_1  and  C_2
REMARK    2  A    between atoms: C_2  and  C_3
REMARK    3  A    between atoms: C_2  and  C_7
REMARK    4  A    between atoms: C_3  and  C_4
REMARK    5  A    between atoms: C_4  and  C_5
REMARK    6  A    between atoms: C_10  and  O_11
REMARK    7  A    between atoms: O_11  and  C_12
REMARK    8  A    between atoms: C_12  and  C_13
REMARK                            x       y       z     vdW  Elec       q    Type
REMARK                         _______ _______ _______ _____ _____    ______ ____
ROOT
ATOM      1  C   UNL     1      45.598   7.485  12.493  0.00  0.00    +0.000 A 
ATOM      2  C   UNL     1      46.381   6.374  12.847  0.00  0.00    +0.000 A 
ATOM      3  C   UNL     1      46.093   5.100  12.348  0.00  0.00    +0.000 A 
ATOM      4  C   UNL     1      44.995   4.916  11.515  0.00  0.00    +0.000 A 
ATOM      5  C   UNL     1      44.241   6.018  11.116  0.00  0.00    +0.000 A 
ATOM      6  C   UNL     1      44.520   7.283  11.620  0.00  0.00    +0.000 A 
ENDROOT
BRANCH   1   7
ATOM      7  C   UNL     1      45.857   8.878  13.046  0.00  0.00    +0.000 C 
BRANCH   7   8
ATOM      8  N   UNL     1      46.803   8.877  14.166  0.00  0.00    +0.000 NA
ATOM      9  H   UNL     1      47.699   8.510  13.856  0.00  0.00    +0.000 HD
ATOM     10  H   UNL     1      46.467   8.237  14.883  0.00  0.00    +0.000 HD
ENDBRANCH   7   8
BRANCH   7  11
ATOM     11  C   UNL     1      46.302   9.881  11.957  0.00  0.00    +0.000 C 
BRANCH  11  12
ATOM     12  C   UNL     1      45.383  11.099  11.798  0.00  0.00    +0.000 C 
BRANCH  12  13
ATOM     13  C   UNL     1      44.841  11.189  10.383  0.00  0.00    +0.000 C 
ATOM     14  F   UNL     1      43.995  10.147  10.167  0.00  0.00    +0.000 F 
ENDBRANCH  12  13
ENDBRANCH  11  12
ENDBRANCH   7  11
ENDBRANCH   1   7
BRANCH   4  15
ATOM     15  O   UNL     1      44.715   3.629  11.146  0.00  0.00    +0.000 OA
BRANCH  15  16
ATOM     16  C   UNL     1      44.142   3.526   9.836  0.00  0.00    +0.000 C 
BRANCH  16  17
ATOM     17  C   UNL     1      45.204   3.150   8.840  0.00  0.00    +0.000 A 
ATOM     18  C   UNL     1      45.612   1.818   8.753  0.00  0.00    +0.000 A 
ATOM     19  C   UNL     1      46.578   1.481   7.814  0.00  0.00    +0.000 A 
ATOM     20  C   UNL     1      47.099   2.470   6.989  0.00  0.00    +0.000 A 
ATOM     21  C   UNL     1      46.623   3.766   7.132  0.00  0.00    +0.000 A 
ATOM     22  N   UNL     1      45.686   4.123   8.031  0.00  0.00    +0.000 NA
ENDBRANCH  16  17
ENDBRANCH  15  16
ENDBRANCH   4  15
TORSDOF 8
ENDMDL
MODEL 4
REMARK VINA RESULT:    -6.118      3.468      7.273
REMARK INTER + INTRA:          -9.658
REMARK INTER:                  -9.056
REMARK INTRA:                  -0.603
REMARK UNBOUND:                -0.857
REMARK  Name = 
REMARK  8 active torsions:
REMARK  status: ('A' for Active; 'I' for Inactive)
REMARK    1  A    between atoms: N_1  and  C_2
REMARK    2  A    between atoms: C_2  and  C_3
REMARK    3  A    between atoms: C_2  and  C_7
REMARK    4  A    between atoms: C_3  and  C_4
REMARK    5  A    between atoms: C_4  and  C_5
REMARK    6  A    between atoms: C_10  and  O_11
REMARK    7  A    between atoms: O_11  and  C_12
REMARK    8  A    between atoms: C_12  and  C_13
REMARK                            x       y       z     vdW  Elec       q    Type
REMARK                         _______ _______ _______ _____ _____    ______ ____
ROOT
ATOM      1  C   UNL     1      44.983   3.958  11.138  0.00  0.00    +0.000 A 
ATOM      2  C   UNL     1      45.322   3.091  12.190  0.00  0.00    +0.000 A 
ATOM      3  C   UNL     1      46.139   3.515  13.242  0.00  0.00    +0.000 A 
ATOM      4  C   UNL     1      46.656   4.806  13.238  0.00  0.00    +0.000 A 
ATOM      5  C   UNL     1      46.286   5.692  12.228  0.00  0.00    +0.000 A 
ATOM      6  C   UNL     1      45.484   5.268  11.176  0.00  0.00    +0.000 A 
ENDROOT
BRANCH   1   7
ATOM      7  C   UNL     1      44.130   3.521   9.959  0.00  0.00    +0.000 C 
BRANCH   7   8
ATOM      8  N   UNL     1      43.759   4.636   9.083  0.00  0.00    +0.000 NA
ATOM      9  H   UNL     1      44.517   5.311   9.048  0.00  0.00    +0.000 HD
ATOM     10  H   UNL     1      42.962   5.125   9.487  0.00  0.00    +0.000 HD
ENDBRANCH   7   8
BRANCH   7  11
ATOM     11  C   UNL     1      44.777   2.378   9.143  0.00  0.00    +0.000 C 
BRANCH  11  12
ATOM     12  C   UNL     1      45.778   2.844   8.078  0.00  0.00    +0.000 C 
BRANCH  12  13
ATOM     13  C   UNL     1      46.667   1.697   7.631  0.00  0.00    +0.000 C 
ATOM     14  F   UNL     1      47.901   2.185   7.333  0.00  0.00    +0.000 F 
ENDBRANCH  12  13
ENDBRANCH  11  12
ENDBRANCH   7  11
ENDBRANCH   1   7
BRANCH   4  15
ATOM     15  O   UNL     1      47.526   5.120  14.245  0.00  0.00    +0.000 OA
BRANCH  15  16
ATOM     16  C   UNL     1      47.111   4.632  15.528  0.00  0.00    +0.000 C 
BRANCH  16  17
ATOM     17  C   UNL     1      48.257   3.937  16.208  0.00  0.00    +0.000 A 
ATOM     18  C   UNL     1      49.012   4.638  17.152  0.00  0.00    +0.000 A 
ATOM     19  C   UNL     1      50.054   3.977  17.788  0.00  0.00    +0.000 A 
ATOM     20  C   UNL     1      50.307   2.647  17.477  0.00  0.00    +0.000 A 
ATOM     21  C   UNL     1      49.497   2.023  16.540  0.00  0.00    +0.000 A 
ATOM     22  N   UNL     1      48.477   2.636  15.907  0.00  0.00    +0.000 NA
ENDBRANCH  16  17
ENDBRANCH  15  16
ENDBRANCH   4  15
TORSDOF 8
ENDMDL
MODEL 5
REMARK VINA RESULT:    -5.870      3.869      7.983
REMARK INTER + INTRA:          -9.302
REMARK INTER:                  -8.653
REMARK INTRA:                  -0.649
REMARK UNBOUND:                -0.857
REMARK  Name = 
REMARK  8 active torsions:
REMARK  status: ('A' for Active; 'I' for Inactive)
REMARK    1  A    between atoms: N_1  and  C_2
REMARK    2  A    between atoms: C_2  and  C_3
REMARK    3  A    between atoms: C_2  and  C_7
REMARK    4  A    between atoms: C_3  and  C_4
REMARK    5  A    between atoms: C_4  and  C_5
REMARK    6  A    between atoms: C_10  and  O_11
REMARK    7  A    between atoms: O_11  and  C_12
REMARK    8  A    between atoms: C_12  and  C_13
REMARK                            x       y       z     vdW  Elec       q    Type
REMARK                         _______ _______ _______ _____ _____    ______ ____
ROOT
ATOM      1  C   UNL     1      45.278   4.629  11.470  0.00  0.00    +0.000 A 
ATOM      2  C   UNL     1      45.465   3.593  12.400  0.00  0.00    +0.000 A 
ATOM      3  C   UNL     1      46.278   3.768  13.524  0.00  0.00    +0.000 A 
ATOM      4  C   UNL     1      46.944   4.974  13.712  0.00  0.00    +0.000 A 
ATOM      5  C   UNL     1      46.729   6.026  12.824  0.00  0.00    +0.000 A 
ATOM      6  C   UNL     1      45.929   5.849  11.701  0.00  0.00    +0.000 A 
ENDROOT
BRANCH   1   7
ATOM      7  C   UNL     1      44.433   4.462  10.218  0.00  0.00    +0.000 C 
BRANCH   7   8
ATOM      8  N   UNL     1      43.311   5.403  10.161  0.00  0.00    +0.000 NA
ATOM      9  H   UNL     1      43.644   6.314   9.860  0.00  0.00    +0.000 HD
ATOM     10  H   UNL     1      42.939   5.534  11.101  0.00  0.00    +0.000 HD
ENDBRANCH   7   8
BRANCH   7  11
ATOM     11  C   UNL     1      45.267   4.528   8.918  0.00  0.00    +0.000 C 
BRANCH  11  12
ATOM     12  C   UNL     1      45.140   3.294   8.015  0.00  0.00    +0.000 C 
BRANCH  12  13
ATOM     13  C   UNL     1      45.559   2.036   8.754  0.00  0.00    +0.000 C 
ATOM     14  F   UNL     1      44.450   1.301   9.037  0.00  0.00    +0.000 F 
ENDBRANCH  12  13
ENDBRANCH  11  12
ENDBRANCH   7  11
ENDBRANCH   1   7
BRANCH   4  15
ATOM     15  O   UNL     1      47.801   5.041  14.777  0.00  0.00    +0.000 OA
BRANCH  15  16
ATOM     16  C   UNL     1      47.428   4.178  15.860  0.00  0.00    +0.000 C 
BRANCH  16  17
ATOM     17  C   UNL     1      48.072   4.648  17.134  0.00  0.00    +0.000 A 
ATOM     18  C   UNL     1      48.184   3.760  18.206  0.00  0.00    +0.000 A 
ATOM     19  C   UNL     1      48.801   4.201  19.370  0.00  0.00    +0.000 A 
ATOM     20  C   UNL     1      49.293   5.499  19.429  0.00  0.00    +0.000 A 
ATOM     21  C   UNL     1      49.155   6.308  18.311  0.00  0.00    +0.000 A 
ATOM     22  N   UNL     1      48.564   5.909  17.168  0.00  0.00    +0.000 NA
ENDBRANCH  16  17
ENDBRANCH  15  16
ENDBRANCH   4  15
TORSDOF 8
ENDMDL
MODEL 6
REMARK VINA RESULT:    -5.782      2.778      6.908
REMARK INTER + INTRA:          -9.175
REMARK INTER:                  -8.695
REMARK INTRA:                  -0.479
REMARK UNBOUND:                -0.857
REMARK  Name = 
REMARK  8 active torsions:
REMARK  status: ('A' for Active; 'I' for Inactive)
REMARK    1  A    between atoms: N_1  and  C_2
REMARK    2  A    between atoms: C_2  and  C_3
REMARK    3  A    between atoms: C_2  and  C_7
REMARK    4  A    between atoms: C_3  and  C_4
REMARK    5  A    between atoms: C_4  and  C_5
REMARK    6  A    between atoms: C_10  and  O_11
REMARK    7  A    between atoms: O_11  and  C_12
REMARK    8  A    between atoms: C_12  and  C_13
REMARK                            x       y       z     vdW  Elec       q    Type
REMARK                         _______ _______ _______ _____ _____    ______ ____
ROOT
ATOM      1  C   UNL     1      45.711   3.702   7.918  0.00  0.00    +0.000 A 
ATOM      2  C   UNL     1      44.790   2.953   8.668  0.00  0.00    +0.000 A 
ATOM      3  C   UNL     1      44.274   3.438   9.873  0.00  0.00    +0.000 A 
ATOM      4  C   UNL     1      44.701   4.669  10.361  0.00  0.00    +0.000 A 
ATOM      5  C   UNL     1      45.575   5.445   9.602  0.00  0.00    +0.000 A 
ATOM      6  C   UNL     1      46.097   4.957   8.410  0.00  0.00    +0.000 A 
ENDROOT
BRANCH   1   7
ATOM      7  C   UNL     1      46.322   3.190   6.624  0.00  0.00    +0.000 C 
BRANCH   7   8
ATOM      8  N   UNL     1      46.676   4.269   5.697  0.00  0.00    +0.000 NA
ATOM      9  H   UNL     1      46.260   4.089   4.788  0.00  0.00    +0.000 HD
ATOM     10  H   UNL     1      47.685   4.266   5.553  0.00  0.00    +0.000 HD
ENDBRANCH   7   8
BRANCH   7  11
ATOM     11  C   UNL     1      47.532   2.257   6.861  0.00  0.00    +0.000 C 
BRANCH  11  12
ATOM     12  C   UNL     1      47.268   0.779   6.542  0.00  0.00    +0.000 C 
BRANCH  12  13
ATOM     13  C   UNL     1      46.715   0.052   7.755  0.00  0.00    +0.000 C 
ATOM     14  F   UNL     1      46.451  -1.238   7.414  0.00  0.00    +0.000 F 
ENDBRANCH  12  13
ENDBRANCH  11  12
ENDBRANCH   7  11
ENDBRANCH   1   7
BRANCH   4  15
ATOM     15  O   UNL     1      44.232   5.035  11.593  0.00  0.00    +0.000 OA
BRANCH  15  16
ATOM     16  C   UNL     1      44.637   4.146  12.642  0.00  0.00    +0.000 C 
BRANCH  16  17
ATOM     17  C   UNL     1      45.805   4.731  13.387  0.00  0.00    +0.000 A 
ATOM     18  C   UNL     1      46.374   5.922  12.931  0.00  0.00    +0.000 A 
ATOM     19  C   UNL     1      47.437   6.463  13.641  0.00  0.00    +0.000 A 
ATOM     20  C   UNL     1      47.894   5.812  14.781  0.00  0.00    +0.000 A 
ATOM     21  C   UNL     1      47.259   4.643  15.173  0.00  0.00    +0.000 A 
ATOM     22  N   UNL     1      46.224   4.095  14.507  0.00  0.00    +0.000 NA
ENDBRANCH  16  17
ENDBRANCH  15  16
ENDBRANCH   4  15
TORSDOF 8
ENDMDL
MODEL 7
REMARK VINA RESULT:    -5.754      2.621      6.907
REMARK INTER + INTRA:          -9.135
REMARK INTER:                  -8.469
REMARK INTRA:                  -0.666
REMARK UNBOUND:                -0.857
REMARK  Name = 
REMARK  8 active torsions:
REMARK  status: ('A' for Active; 'I' for Inactive)
REMARK    1  A    between atoms: N_1  and  C_2
REMARK    2  A    between atoms: C_2  and  C_3
REMARK    3  A    between atoms: C_2  and  C_7
REMARK    4  A    between atoms: C_3  and  C_4
REMARK    5  A    between atoms: C_4  and  C_5
REMARK    6  A    between atoms: C_10  and  O_11
REMARK    7  A    between atoms: O_11  and  C_12
REMARK    8  A    between atoms: C_12  and  C_13
REMARK                            x       y       z     vdW  Elec       q    Type
REMARK                         _______ _______ _______ _____ _____    ______ ____
ROOT
ATOM      1  C   UNL     1      44.870   3.730  10.221  0.00  0.00    +0.000 A 
ATOM      2  C   UNL     1      44.980   3.251  11.537  0.00  0.00    +0.000 A 
ATOM      3  C   UNL     1      45.346   4.098  12.587  0.00  0.00    +0.000 A 
ATOM      4  C   UNL     1      45.641   5.432  12.326  0.00  0.00    +0.000 A 
ATOM      5  C   UNL     1      45.486   5.932  11.035  0.00  0.00    +0.000 A 
ATOM      6  C   UNL     1      45.134   5.088   9.989  0.00  0.00    +0.000 A 
ENDROOT
BRANCH   1   7
ATOM      7  C   UNL     1      44.512   2.830   9.049  0.00  0.00    +0.000 C 
BRANCH   7   8
ATOM      8  N   UNL     1      44.155   3.584   7.843  0.00  0.00    +0.000 NA
ATOM      9  H   UNL     1      43.590   3.002   7.232  0.00  0.00    +0.000 HD
ATOM     10  H   UNL     1      45.005   3.800   7.324  0.00  0.00    +0.000 HD
ENDBRANCH   7   8
BRANCH   7  11
ATOM     11  C   UNL     1      45.611   1.789   8.737  0.00  0.00    +0.000 C 
BRANCH  11  12
ATOM     12  C   UNL     1      46.604   2.217   7.649  0.00  0.00    +0.000 C 
BRANCH  12  13
ATOM     13  C   UNL     1      47.252   1.008   6.999  0.00  0.00    +0.000 C 
ATOM     14  F   UNL     1      46.927  -0.103   7.712  0.00  0.00    +0.000 F 
ENDBRANCH  12  13
ENDBRANCH  11  12
ENDBRANCH   7  11
ENDBRANCH   1   7
BRANCH   4  15
ATOM     15  O   UNL     1      46.088   6.177  13.382  0.00  0.00    +0.000 OA
BRANCH  15  16
ATOM     16  C   UNL     1      46.377   7.538  13.035  0.00  0.00    +0.000 C 
BRANCH  16  17
ATOM     17  C   UNL     1      47.864   7.750  12.981  0.00  0.00    +0.000 A 
ATOM     18  C   UNL     1      48.487   7.885  11.739  0.00  0.00    +0.000 A 
ATOM     19  C   UNL     1      49.858   8.101  11.705  0.00  0.00    +0.000 A 
ATOM     20  C   UNL     1      50.562   8.186  12.899  0.00  0.00    +0.000 A 
ATOM     21  C   UNL     1      49.861   8.058  14.089  0.00  0.00    +0.000 A 
ATOM     22  N   UNL     1      48.532   7.850  14.155  0.00  0.00    +0.000 NA
ENDBRANCH  16  17
ENDBRANCH  15  16
ENDBRANCH   4  15
TORSDOF 8
ENDMDL
MODEL 8
REMARK VINA RESULT:    -5.529      2.692      7.204
REMARK INTER + INTRA:          -8.810
REMARK INTER:                  -8.148
REMARK INTRA:                  -0.662
REMARK UNBOUND:                -0.857
REMARK  Name = 
REMARK  8 active torsions:
REMARK  status: ('A' for Active; 'I' for Inactive)
REMARK    1  A    between atoms: N_1  and  C_2
REMARK    2  A    between atoms: C_2  and  C_3
REMARK    3  A    between atoms: C_2  and  C_7
REMARK    4  A    between atoms: C_3  and  C_4
REMARK    5  A    between atoms: C_4  and  C_5
REMARK    6  A    between atoms: C_10  and  O_11
REMARK    7  A    between atoms: O_11  and  C_12
REMARK    8  A    between atoms: C_12  and  C_13
REMARK                            x       y       z     vdW  Elec       q    Type
REMARK                         _______ _______ _______ _____ _____    ______ ____
ROOT
ATOM      1  C   UNL     1      45.011   4.047  11.568  0.00  0.00    +0.000 A 
ATOM      2  C   UNL     1      45.434   4.083  12.907  0.00  0.00    +0.000 A 
ATOM      3  C   UNL     1      46.101   5.197  13.425  0.00  0.00    +0.000 A 
ATOM      4  C   UNL     1      46.384   6.278  12.596  0.00  0.00    +0.000 A 
ATOM      5  C   UNL     1      45.925   6.276  11.280  0.00  0.00    +0.000 A 
ATOM      6  C   UNL     1      45.272   5.164  10.763  0.00  0.00    +0.000 A 
ENDROOT
BRANCH   1   7
ATOM      7  C   UNL     1      44.318   2.837  10.962  0.00  0.00    +0.000 C 
BRANCH   7   8
ATOM      8  N   UNL     1      42.945   2.667  11.448  0.00  0.00    +0.000 NA
ATOM      9  H   UNL     1      42.764   1.682  11.622  0.00  0.00    +0.000 HD
ATOM     10  H   UNL     1      42.296   2.949  10.715  0.00  0.00    +0.000 HD
ENDBRANCH   7   8
BRANCH   7  11
ATOM     11  C   UNL     1      44.352   2.840   9.416  0.00  0.00    +0.000 C 
BRANCH  11  12
ATOM     12  C   UNL     1      45.368   1.869   8.800  0.00  0.00    +0.000 C 
BRANCH  12  13
ATOM     13  C   UNL     1      46.274   2.585   7.815  0.00  0.00    +0.000 C 
ATOM     14  F   UNL     1      45.604   3.646   7.290  0.00  0.00    +0.000 F 
ENDBRANCH  12  13
ENDBRANCH  11  12
ENDBRANCH   7  11
ENDBRANCH   1   7
BRANCH   4  15
ATOM     15  O   UNL     1      47.126   7.290  13.142  0.00  0.00    +0.000 OA
BRANCH  15  16
ATOM     16  C   UNL     1      48.513   7.233  12.782  0.00  0.00    +0.000 C 
BRANCH  16  17
ATOM     17  C   UNL     1      49.364   7.231  14.022  0.00  0.00    +0.000 A 
ATOM     18  C   UNL     1      50.524   8.008  14.051  0.00  0.00    +0.000 A 
ATOM     19  C   UNL     1      51.289   8.014  15.210  0.00  0.00    +0.000 A 
ATOM     20  C   UNL     1      50.875   7.260  16.301  0.00  0.00    +0.000 A 
ATOM     21  C   UNL     1      49.700   6.530  16.191  0.00  0.00    +0.000 A 
ATOM     22  N   UNL     1      48.936   6.506  15.083  0.00  0.00    +0.000 NA
ENDBRANCH  16  17
ENDBRANCH  15  16
ENDBRANCH   4  15
TORSDOF 8
ENDMDL
MODEL 9
REMARK VINA RESULT:    -5.469      2.879      6.906
REMARK INTER + INTRA:          -8.725
REMARK INTER:                  -8.054
REMARK INTRA:                  -0.671
REMARK UNBOUND:                -0.857
REMARK  Name = 
REMARK  8 active torsions:
REMARK  status: ('A' for Active; 'I' for Inactive)
REMARK    1  A    between atoms: N_1  and  C_2
REMARK    2  A    between atoms: C_2  and  C_3
REMARK    3  A    between atoms: C_2  and  C_7
REMARK    4  A    between atoms: C_3  and  C_4
REMARK    5  A    between atoms: C_4  and  C_5
REMARK    6  A    between atoms: C_10  and  O_11
REMARK    7  A    between atoms: O_11  and  C_12
REMARK    8  A    between atoms: C_12  and  C_13
REMARK                            x       y       z     vdW  Elec       q    Type
REMARK                         _______ _______ _______ _____ _____    ______ ____
ROOT
ATOM      1  C   UNL     1      44.964   4.186  11.257  0.00  0.00    +0.000 A 
ATOM      2  C   UNL     1      45.146   4.266  12.647  0.00  0.00    +0.000 A 
ATOM      3  C   UNL     1      45.436   5.483  13.270  0.00  0.00    +0.000 A 
ATOM      4  C   UNL     1      45.583   6.633  12.502  0.00  0.00    +0.000 A 
ATOM      5  C   UNL     1      45.355   6.578  11.128  0.00  0.00    +0.000 A 
ATOM      6  C   UNL     1      45.078   5.366  10.508  0.00  0.00    +0.000 A 
ENDROOT
BRANCH   1   7
ATOM      7  C   UNL     1      44.685   2.874  10.542  0.00  0.00    +0.000 C 
BRANCH   7   8
ATOM      8  N   UNL     1      43.497   2.187  11.059  0.00  0.00    +0.000 NA
ATOM      9  H   UNL     1      43.776   1.333  11.533  0.00  0.00    +0.000 HD
ATOM     10  H   UNL     1      42.913   1.899  10.276  0.00  0.00    +0.000 HD
ENDBRANCH   7   8
BRANCH   7  11
ATOM     11  C   UNL     1      44.596   3.036   9.007  0.00  0.00    +0.000 C 
BRANCH  11  12
ATOM     12  C   UNL     1      45.801   2.479   8.237  0.00  0.00    +0.000 C 
BRANCH  12  13
ATOM     13  C   UNL     1      46.305   3.485   7.217  0.00  0.00    +0.000 C 
ATOM     14  F   UNL     1      46.176   2.953   5.972  0.00  0.00    +0.000 F 
ENDBRANCH  12  13
ENDBRANCH  11  12
ENDBRANCH   7  11
ENDBRANCH   1   7
BRANCH   4  15
ATOM     15  O   UNL     1      45.966   7.767  13.164  0.00  0.00    +0.000 OA
BRANCH  15  16
ATOM     16  C   UNL     1      47.388   7.900  13.288  0.00  0.00    +0.000 C 
BRANCH  16  17
ATOM     17  C   UNL     1      47.871   9.050  12.448  0.00  0.00    +0.000 A 
ATOM     18  C   UNL     1      49.201   9.070  12.024  0.00  0.00    +0.000 A 
ATOM     19  C   UNL     1      49.628  10.127  11.230  0.00  0.00    +0.000 A 
ATOM     20  C   UNL     1      48.723  11.120  10.877  0.00  0.00    +0.000 A 
ATOM     21  C   UNL     1      47.415  11.012  11.328  0.00  0.00    +0.000 A 
ATOM     22  N   UNL     1      46.971   9.998  12.096  0.00  0.00    +0.000 NA
ENDBRANCH  16  17
ENDBRANCH  15  16
ENDBRANCH   4  15
TORSDOF 8
ENDMDL
