MODEL 1
REMARK VINA RESULT:    -7.563      0.000      0.000
REMARK INTER + INTRA:         -11.207
REMARK INTER:                 -10.437
REMARK INTRA:                  -0.769
REMARK UNBOUND:                -0.769
REMARK  Name = 
REMARK  7 active torsions:
REMARK  status: ('A' for Active; 'I' for Inactive)
REMARK    1  A    between atoms: N_1  and  C_2
REMARK    2  A    between atoms: C_2  and  C_3
REMARK    3  A    between atoms: C_6  and  C_7
REMARK    4  A    between atoms: C_7  and  C_8
REMARK    5  A    between atoms: C_8  and  N_9
REMARK    6  A    between atoms: N_9  and  C_10
REMARK    7  A    between atoms: C_13  and  C_14
REMARK                            x       y       z     vdW  Elec       q    Type
REMARK                         _______ _______ _______ _____ _____    ______ ____
ROOT
ATOM      1  N   UNL     1      43.717   3.960  10.430  0.00  0.00    +0.000 N 
ATOM      2  H   UNL     1      43.923   4.900  10.768  0.00  0.00    +0.000 HD
ENDROOT
BRANCH   1   3
ATOM      3  C   UNL     1      44.612   3.561   9.425  0.00  0.00    +0.000 A 
ATOM      4  C   UNL     1      45.240   4.431   8.544  0.00  0.00    +0.000 A 
ATOM      5  N   UNL     1      46.138   4.074   7.599  0.00  0.00    +0.000 NA
ATOM      6  C   UNL     1      46.445   2.759   7.573  0.00  0.00    +0.000 A 
ATOM      7  N   UNL     1      45.933   1.812   8.383  0.00  0.00    +0.000 NA
ATOM      8  C   UNL     1      45.043   2.248   9.299  0.00  0.00    +0.000 A 
BRANCH   6   9
ATOM      9  C   UNL     1      47.480   2.334   6.558  0.00  0.00    +0.000 C 
ATOM     10  N   UNL     1      47.458   3.005   5.358  0.00  0.00    +0.000 N 
ATOM     11  O   UNL     1      48.314   1.450   6.755  0.00  0.00    +0.000 OA
ATOM     12  H   UNL     1      46.786   3.750   5.206  0.00  0.00    +0.000 HD
ATOM     13  H   UNL     1      48.145   2.778   4.654  0.00  0.00    +0.000 HD
ENDBRANCH   6   9
ENDBRANCH   1   3
BRANCH   1  14
ATOM     14  C   UNL     1      43.535   2.991  11.529  0.00  0.00    +0.000 C 
BRANCH  14  15
ATOM     15  C   UNL     1      43.459   3.705  12.869  0.00  0.00    +0.000 C 
BRANCH  15  19
ATOM     16  C   UNL     1      46.812   6.230  13.316  0.00  0.00    +0.000 A 
ATOM     17  C   UNL     1      46.802   4.914  13.731  0.00  0.00    +0.000 A 
ATOM     18  N   UNL     1      45.731   4.098  13.633  0.00  0.00    +0.000 NA
ATOM     19  C   UNL     1      44.622   4.630  13.088  0.00  0.00    +0.000 A 
ATOM     20  N   UNL     1      44.507   5.912  12.694  0.00  0.00    +0.000 NA
ATOM     21  C   UNL     1      45.609   6.682  12.819  0.00  0.00    +0.000 A 
BRANCH  16  22
ATOM     22  C   UNL     1      48.028   7.091  13.401  0.00  0.00    +0.000 C 
BRANCH  22  23
ATOM     23  N   UNL     1      49.200   6.418  12.853  0.00  0.00    +0.000 NA
ATOM     24  H   UNL     1      49.839   6.180  13.608  0.00  0.00    +0.000 HD
ATOM     25  H   UNL     1      49.708   7.061  12.244  0.00  0.00    +0.000 HD
ENDBRANCH  22  23
ENDBRANCH  16  22
ENDBRANCH  15  19
ENDBRANCH  14  15
ENDBRANCH   1  14
TORSDOF 7
ENDMDL
MODEL 2
REMARK VINA RESULT:    -7.233      2.856      6.693
REMARK INTER + INTRA:         -10.751
REMARK INTER:                  -9.897
REMARK INTRA:                  -0.854
REMARK UNBOUND:                -0.769
REMARK  Name = 
REMARK  7 active torsions:
REMARK  status: ('A' for Active; 'I' for Inactive)
REMARK    1  A    between atoms: N_1  and  C_2
REMARK    2  A    between atoms: C_2  and  C_3
REMARK    3  A    between atoms: C_6  and  C_7
REMARK    4  A    between atoms: C_7  and  C_8
REMARK    5  A    between atoms: C_8  and  N_9
REMARK    6  A    between atoms: N_9  and  C_10
REMARK    7  A    between atoms: C_13  and  C_14
REMARK                            x       y       z     vdW  Elec       q    Type
REMARK                         _______ _______ _______ _____ _____    ______ ____
ROOT
ATOM      1  N   UNL     1      45.875   5.488  11.151  0.00  0.00    +0.000 N 
ATOM      2  H   UNL     1      46.380   6.215  10.646  0.00  0.00    +0.000 HD
ENDROOT
BRANCH   1   3
ATOM      3  C   UNL     1      46.425   5.259  12.422  0.00  0.00    +0.000 A 
ATOM      4  C   UNL     1      47.418   6.039  12.998  0.00  0.00    +0.000 A 
ATOM      5  N   UNL     1      47.931   5.863  14.236  0.00  0.00    +0.000 NA
ATOM      6  C   UNL     1      47.374   4.858  14.946  0.00  0.00    +0.000 A 
ATOM      7  N   UNL     1      46.389   4.043  14.522  0.00  0.00    +0.000 NA
ATOM      8  C   UNL     1      45.931   4.282  13.275  0.00  0.00    +0.000 A 
BRANCH   6   9
ATOM      9  C   UNL     1      47.893   4.665  16.351  0.00  0.00    +0.000 C 
ATOM     10  N   UNL     1      46.979   4.845  17.362  0.00  0.00    +0.000 N 
ATOM     11  O   UNL     1      49.056   4.358  16.618  0.00  0.00    +0.000 OA
ATOM     12  H   UNL     1      46.016   5.074  17.139  0.00  0.00    +0.000 HD
ATOM     13  H   UNL     1      47.267   4.703  18.319  0.00  0.00    +0.000 HD
ENDBRANCH   6   9
ENDBRANCH   1   3
BRANCH   1  14
ATOM     14  C   UNL     1      44.413   5.694  11.128  0.00  0.00    +0.000 C 
BRANCH  14  15
ATOM     15  C   UNL     1      43.744   4.709  10.183  0.00  0.00    +0.000 C 
BRANCH  15  19
ATOM     16  C   UNL     1      46.389   2.530   7.718  0.00  0.00    +0.000 A 
ATOM     17  C   UNL     1      45.692   1.957   8.763  0.00  0.00    +0.000 A 
ATOM     18  N   UNL     1      44.870   2.640   9.587  0.00  0.00    +0.000 NA
ATOM     19  C   UNL     1      44.740   3.958   9.346  0.00  0.00    +0.000 A 
ATOM     20  N   UNL     1      45.408   4.626   8.386  0.00  0.00    +0.000 NA
ATOM     21  C   UNL     1      46.218   3.892   7.595  0.00  0.00    +0.000 A 
BRANCH  16  22
ATOM     22  C   UNL     1      47.258   1.736   6.800  0.00  0.00    +0.000 C 
BRANCH  22  23
ATOM     23  N   UNL     1      48.454   2.479   6.419  0.00  0.00    +0.000 NA
ATOM     24  H   UNL     1      48.645   2.331   5.431  0.00  0.00    +0.000 HD
ATOM     25  H   UNL     1      49.260   2.107   6.922  0.00  0.00    +0.000 HD
ENDBRANCH  22  23
ENDBRANCH  16  22
ENDBRANCH  15  19
ENDBRANCH  14  15
ENDBRANCH   1  14
TORSDOF 7
ENDMDL
MODEL 3
REMARK VINA RESULT:    -6.951      2.643      6.570
REMARK INTER + INTRA:         -10.361
REMARK INTER:                  -9.679
REMARK INTRA:                  -0.682
REMARK UNBOUND:                -0.769
REMARK  Name = 
REMARK  7 active torsions:
REMARK  status: ('A' for Active; 'I' for Inactive)
REMARK    1  A    between atoms: N_1  and  C_2
REMARK    2  A    between atoms: C_2  and  C_3
REMARK    3  A    between atoms: C_6  and  C_7
REMARK    4  A    between atoms: C_7  and  C_8
REMARK    5  A    between atoms: C_8  and  N_9
REMARK    6  A    between atoms: N_9  and  C_10
REMARK    7  A    between atoms: C_13  and  C_14
REMARK                            x       y       z     vdW  Elec       q    Type
REMARK                         _______ _______ _______ _____ _____    ______ ____
ROOT
ATOM      1  N   UNL     1      45.237   3.499  11.793  0.00  0.00    +0.000 N 
ATOM      2  H   UNL     1      45.725   3.190  10.953  0.00  0.00    +0.000 HD
ENDROOT
BRANCH   1   3
ATOM      3  C   UNL     1      46.024   4.372  12.561  0.00  0.00    +0.000 A 
ATOM      4  C   UNL     1      46.721   3.999  13.702  0.00  0.00    +0.000 A 
ATOM      5  N   UNL     1      47.519   4.811  14.430  0.00  0.00    +0.000 NA
ATOM      6  C   UNL     1      47.645   6.067  13.949  0.00  0.00    +0.000 A 
ATOM      7  N   UNL     1      47.049   6.552  12.843  0.00  0.00    +0.000 NA
ATOM      8  C   UNL     1      46.268   5.681  12.171  0.00  0.00    +0.000 A 
BRANCH   6   9
ATOM      9  C   UNL     1      48.567   6.987  14.715  0.00  0.00    +0.000 C 
ATOM     10  N   UNL     1      47.976   8.084  15.297  0.00  0.00    +0.000 N 
ATOM     11  O   UNL     1      49.777   6.799  14.840  0.00  0.00    +0.000 OA
ATOM     12  H   UNL     1      46.975   8.224  15.213  0.00  0.00    +0.000 HD
ATOM     13  H   UNL     1      48.542   8.717  15.842  0.00  0.00    +0.000 HD
ENDBRANCH   6   9
ENDBRANCH   1   3
BRANCH   1  14
ATOM     14  C   UNL     1      43.868   3.972  11.509  0.00  0.00    +0.000 C 
BRANCH  14  15
ATOM     15  C   UNL     1      43.733   4.389  10.053  0.00  0.00    +0.000 C 
BRANCH  15  19
ATOM     16  C   UNL     1      46.525   2.311   7.664  0.00  0.00    +0.000 A 
ATOM     17  C   UNL     1      46.375   3.682   7.623  0.00  0.00    +0.000 A 
ATOM     18  N   UNL     1      45.465   4.365   8.349  0.00  0.00    +0.000 NA
ATOM     19  C   UNL     1      44.673   3.635   9.156  0.00  0.00    +0.000 A 
ATOM     20  N   UNL     1      44.702   2.291   9.239  0.00  0.00    +0.000 NA
ATOM     21  C   UNL     1      45.630   1.662   8.488  0.00  0.00    +0.000 A 
BRANCH  16  22
ATOM     22  C   UNL     1      47.571   1.593   6.878  0.00  0.00    +0.000 C 
BRANCH  22  23
ATOM     23  N   UNL     1      48.595   2.508   6.388  0.00  0.00    +0.000 NA
ATOM     24  H   UNL     1      48.620   3.337   6.978  0.00  0.00    +0.000 HD
ATOM     25  H   UNL     1      48.343   2.833   5.455  0.00  0.00    +0.000 HD
ENDBRANCH  22  23
ENDBRANCH  16  22
ENDBRANCH  15  19
ENDBRANCH  14  15
ENDBRANCH   1  14
TORSDOF 7
ENDMDL
MODEL 4
REMARK VINA RESULT:    -6.336      2.886      6.569
REMARK INTER + INTRA:          -9.513
REMARK INTER:                  -8.888
REMARK INTRA:                  -0.625
REMARK UNBOUND:                -0.769
REMARK  Name = 
REMARK  7 active torsions:
REMARK  status: ('A' for Active; 'I' for Inactive)
REMARK    1  A    between atoms: N_1  and  C_2
REMARK    2  A    between atoms: C_2  and  C_3
REMARK    3  A    between atoms: C_6  and  C_7
REMARK    4  A    between atoms: C_7  and  C_8
REMARK    5  A    between atoms: C_8  and  N_9
REMARK    6  A    between atoms: N_9  and  C_10
REMARK    7  A    between atoms: C_13  and  C_14
REMARK                            x       y       z     vdW  Elec       q    Type
REMARK                         _______ _______ _______ _____ _____    ______ ____
ROOT
ATOM      1  N   UNL     1      45.279   4.011  12.016  0.00  0.00    +0.000 N 
ATOM      2  H   UNL     1      46.065   3.512  11.600  0.00  0.00    +0.000 HD
ENDROOT
BRANCH   1   3
ATOM      3  C   UNL     1      45.541   5.384  12.140  0.00  0.00    +0.000 A 
ATOM      4  C   UNL     1      46.670   6.015  11.636  0.00  0.00    +0.000 A 
ATOM      5  N   UNL     1      46.922   7.341  11.705  0.00  0.00    +0.000 NA
ATOM      6  C   UNL     1      45.950   8.075  12.289  0.00  0.00    +0.000 A 
ATOM      7  N   UNL     1      44.797   7.598  12.796  0.00  0.00    +0.000 NA
ATOM      8  C   UNL     1      44.620   6.265  12.689  0.00  0.00    +0.000 A 
BRANCH   6   9
ATOM      9  C   UNL     1      46.180   9.568  12.341  0.00  0.00    +0.000 C 
ATOM     10  N   UNL     1      45.050  10.350  12.399  0.00  0.00    +0.000 N 
ATOM     11  O   UNL     1      47.294  10.092  12.341  0.00  0.00    +0.000 OA
ATOM     12  H   UNL     1      44.134   9.915  12.424  0.00  0.00    +0.000 HD
ATOM     13  H   UNL     1      45.148  11.352  12.461  0.00  0.00    +0.000 HD
ENDBRANCH   6   9
ENDBRANCH   1   3
BRANCH   1  14
ATOM     14  C   UNL     1      43.992   3.673  11.375  0.00  0.00    +0.000 C 
BRANCH  14  15
ATOM     15  C   UNL     1      43.926   4.242   9.966  0.00  0.00    +0.000 C 
BRANCH  15  19
ATOM     16  C   UNL     1      46.701   2.330   7.424  0.00  0.00    +0.000 A 
ATOM     17  C   UNL     1      46.345   3.656   7.286  0.00  0.00    +0.000 A 
ATOM     18  N   UNL     1      45.434   4.279   8.062  0.00  0.00    +0.000 NA
ATOM     19  C   UNL     1      44.858   3.535   9.024  0.00  0.00    +0.000 A 
ATOM     20  N   UNL     1      45.096   2.224   9.217  0.00  0.00    +0.000 NA
ATOM     21  C   UNL     1      46.014   1.653   8.409  0.00  0.00    +0.000 A 
BRANCH  16  22
ATOM     22  C   UNL     1      47.745   1.685   6.574  0.00  0.00    +0.000 C 
BRANCH  22  23
ATOM     23  N   UNL     1      48.235   2.594   5.545  0.00  0.00    +0.000 NA
ATOM     24  H   UNL     1      48.970   3.182   5.933  0.00  0.00    +0.000 HD
ATOM     25  H   UNL     1      47.485   3.227   5.265  0.00  0.00    +0.000 HD
ENDBRANCH  22  23
ENDBRANCH  16  22
ENDBRANCH  15  19
ENDBRANCH  14  15
ENDBRANCH   1  14
TORSDOF 7
ENDMDL
MODEL 5
REMARK VINA RESULT:    -6.236      2.316      5.996
REMARK INTER + INTRA:          -9.375
REMARK INTER:                  -8.819
REMARK INTRA:                  -0.555
REMARK UNBOUND:                -0.769
REMARK  Name = 
REMARK  7 active torsions:
REMARK  status: ('A' for Active; 'I' for Inactive)
REMARK    1  A    between atoms: N_1  and  C_2
REMARK    2  A    between atoms: C_2  and  C_3
REMARK    3  A    between atoms: C_6  and  C_7
REMARK    4  A    between atoms: C_7  and  C_8
REMARK    5  A    between atoms: C_8  and  N_9
REMARK    6  A    between atoms: N_9  and  C_10
REMARK    7  A    between atoms: C_13  and  C_14
REMARK                            x       y       z     vdW  Elec       q    Type
REMARK                         _______ _______ _______ _____ _____    ______ ____
ROOT
ATOM      1  N   UNL     1      43.904   5.669  12.943  0.00  0.00    +0.000 N 
ATOM      2  H   UNL     1      43.619   5.568  13.916  0.00  0.00    +0.000 HD
ENDROOT
BRANCH   1   3
ATOM      3  C   UNL     1      45.253   6.042  12.831  0.00  0.00    +0.000 A 
ATOM      4  C   UNL     1      45.689   7.271  12.355  0.00  0.00    +0.000 A 
ATOM      5  N   UNL     1      46.979   7.668  12.281  0.00  0.00    +0.000 NA
ATOM      6  C   UNL     1      47.877   6.777  12.755  0.00  0.00    +0.000 A 
ATOM      7  N   UNL     1      47.591   5.564  13.267  0.00  0.00    +0.000 NA
ATOM      8  C   UNL     1      46.282   5.242  13.306  0.00  0.00    +0.000 A 
BRANCH   6   9
ATOM      9  C   UNL     1      49.324   7.208  12.729  0.00  0.00    +0.000 C 
ATOM     10  N   UNL     1      49.970   7.229  13.943  0.00  0.00    +0.000 N 
ATOM     11  O   UNL     1      49.929   7.525  11.703  0.00  0.00    +0.000 OA
ATOM     12  H   UNL     1      49.477   6.944  14.782  0.00  0.00    +0.000 HD
ATOM     13  H   UNL     1      50.945   7.485  13.978  0.00  0.00    +0.000 HD
ENDBRANCH   6   9
ENDBRANCH   1   3
BRANCH   1  14
ATOM     14  C   UNL     1      43.502   4.516  12.113  0.00  0.00    +0.000 C 
BRANCH  14  15
ATOM     15  C   UNL     1      43.459   4.899  10.642  0.00  0.00    +0.000 C 
BRANCH  15  19
ATOM     16  C   UNL     1      45.931   2.529   8.174  0.00  0.00    +0.000 A 
ATOM     17  C   UNL     1      45.058   1.993   9.099  0.00  0.00    +0.000 A 
ATOM     18  N   UNL     1      44.286   2.730   9.924  0.00  0.00    +0.000 NA
ATOM     19  C   UNL     1      44.393   4.066   9.811  0.00  0.00    +0.000 A 
ATOM     20  N   UNL     1      45.244   4.693   8.977  0.00  0.00    +0.000 NA
ATOM     21  C   UNL     1      45.995   3.906   8.178  0.00  0.00    +0.000 A 
BRANCH  16  22
ATOM     22  C   UNL     1      46.741   1.683   7.247  0.00  0.00    +0.000 C 
BRANCH  22  23
ATOM     23  N   UNL     1      46.914   0.332   7.770  0.00  0.00    +0.000 NA
ATOM     24  H   UNL     1      46.413  -0.327   7.179  0.00  0.00    +0.000 HD
ATOM     25  H   UNL     1      46.486   0.268   8.694  0.00  0.00    +0.000 HD
ENDBRANCH  22  23
ENDBRANCH  16  22
ENDBRANCH  15  19
ENDBRANCH  14  15
ENDBRANCH   1  14
TORSDOF 7
ENDMDL
MODEL 6
REMARK VINA RESULT:    -6.170      3.361      7.015
REMARK INTER + INTRA:          -9.283
REMARK INTER:                  -8.300
REMARK INTRA:                  -0.983
REMARK UNBOUND:                -0.769
REMARK  Name = 
REMARK  7 active torsions:
REMARK  status: ('A' for Active; 'I' for Inactive)
REMARK    1  A    between atoms: N_1  and  C_2
REMARK    2  A    between atoms: C_2  and  C_3
REMARK    3  A    between atoms: C_6  and  C_7
REMARK    4  A    between atoms: C_7  and  C_8
REMARK    5  A    between atoms: C_8  and  N_9
REMARK    6  A    between atoms: N_9  and  C_10
REMARK    7  A    between atoms: C_13  and  C_14
REMARK                            x       y       z     vdW  Elec       q    Type
REMARK                         _______ _______ _______ _____ _____    ______ ____
ROOT
ATOM      1  N   UNL     1      46.957   6.022  12.426  0.00  0.00    +0.000 N 
ATOM      2  H   UNL     1      47.791   6.247  11.883  0.00  0.00    +0.000 HD
ENDROOT
BRANCH   1   3
ATOM      3  C   UNL     1      47.283   5.446  13.664  0.00  0.00    +0.000 A 
ATOM      4  C   UNL     1      48.056   6.065  14.637  0.00  0.00    +0.000 A 
ATOM      5  N   UNL     1      48.345   5.549  15.852  0.00  0.00    +0.000 NA
ATOM      6  C   UNL     1      47.782   4.348  16.109  0.00  0.00    +0.000 A 
ATOM      7  N   UNL     1      46.992   3.650  15.269  0.00  0.00    +0.000 NA
ATOM      8  C   UNL     1      46.752   4.232  14.076  0.00  0.00    +0.000 A 
BRANCH   6   9
ATOM      9  C   UNL     1      48.048   3.764  17.476  0.00  0.00    +0.000 C 
ATOM     10  N   UNL     1      47.137   2.835  17.923  0.00  0.00    +0.000 N 
ATOM     11  O   UNL     1      49.013   4.068  18.178  0.00  0.00    +0.000 OA
ATOM     12  H   UNL     1      46.357   2.568  17.333  0.00  0.00    +0.000 HD
ATOM     13  H   UNL     1      47.282   2.395  18.819  0.00  0.00    +0.000 HD
ENDBRANCH   6   9
ENDBRANCH   1   3
BRANCH   1  14
ATOM     14  C   UNL     1      46.002   7.146  12.487  0.00  0.00    +0.000 C 
BRANCH  14  15
ATOM     15  C   UNL     1      44.828   6.907  11.551  0.00  0.00    +0.000 C 
BRANCH  15  19
ATOM     16  C   UNL     1      44.779   3.122   9.683  0.00  0.00    +0.000 A 
ATOM     17  C   UNL     1      44.202   3.359  10.913  0.00  0.00    +0.000 A 
ATOM     18  N   UNL     1      44.237   4.550  11.547  0.00  0.00    +0.000 NA
ATOM     19  C   UNL     1      44.877   5.549  10.912  0.00  0.00    +0.000 A 
ATOM     20  N   UNL     1      45.514   5.415   9.733  0.00  0.00    +0.000 NA
ATOM     21  C   UNL     1      45.449   4.201   9.147  0.00  0.00    +0.000 A 
BRANCH  16  22
ATOM     22  C   UNL     1      44.686   1.802   8.991  0.00  0.00    +0.000 C 
BRANCH  22  23
ATOM     23  N   UNL     1      45.984   1.368   8.489  0.00  0.00    +0.000 NA
ATOM     24  H   UNL     1      46.432   0.768   9.177  0.00  0.00    +0.000 HD
ATOM     25  H   UNL     1      46.595   2.179   8.380  0.00  0.00    +0.000 HD
ENDBRANCH  22  23
ENDBRANCH  16  22
ENDBRANCH  15  19
ENDBRANCH  14  15
ENDBRANCH   1  14
TORSDOF 7
ENDMDL
MODEL 7
REMARK VINA RESULT:    -5.892      3.854      6.125
REMARK INTER + INTRA:          -8.900
REMARK INTER:                  -8.026
REMARK INTRA:                  -0.874
REMARK UNBOUND:                -0.769
REMARK  Name = 
REMARK  7 active torsions:
REMARK  status: ('A' for Active; 'I' for Inactive)
REMARK    1  A    between atoms: N_1  and  C_2
REMARK    2  A    between atoms: C_2  and  C_3
REMARK    3  A    between atoms: C_6  and  C_7
REMARK    4  A    between atoms: C_7  and  C_8
REMARK    5  A    between atoms: C_8  and  N_9
REMARK    6  A    between atoms: N_9  and  C_10
REMARK    7  A    between atoms: C_13  and  C_14
REMARK                            x       y       z     vdW  Elec       q    Type
REMARK                         _______ _______ _______ _____ _____    ______ ____
ROOT
ATOM      1  N   UNL     1      47.575   5.856  14.735  0.00  0.00    +0.000 N 
ATOM      2  H   UNL     1      47.011   6.260  15.483  0.00  0.00    +0.000 HD
ENDROOT
BRANCH   1   3
ATOM      3  C   UNL     1      46.789   5.131  13.825  0.00  0.00    +0.000 A 
ATOM      4  C   UNL     1      46.763   3.745  13.744  0.00  0.00    +0.000 A 
ATOM      5  N   UNL     1      45.983   3.026  12.907  0.00  0.00    +0.000 NA
ATOM      6  C   UNL     1      45.151   3.758  12.133  0.00  0.00    +0.000 A 
ATOM      7  N   UNL     1      45.055   5.101  12.129  0.00  0.00    +0.000 NA
ATOM      8  C   UNL     1      45.867   5.747  12.992  0.00  0.00    +0.000 A 
BRANCH   6   9
ATOM      9  C   UNL     1      44.233   2.982  11.219  0.00  0.00    +0.000 C 
ATOM     10  N   UNL     1      44.830   2.372  10.141  0.00  0.00    +0.000 N 
ATOM     11  O   UNL     1      43.019   2.871  11.397  0.00  0.00    +0.000 OA
ATOM     12  H   UNL     1      45.833   2.444  10.010  0.00  0.00    +0.000 HD
ATOM     13  H   UNL     1      44.265   1.820   9.513  0.00  0.00    +0.000 HD
ENDBRANCH   6   9
ENDBRANCH   1   3
BRANCH   1  14
ATOM     14  C   UNL     1      48.495   6.838  14.127  0.00  0.00    +0.000 C 
BRANCH  14  15
ATOM     15  C   UNL     1      49.497   7.345  15.152  0.00  0.00    +0.000 C 
BRANCH  15  19
ATOM     16  C   UNL     1      48.972   5.275  18.793  0.00  0.00    +0.000 A 
ATOM     17  C   UNL     1      48.482   6.546  18.575  0.00  0.00    +0.000 A 
ATOM     18  N   UNL     1      48.669   7.243  17.434  0.00  0.00    +0.000 NA
ATOM     19  C   UNL     1      49.376   6.630  16.467  0.00  0.00    +0.000 A 
ATOM     20  N   UNL     1      49.938   5.412  16.591  0.00  0.00    +0.000 NA
ATOM     21  C   UNL     1      49.721   4.764  17.755  0.00  0.00    +0.000 A 
BRANCH  16  22
ATOM     22  C   UNL     1      48.710   4.517  20.053  0.00  0.00    +0.000 C 
BRANCH  22  23
ATOM     23  N   UNL     1      48.417   3.115  19.782  0.00  0.00    +0.000 NA
ATOM     24  H   UNL     1      49.193   2.538  20.099  0.00  0.00    +0.000 HD
ATOM     25  H   UNL     1      48.349   2.970  18.775  0.00  0.00    +0.000 HD
ENDBRANCH  22  23
ENDBRANCH  16  22
ENDBRANCH  15  19
ENDBRANCH  14  15
ENDBRANCH   1  14
TORSDOF 7
ENDMDL
MODEL 8
REMARK VINA RESULT:    -5.885      2.658      6.093
REMARK INTER + INTRA:          -8.891
REMARK INTER:                  -8.128
REMARK INTRA:                  -0.763
REMARK UNBOUND:                -0.769
REMARK  Name = 
REMARK  7 active torsions:
REMARK  status: ('A' for Active; 'I' for Inactive)
REMARK    1  A    between atoms: N_1  and  C_2
REMARK    2  A    between atoms: C_2  and  C_3
REMARK    3  A    between atoms: C_6  and  C_7
REMARK    4  A    between atoms: C_7  and  C_8
REMARK    5  A    between atoms: C_8  and  N_9
REMARK    6  A    between atoms: N_9  and  C_10
REMARK    7  A    between atoms: C_13  and  C_14
REMARK                            x       y       z     vdW  Elec       q    Type
REMARK                         _______ _______ _______ _____ _____    ______ ____
ROOT
ATOM      1  N   UNL     1      45.372   5.348  13.499  0.00  0.00    +0.000 N 
ATOM      2  H   UNL     1      45.727   4.396  13.411  0.00  0.00    +0.000 HD
ENDROOT
BRANCH   1   3
ATOM      3  C   UNL     1      46.318   6.296  13.078  0.00  0.00    +0.000 A 
ATOM      4  C   UNL     1      47.677   6.044  12.952  0.00  0.00    +0.000 A 
ATOM      5  N   UNL     1      48.598   6.927  12.507  0.00  0.00    +0.000 NA
ATOM      6  C   UNL     1      48.102   8.127  12.132  0.00  0.00    +0.000 A 
ATOM      7  N   UNL     1      46.807   8.495  12.177  0.00  0.00    +0.000 NA
ATOM      8  C   UNL     1      45.950   7.558  12.633  0.00  0.00    +0.000 A 
BRANCH   6   9
ATOM      9  C   UNL     1      49.100   9.121  11.587  0.00  0.00    +0.000 C 
ATOM     10  N   UNL     1      50.415   8.721  11.592  0.00  0.00    +0.000 N 
ATOM     11  O   UNL     1      48.795  10.231  11.149  0.00  0.00    +0.000 OA
ATOM     12  H   UNL     1      50.661   7.797  11.931  0.00  0.00    +0.000 HD
ATOM     13  H   UNL     1      51.120   9.337  11.216  0.00  0.00    +0.000 HD
ENDBRANCH   6   9
ENDBRANCH   1   3
BRANCH   1  14
ATOM     14  C   UNL     1      44.024   5.504  12.917  0.00  0.00    +0.000 C 
BRANCH  14  15
ATOM     15  C   UNL     1      43.523   4.184  12.355  0.00  0.00    +0.000 C 
BRANCH  15  19
ATOM     16  C   UNL     1      45.238   3.371   8.584  0.00  0.00    +0.000 A 
ATOM     17  C   UNL     1      45.310   4.609   9.191  0.00  0.00    +0.000 A 
ATOM     18  N   UNL     1      44.738   4.903  10.378  0.00  0.00    +0.000 NA
ATOM     19  C   UNL     1      44.068   3.905  10.983  0.00  0.00    +0.000 A 
ATOM     20  N   UNL     1      43.897   2.676  10.460  0.00  0.00    +0.000 NA
ATOM     21  C   UNL     1      44.488   2.440   9.270  0.00  0.00    +0.000 A 
BRANCH  16  22
ATOM     22  C   UNL     1      45.919   3.069   7.290  0.00  0.00    +0.000 C 
BRANCH  22  23
ATOM     23  N   UNL     1      46.738   4.190   6.842  0.00  0.00    +0.000 NA
ATOM     24  H   UNL     1      46.455   4.463   5.904  0.00  0.00    +0.000 HD
ATOM     25  H   UNL     1      47.711   3.892   6.770  0.00  0.00    +0.000 HD
ENDBRANCH  22  23
ENDBRANCH  16  22
ENDBRANCH  15  19
ENDBRANCH  14  15
ENDBRANCH   1  14
TORSDOF 7
ENDMDL
MODEL 9
REMARK VINA RESULT:    -5.625      4.527      8.303
REMARK INTER + INTRA:          -8.532
REMARK INTER:                  -8.191
REMARK INTRA:                  -0.342
REMARK UNBOUND:                -0.769
REMARK  Name = 
REMARK  7 active torsions:
REMARK  status: ('A' for Active; 'I' for Inactive)
REMARK    1  A    between atoms: N_1  and  C_2
REMARK    2  A    between atoms: C_2  and  C_3
REMARK    3  A    between atoms: C_6  and  C_7
REMARK    4  A    between atoms: C_7  and  C_8
REMARK    5  A    between atoms: C_8  and  N_9
REMARK    6  A    between atoms: N_9  and  C_10
REMARK    7  A    between atoms: C_13  and  C_14
REMARK                            x       y       z     vdW  Elec       q    Type
REMARK                         _______ _______ _______ _____ _____    ______ ____
ROOT
ATOM      1  N   UNL     1      46.985   3.841  14.562  0.00  0.00    +0.000 N 
ATOM      2  H   UNL     1      47.665   3.295  14.034  0.00  0.00    +0.000 HD
ENDROOT
BRANCH   1   3
ATOM      3  C   UNL     1      47.433   4.110  15.865  0.00  0.00    +0.000 A 
ATOM      4  C   UNL     1      47.403   3.195  16.908  0.00  0.00    +0.000 A 
ATOM      5  N   UNL     1      47.869   3.418  18.157  0.00  0.00    +0.000 NA
ATOM      6  C   UNL     1      48.433   4.631  18.346  0.00  0.00    +0.000 A 
ATOM      7  N   UNL     1      48.551   5.601  17.419  0.00  0.00    +0.000 NA
ATOM      8  C   UNL     1      48.062   5.302  16.197  0.00  0.00    +0.000 A 
BRANCH   6   9
ATOM      9  C   UNL     1      49.005   4.895  19.719  0.00  0.00    +0.000 C 
ATOM     10  N   UNL     1      48.638   4.011  20.706  0.00  0.00    +0.000 N 
ATOM     11  O   UNL     1      49.763   5.831  19.980  0.00  0.00    +0.000 OA
ATOM     12  H   UNL     1      48.034   3.227  20.483  0.00  0.00    +0.000 HD
ATOM     13  H   UNL     1      49.012   4.126  21.636  0.00  0.00    +0.000 HD
ENDBRANCH   6   9
ENDBRANCH   1   3
BRANCH   1  14
ATOM     14  C   UNL     1      46.497   5.015  13.811  0.00  0.00    +0.000 C 
BRANCH  14  15
ATOM     15  C   UNL     1      45.092   4.770  13.282  0.00  0.00    +0.000 C 
BRANCH  15  19
ATOM     16  C   UNL     1      45.260   3.956   9.143  0.00  0.00    +0.000 A 
ATOM     17  C   UNL     1      45.593   5.182   9.681  0.00  0.00    +0.000 A 
ATOM     18  N   UNL     1      45.512   5.478  10.996  0.00  0.00    +0.000 NA
ATOM     19  C   UNL     1      45.081   4.493  11.805  0.00  0.00    +0.000 A 
ATOM     20  N   UNL     1      44.687   3.277  11.382  0.00  0.00    +0.000 NA
ATOM     21  C   UNL     1      44.786   3.039  10.057  0.00  0.00    +0.000 A 
BRANCH  16  22
ATOM     22  C   UNL     1      45.402   3.651   7.688  0.00  0.00    +0.000 C 
BRANCH  22  23
ATOM     23  N   UNL     1      46.608   4.252   7.131  0.00  0.00    +0.000 NA
ATOM     24  H   UNL     1      46.852   5.082   7.666  0.00  0.00    +0.000 HD
ATOM     25  H   UNL     1      46.420   4.572   6.181  0.00  0.00    +0.000 HD
ENDBRANCH  22  23
ENDBRANCH  16  22
ENDBRANCH  15  19
ENDBRANCH  14  15
ENDBRANCH   1  14
TORSDOF 7
ENDMDL
