MODEL 1
REMARK VINA RESULT:    -8.364      0.000      0.000
REMARK INTER + INTRA:         -11.133
REMARK INTER:                 -10.319
REMARK INTRA:                  -0.814
REMARK UNBOUND:                -0.814
REMARK  Name = 
REMARK  6 active torsions:
REMARK  status: ('A' for Active; 'I' for Inactive)
REMARK    1  A    between atoms: C_1  and  C_2
REMARK    2  A    between atoms: C_2  and  C_3
REMARK    3  A    between atoms: C_2  and  N_4
REMARK    4  A    between atoms: C_2  and  C_14
REMARK    5  A    between atoms: N_4  and  C_5
REMARK    6  A    between atoms: C_8  and  C_9
REMARK                            x       y       z     vdW  Elec       q    Type
REMARK                         _______ _______ _______ _____ _____    ______ ____
ROOT
ATOM      1  N   UNL     1      43.617   4.026  10.001  0.00  0.00    +0.000 N 
ATOM      2  H   UNL     1      43.067   4.720   9.496  0.00  0.00    +0.000 HD
ENDROOT
BRANCH   1   3
ATOM      3  C   UNL     1      44.631   3.520   9.198  0.00  0.00    +0.000 A 
ATOM      4  C   UNL     1      45.338   4.416   8.383  0.00  0.00    +0.000 A 
ATOM      5  C   UNL     1      46.328   3.974   7.494  0.00  0.00    +0.000 A 
ATOM      6  C   UNL     1      46.657   2.619   7.430  0.00  0.00    +0.000 A 
ATOM      7  C   UNL     1      46.000   1.722   8.269  0.00  0.00    +0.000 A 
ATOM      8  C   UNL     1      45.015   2.177   9.152  0.00  0.00    +0.000 A 
BRANCH   6   9
ATOM      9  C   UNL     1      47.674   2.167   6.442  0.00  0.00    +0.000 C 
ATOM     10  N   UNL     1      47.882   2.961   5.347  0.00  0.00    +0.000 N 
ATOM     11  O   UNL     1      48.286   1.116   6.581  0.00  0.00    +0.000 OA
ATOM     12  H   UNL     1      47.250   3.698   5.077  0.00  0.00    +0.000 HD
ATOM     13  H   UNL     1      48.513   2.598   4.643  0.00  0.00    +0.000 HD
ENDBRANCH   6   9
ENDBRANCH   1   3
BRANCH   1  15
ATOM     14  C   UNL     1      42.656   5.338  11.908  0.00  0.00    +0.000 C 
ATOM     15  C   UNL     1      43.691   4.280  11.456  0.00  0.00    +0.000 C 
ATOM     16  C   UNL     1      43.452   2.966  12.225  0.00  0.00    +0.000 C 
BRANCH  15  17
ATOM     17  C   UNL     1      45.129   4.855  11.798  0.00  0.00    +0.000 C 
ATOM     18  C   UNL     1      45.566   4.561  13.254  0.00  0.00    +0.000 C 
ATOM     19  C   UNL     1      46.990   5.035  13.536  0.00  0.00    +0.000 C 
ATOM     20  C   UNL     1      47.164   6.514  13.216  0.00  0.00    +0.000 C 
ATOM     21  C   UNL     1      46.747   6.820  11.783  0.00  0.00    +0.000 C 
ATOM     22  C   UNL     1      45.319   6.358  11.493  0.00  0.00    +0.000 C 
ENDBRANCH  15  17
ENDBRANCH   1  15
TORSDOF 4
ENDMDL
MODEL 2
REMARK VINA RESULT:    -6.509      3.547      6.588
REMARK INTER + INTRA:          -8.845
REMARK INTER:                  -8.160
REMARK INTRA:                  -0.685
REMARK UNBOUND:                -0.814
REMARK  Name = 
REMARK  6 active torsions:
REMARK  status: ('A' for Active; 'I' for Inactive)
REMARK    1  A    between atoms: C_1  and  C_2
REMARK    2  A    between atoms: C_2  and  C_3
REMARK    3  A    between atoms: C_2  and  N_4
REMARK    4  A    between atoms: C_2  and  C_14
REMARK    5  A    between atoms: N_4  and  C_5
REMARK    6  A    between atoms: C_8  and  C_9
REMARK                            x       y       z     vdW  Elec       q    Type
REMARK                         _______ _______ _______ _____ _____    ______ ____
ROOT
ATOM      1  N   UNL     1      45.164   6.193  10.546  0.00  0.00    +0.000 N 
ATOM      2  H   UNL     1      44.644   6.803   9.915  0.00  0.00    +0.000 HD
ENDROOT
BRANCH   1   3
ATOM      3  C   UNL     1      45.858   6.937  11.492  0.00  0.00    +0.000 A 
ATOM      4  C   UNL     1      47.233   6.701  11.639  0.00  0.00    +0.000 A 
ATOM      5  C   UNL     1      47.990   7.361  12.617  0.00  0.00    +0.000 A 
ATOM      6  C   UNL     1      47.387   8.306  13.450  0.00  0.00    +0.000 A 
ATOM      7  C   UNL     1      46.033   8.589  13.283  0.00  0.00    +0.000 A 
ATOM      8  C   UNL     1      45.290   7.923  12.302  0.00  0.00    +0.000 A 
BRANCH   6   9
ATOM      9  C   UNL     1      48.198   8.955  14.515  0.00  0.00    +0.000 C 
ATOM     10  N   UNL     1      47.559   9.277  15.682  0.00  0.00    +0.000 N 
ATOM     11  O   UNL     1      49.383   9.217  14.355  0.00  0.00    +0.000 OA
ATOM     12  H   UNL     1      46.555   9.295  15.770  0.00  0.00    +0.000 HD
ATOM     13  H   UNL     1      48.102   9.794  16.362  0.00  0.00    +0.000 HD
ENDBRANCH   6   9
ENDBRANCH   1   3
BRANCH   1  15
ATOM     14  C   UNL     1      45.093   4.152  11.999  0.00  0.00    +0.000 C 
ATOM     15  C   UNL     1      44.516   4.881  10.761  0.00  0.00    +0.000 C 
ATOM     16  C   UNL     1      42.998   5.074  10.939  0.00  0.00    +0.000 C 
BRANCH  15  17
ATOM     17  C   UNL     1      44.802   3.962   9.500  0.00  0.00    +0.000 C 
ATOM     18  C   UNL     1      45.147   2.502   9.883  0.00  0.00    +0.000 C 
ATOM     19  C   UNL     1      45.323   1.610   8.657  0.00  0.00    +0.000 C 
ATOM     20  C   UNL     1      46.366   2.169   7.699  0.00  0.00    +0.000 C 
ATOM     21  C   UNL     1      46.037   3.603   7.303  0.00  0.00    +0.000 C 
ATOM     22  C   UNL     1      45.869   4.508   8.524  0.00  0.00    +0.000 C 
ENDBRANCH  15  17
ENDBRANCH   1  15
TORSDOF 4
ENDMDL
MODEL 3
REMARK VINA RESULT:    -6.223      3.233      6.027
REMARK INTER + INTRA:          -8.492
REMARK INTER:                  -7.926
REMARK INTRA:                  -0.566
REMARK UNBOUND:                -0.814
REMARK  Name = 
REMARK  6 active torsions:
REMARK  status: ('A' for Active; 'I' for Inactive)
REMARK    1  A    between atoms: C_1  and  C_2
REMARK    2  A    between atoms: C_2  and  C_3
REMARK    3  A    between atoms: C_2  and  N_4
REMARK    4  A    between atoms: C_2  and  C_14
REMARK    5  A    between atoms: N_4  and  C_5
REMARK    6  A    between atoms: C_8  and  C_9
REMARK                            x       y       z     vdW  Elec       q    Type
REMARK                         _______ _______ _______ _____ _____    ______ ____
ROOT
ATOM      1  N   UNL     1      44.916   4.654  12.698  0.00  0.00    +0.000 N 
ATOM      2  H   UNL     1      45.387   3.955  13.272  0.00  0.00    +0.000 HD
ENDROOT
BRANCH   1   3
ATOM      3  C   UNL     1      45.675   5.815  12.614  0.00  0.00    +0.000 A 
ATOM      4  C   UNL     1      45.009   7.047  12.695  0.00  0.00    +0.000 A 
ATOM      5  C   UNL     1      45.693   8.262  12.551  0.00  0.00    +0.000 A 
ATOM      6  C   UNL     1      47.075   8.268  12.357  0.00  0.00    +0.000 A 
ATOM      7  C   UNL     1      47.760   7.055  12.325  0.00  0.00    +0.000 A 
ATOM      8  C   UNL     1      47.064   5.850  12.472  0.00  0.00    +0.000 A 
BRANCH   6   9
ATOM      9  C   UNL     1      47.773   9.567  12.153  0.00  0.00    +0.000 C 
ATOM     10  N   UNL     1      47.272  10.657  12.811  0.00  0.00    +0.000 N 
ATOM     11  O   UNL     1      48.739   9.671  11.410  0.00  0.00    +0.000 OA
ATOM     12  H   UNL     1      46.359  10.668  13.238  0.00  0.00    +0.000 HD
ATOM     13  H   UNL     1      47.704  11.548  12.596  0.00  0.00    +0.000 HD
ENDBRANCH   6   9
ENDBRANCH   1   3
BRANCH   1  15
ATOM     14  C   UNL     1      43.380   2.769  12.091  0.00  0.00    +0.000 C 
ATOM     15  C   UNL     1      44.080   4.070  11.628  0.00  0.00    +0.000 C 
ATOM     16  C   UNL     1      43.019   5.093  11.181  0.00  0.00    +0.000 C 
BRANCH  15  17
ATOM     17  C   UNL     1      45.016   3.688  10.405  0.00  0.00    +0.000 C 
ATOM     18  C   UNL     1      45.130   4.822   9.356  0.00  0.00    +0.000 C 
ATOM     19  C   UNL     1      46.109   4.475   8.237  0.00  0.00    +0.000 C 
ATOM     20  C   UNL     1      45.748   3.159   7.561  0.00  0.00    +0.000 C 
ATOM     21  C   UNL     1      45.641   2.029   8.578  0.00  0.00    +0.000 C 
ATOM     22  C   UNL     1      44.655   2.362   9.698  0.00  0.00    +0.000 C 
ENDBRANCH  15  17
ENDBRANCH   1  15
TORSDOF 4
ENDMDL
MODEL 4
REMARK VINA RESULT:    -5.722      3.956      6.966
REMARK INTER + INTRA:          -7.874
REMARK INTER:                  -7.440
REMARK INTRA:                  -0.434
REMARK UNBOUND:                -0.814
REMARK  Name = 
REMARK  6 active torsions:
REMARK  status: ('A' for Active; 'I' for Inactive)
REMARK    1  A    between atoms: C_1  and  C_2
REMARK    2  A    between atoms: C_2  and  C_3
REMARK    3  A    between atoms: C_2  and  N_4
REMARK    4  A    between atoms: C_2  and  C_14
REMARK    5  A    between atoms: N_4  and  C_5
REMARK    6  A    between atoms: C_8  and  C_9
REMARK                            x       y       z     vdW  Elec       q    Type
REMARK                         _______ _______ _______ _____ _____    ______ ____
ROOT
ATOM      1  N   UNL     1      46.564   5.774  12.214  0.00  0.00    +0.000 N 
ATOM      2  H   UNL     1      47.201   6.384  11.702  0.00  0.00    +0.000 HD
ENDROOT
BRANCH   1   3
ATOM      3  C   UNL     1      47.061   5.494  13.482  0.00  0.00    +0.000 A 
ATOM      4  C   UNL     1      46.769   4.244  14.045  0.00  0.00    +0.000 A 
ATOM      5  C   UNL     1      47.176   3.912  15.345  0.00  0.00    +0.000 A 
ATOM      6  C   UNL     1      47.920   4.820  16.099  0.00  0.00    +0.000 A 
ATOM      7  C   UNL     1      48.263   6.048  15.536  0.00  0.00    +0.000 A 
ATOM      8  C   UNL     1      47.851   6.365  14.236  0.00  0.00    +0.000 A 
BRANCH   6   9
ATOM      9  C   UNL     1      48.295   4.467  17.495  0.00  0.00    +0.000 C 
ATOM     10  N   UNL     1      47.562   3.492  18.114  0.00  0.00    +0.000 N 
ATOM     11  O   UNL     1      49.205   5.038  18.083  0.00  0.00    +0.000 OA
ATOM     12  H   UNL     1      46.676   3.166  17.762  0.00  0.00    +0.000 HD
ATOM     13  H   UNL     1      47.774   3.323  19.090  0.00  0.00    +0.000 HD
ENDBRANCH   6   9
ENDBRANCH   1   3
BRANCH   1  15
ATOM     14  C   UNL     1      44.198   5.631  13.027  0.00  0.00    +0.000 C 
ATOM     15  C   UNL     1      45.145   5.966  11.849  0.00  0.00    +0.000 C 
ATOM     16  C   UNL     1      44.915   7.423  11.404  0.00  0.00    +0.000 C 
BRANCH  15  17
ATOM     17  C   UNL     1      44.787   4.974  10.664  0.00  0.00    +0.000 C 
ATOM     18  C   UNL     1      44.712   3.495  11.116  0.00  0.00    +0.000 C 
ATOM     19  C   UNL     1      44.272   2.568   9.985  0.00  0.00    +0.000 C 
ATOM     20  C   UNL     1      45.170   2.705   8.763  0.00  0.00    +0.000 C 
ATOM     21  C   UNL     1      45.248   4.154   8.298  0.00  0.00    +0.000 C 
ATOM     22  C   UNL     1      45.697   5.090   9.420  0.00  0.00    +0.000 C 
ENDBRANCH  15  17
ENDBRANCH   1  15
TORSDOF 4
ENDMDL
MODEL 5
REMARK VINA RESULT:    -5.653      3.681      6.296
REMARK INTER + INTRA:          -7.790
REMARK INTER:                  -7.179
REMARK INTRA:                  -0.610
REMARK UNBOUND:                -0.814
REMARK  Name = 
REMARK  6 active torsions:
REMARK  status: ('A' for Active; 'I' for Inactive)
REMARK    1  A    between atoms: C_1  and  C_2
REMARK    2  A    between atoms: C_2  and  C_3
REMARK    3  A    between atoms: C_2  and  N_4
REMARK    4  A    between atoms: C_2  and  C_14
REMARK    5  A    between atoms: N_4  and  C_5
REMARK    6  A    between atoms: C_8  and  C_9
REMARK                            x       y       z     vdW  Elec       q    Type
REMARK                         _______ _______ _______ _____ _____    ______ ____
ROOT
ATOM      1  N   UNL     1      45.336   5.424  12.756  0.00  0.00    +0.000 N 
ATOM      2  H   UNL     1      45.931   4.700  13.157  0.00  0.00    +0.000 HD
ENDROOT
BRANCH   1   3
ATOM      3  C   UNL     1      46.041   6.611  12.600  0.00  0.00    +0.000 A 
ATOM      4  C   UNL     1      47.298   6.558  11.981  0.00  0.00    +0.000 A 
ATOM      5  C   UNL     1      48.100   7.700  11.848  0.00  0.00    +0.000 A 
ATOM      6  C   UNL     1      47.638   8.936  12.305  0.00  0.00    +0.000 A 
ATOM      7  C   UNL     1      46.371   9.017  12.878  0.00  0.00    +0.000 A 
ATOM      8  C   UNL     1      45.581   7.868  13.002  0.00  0.00    +0.000 A 
BRANCH   6   9
ATOM      9  C   UNL     1      48.528  10.125  12.202  0.00  0.00    +0.000 C 
ATOM     10  N   UNL     1      48.410  10.901  11.081  0.00  0.00    +0.000 N 
ATOM     11  O   UNL     1      49.352  10.391  13.067  0.00  0.00    +0.000 OA
ATOM     12  H   UNL     1      47.923  10.597  10.253  0.00  0.00    +0.000 HD
ATOM     13  H   UNL     1      49.079  11.655  10.986  0.00  0.00    +0.000 HD
ENDBRANCH   6   9
ENDBRANCH   1   3
BRANCH   1  15
ATOM     14  C   UNL     1      43.406   3.838  12.552  0.00  0.00    +0.000 C 
ATOM     15  C   UNL     1      44.295   4.894  11.850  0.00  0.00    +0.000 C 
ATOM     16  C   UNL     1      43.414   6.050  11.339  0.00  0.00    +0.000 C 
BRANCH  15  17
ATOM     17  C   UNL     1      45.005   4.172  10.628  0.00  0.00    +0.000 C 
ATOM     18  C   UNL     1      45.217   5.109   9.414  0.00  0.00    +0.000 C 
ATOM     19  C   UNL     1      45.987   4.426   8.286  0.00  0.00    +0.000 C 
ATOM     20  C   UNL     1      45.313   3.132   7.848  0.00  0.00    +0.000 C 
ATOM     21  C   UNL     1      45.105   2.193   9.030  0.00  0.00    +0.000 C 
ATOM     22  C   UNL     1      44.326   2.864  10.162  0.00  0.00    +0.000 C 
ENDBRANCH  15  17
ENDBRANCH   1  15
TORSDOF 4
ENDMDL
MODEL 6
REMARK VINA RESULT:    -5.617      3.330      5.629
REMARK INTER + INTRA:          -7.744
REMARK INTER:                  -7.080
REMARK INTRA:                  -0.664
REMARK UNBOUND:                -0.814
REMARK  Name = 
REMARK  6 active torsions:
REMARK  status: ('A' for Active; 'I' for Inactive)
REMARK    1  A    between atoms: C_1  and  C_2
REMARK    2  A    between atoms: C_2  and  C_3
REMARK    3  A    between atoms: C_2  and  N_4
REMARK    4  A    between atoms: C_2  and  C_14
REMARK    5  A    between atoms: N_4  and  C_5
REMARK    6  A    between atoms: C_8  and  C_9
REMARK                            x       y       z     vdW  Elec       q    Type
REMARK                         _______ _______ _______ _____ _____    ______ ____
ROOT
ATOM      1  N   UNL     1      46.649   7.537  13.428  0.00  0.00    +0.000 N 
ATOM      2  H   UNL     1      46.009   8.325  13.329  0.00  0.00    +0.000 HD
ENDROOT
BRANCH   1   3
ATOM      3  C   UNL     1      46.108   6.389  12.862  0.00  0.00    +0.000 A 
ATOM      4  C   UNL     1      45.616   6.466  11.551  0.00  0.00    +0.000 A 
ATOM      5  C   UNL     1      44.995   5.371  10.935  0.00  0.00    +0.000 A 
ATOM      6  C   UNL     1      44.884   4.156  11.613  0.00  0.00    +0.000 A 
ATOM      7  C   UNL     1      45.411   4.047  12.898  0.00  0.00    +0.000 A 
ATOM      8  C   UNL     1      46.031   5.148  13.500  0.00  0.00    +0.000 A 
BRANCH   6   9
ATOM      9  C   UNL     1      44.173   3.024  10.960  0.00  0.00    +0.000 C 
ATOM     10  N   UNL     1      44.827   2.371   9.951  0.00  0.00    +0.000 N 
ATOM     11  O   UNL     1      43.039   2.699  11.287  0.00  0.00    +0.000 OA
ATOM     12  H   UNL     1      45.647   2.743   9.498  0.00  0.00    +0.000 HD
ATOM     13  H   UNL     1      44.298   1.660   9.460  0.00  0.00    +0.000 HD
ENDBRANCH   6   9
ENDBRANCH   1   3
BRANCH   1  15
ATOM     14  C   UNL     1      48.643   8.036  14.860  0.00  0.00    +0.000 C 
ATOM     15  C   UNL     1      48.073   7.932  13.425  0.00  0.00    +0.000 C 
ATOM     16  C   UNL     1      48.895   6.907  12.620  0.00  0.00    +0.000 C 
BRANCH  15  17
ATOM     17  C   UNL     1      48.201   9.368  12.764  0.00  0.00    +0.000 C 
ATOM     18  C   UNL     1      46.843   9.932  12.279  0.00  0.00    +0.000 C 
ATOM     19  C   UNL     1      46.970  11.353  11.735  0.00  0.00    +0.000 C 
ATOM     20  C   UNL     1      48.009  11.441  10.625  0.00  0.00    +0.000 C 
ATOM     21  C   UNL     1      49.356  10.898  11.089  0.00  0.00    +0.000 C 
ATOM     22  C   UNL     1      49.242   9.471  11.626  0.00  0.00    +0.000 C 
ENDBRANCH  15  17
ENDBRANCH   1  15
TORSDOF 4
ENDMDL
MODEL 7
REMARK VINA RESULT:    -5.383      3.352      5.707
REMARK INTER + INTRA:          -7.455
REMARK INTER:                  -6.738
REMARK INTRA:                  -0.717
REMARK UNBOUND:                -0.814
REMARK  Name = 
REMARK  6 active torsions:
REMARK  status: ('A' for Active; 'I' for Inactive)
REMARK    1  A    between atoms: C_1  and  C_2
REMARK    2  A    between atoms: C_2  and  C_3
REMARK    3  A    between atoms: C_2  and  N_4
REMARK    4  A    between atoms: C_2  and  C_14
REMARK    5  A    between atoms: N_4  and  C_5
REMARK    6  A    between atoms: C_8  and  C_9
REMARK                            x       y       z     vdW  Elec       q    Type
REMARK                         _______ _______ _______ _____ _____    ______ ____
ROOT
ATOM      1  N   UNL     1      46.542   7.489  13.495  0.00  0.00    +0.000 N 
ATOM      2  H   UNL     1      45.896   8.182  13.874  0.00  0.00    +0.000 HD
ENDROOT
BRANCH   1   3
ATOM      3  C   UNL     1      45.848   6.441  12.902  0.00  0.00    +0.000 A 
ATOM      4  C   UNL     1      46.000   5.157  13.444  0.00  0.00    +0.000 A 
ATOM      5  C   UNL     1      45.389   4.037  12.862  0.00  0.00    +0.000 A 
ATOM      6  C   UNL     1      44.578   4.189  11.736  0.00  0.00    +0.000 A 
ATOM      7  C   UNL     1      44.375   5.465  11.214  0.00  0.00    +0.000 A 
ATOM      8  C   UNL     1      44.990   6.573  11.807  0.00  0.00    +0.000 A 
BRANCH   6   9
ATOM      9  C   UNL     1      43.983   2.981  11.104  0.00  0.00    +0.000 C 
ATOM     10  N   UNL     1      44.650   2.436  10.041  0.00  0.00    +0.000 N 
ATOM     11  O   UNL     1      42.927   2.502  11.495  0.00  0.00    +0.000 OA
ATOM     12  H   UNL     1      45.381   2.921   9.546  0.00  0.00    +0.000 HD
ATOM     13  H   UNL     1      44.189   1.667   9.569  0.00  0.00    +0.000 HD
ENDBRANCH   6   9
ENDBRANCH   1   3
BRANCH   1  15
ATOM     14  C   UNL     1      48.433   7.258  11.867  0.00  0.00    +0.000 C 
ATOM     15  C   UNL     1      47.823   8.067  13.037  0.00  0.00    +0.000 C 
ATOM     16  C   UNL     1      47.605   9.526  12.594  0.00  0.00    +0.000 C 
BRANCH  15  17
ATOM     17  C   UNL     1      48.861   8.014  14.236  0.00  0.00    +0.000 C 
ATOM     18  C   UNL     1      50.330   8.156  13.768  0.00  0.00    +0.000 C 
ATOM     19  C   UNL     1      51.307   8.200  14.941  0.00  0.00    +0.000 C 
ATOM     20  C   UNL     1      51.152   6.987  15.848  0.00  0.00    +0.000 C 
ATOM     21  C   UNL     1      49.713   6.837  16.326  0.00  0.00    +0.000 C 
ATOM     22  C   UNL     1      48.727   6.782  15.159  0.00  0.00    +0.000 C 
ENDBRANCH  15  17
ENDBRANCH   1  15
TORSDOF 4
ENDMDL
