MODEL 1
REMARK VINA RESULT:    -6.061      0.000      0.000
REMARK INTER + INTRA:          -8.779
REMARK INTER:                  -8.009
REMARK INTRA:                  -0.770
REMARK UNBOUND:                -0.770
REMARK  Name = 
REMARK  6 active torsions:
REMARK  status: ('A' for Active; 'I' for Inactive)
REMARK    1  A    between atoms: N_1  and  C_2
REMARK    2  A    between atoms: C_2  and  C_3
REMARK    3  A    between atoms: C_3  and  C_4
REMARK    4  A    between atoms: C_4  and  N_5
REMARK    5  A    between atoms: N_8  and  C_9
REMARK    6  A    between atoms: C_9  and  C_10
REMARK                            x       y       z     vdW  Elec       q    Type
REMARK                         _______ _______ _______ _____ _____    ______ ____
ROOT
ATOM      1  N   UNL     1      45.212   7.364  11.436  0.00  0.00    +0.000 NA
ATOM      2  C   UNL     1      43.780   7.123  11.119  0.00  0.00    +0.000 C 
ATOM      3  C   UNL     1      43.249   5.732  11.546  0.00  0.00    +0.000 C 
ATOM      4  N   UNL     1      44.038   4.587  11.040  0.00  0.00    +0.000 NA
ATOM      5  C   UNL     1      45.463   4.822  11.375  0.00  0.00    +0.000 C 
ATOM      6  C   UNL     1      46.000   6.213  10.944  0.00  0.00    +0.000 C 
ENDROOT
BRANCH   1   7
ATOM      7  C   UNL     1      45.370   7.594  12.884  0.00  0.00    +0.000 C 
BRANCH   7   8
ATOM      8  C   UNL     1      46.409   8.658  13.266  0.00  0.00    +0.000 C 
BRANCH   8   9
ATOM      9  C   UNL     1      46.327   9.822  12.278  0.00  0.00    +0.000 C 
BRANCH   9  10
ATOM     10  N   UNL     1      44.997  10.416  12.271  0.00  0.00    +0.000 NA
ATOM     11  H   UNL     1      44.299   9.673  12.224  0.00  0.00    +0.000 HD
ATOM     12  H   UNL     1      44.875  10.975  11.428  0.00  0.00    +0.000 HD
ENDBRANCH   9  10
ENDBRANCH   8   9
ENDBRANCH   7   8
ENDBRANCH   1   7
BRANCH   4  13
ATOM     13  C   UNL     1      43.900   4.386   9.585  0.00  0.00    +0.000 C 
BRANCH  13  14
ATOM     14  C   UNL     1      44.604   3.150   9.114  0.00  0.00    +0.000 A 
ATOM     15  C   UNL     1      44.329   1.841   9.479  0.00  0.00    +0.000 A 
ATOM     16  N   UNL     1      45.220   1.019   8.840  0.00  0.00    +0.000 N 
ATOM     17  C   UNL     1      46.071   1.759   8.072  0.00  0.00    +0.000 A 
ATOM     18  N   UNL     1      47.061   1.243   7.322  0.00  0.00    +0.000 NA
ATOM     19  C   UNL     1      47.769   2.190   6.665  0.00  0.00    +0.000 A 
ATOM     20  C   UNL     1      47.543   3.558   6.724  0.00  0.00    +0.000 A 
ATOM     21  C   UNL     1      46.498   4.039   7.514  0.00  0.00    +0.000 A 
ATOM     22  C   UNL     1      45.725   3.100   8.221  0.00  0.00    +0.000 A 
ATOM     23  H   UNL     1      45.267   0.013   8.913  0.00  0.00    +0.000 HD
ENDBRANCH  13  14
ENDBRANCH   4  13
TORSDOF 6
ENDMDL
MODEL 2
REMARK VINA RESULT:    -5.912      1.522      6.504
REMARK INTER + INTRA:          -8.582
REMARK INTER:                  -8.091
REMARK INTRA:                  -0.491
REMARK UNBOUND:                -0.770
REMARK  Name = 
REMARK  6 active torsions:
REMARK  status: ('A' for Active; 'I' for Inactive)
REMARK    1  A    between atoms: N_1  and  C_2
REMARK    2  A    between atoms: C_2  and  C_3
REMARK    3  A    between atoms: C_3  and  C_4
REMARK    4  A    between atoms: C_4  and  N_5
REMARK    5  A    between atoms: N_8  and  C_9
REMARK    6  A    between atoms: C_9  and  C_10
REMARK                            x       y       z     vdW  Elec       q    Type
REMARK                         _______ _______ _______ _____ _____    ______ ____
ROOT
ATOM      1  N   UNL     1      46.345   3.032   7.786  0.00  0.00    +0.000 NA
ATOM      2  C   UNL     1      45.971   1.843   8.597  0.00  0.00    +0.000 C 
ATOM      3  C   UNL     1      44.502   1.833   9.088  0.00  0.00    +0.000 C 
ATOM      4  N   UNL     1      44.085   3.048   9.820  0.00  0.00    +0.000 NA
ATOM      5  C   UNL     1      44.443   4.230   8.999  0.00  0.00    +0.000 C 
ATOM      6  C   UNL     1      45.916   4.247   8.510  0.00  0.00    +0.000 C 
ENDROOT
BRANCH   1   7
ATOM      7  C   UNL     1      45.751   2.921   6.440  0.00  0.00    +0.000 C 
BRANCH   7   8
ATOM      8  C   UNL     1      46.760   2.891   5.283  0.00  0.00    +0.000 C 
BRANCH   8   9
ATOM      9  C   UNL     1      47.951   2.015   5.674  0.00  0.00    +0.000 C 
BRANCH   9  10
ATOM     10  N   UNL     1      48.917   2.761   6.469  0.00  0.00    +0.000 NA
ATOM     11  H   UNL     1      48.470   3.602   6.837  0.00  0.00    +0.000 HD
ATOM     12  H   UNL     1      49.679   3.080   5.873  0.00  0.00    +0.000 HD
ENDBRANCH   9  10
ENDBRANCH   8   9
ENDBRANCH   7   8
ENDBRANCH   1   7
BRANCH   4  13
ATOM     13  C   UNL     1      44.712   3.166  11.151  0.00  0.00    +0.000 C 
BRANCH  13  14
ATOM     14  C   UNL     1      44.409   4.480  11.806  0.00  0.00    +0.000 A 
ATOM     15  C   UNL     1      43.199   4.884  12.350  0.00  0.00    +0.000 A 
ATOM     16  N   UNL     1      43.346   6.161  12.825  0.00  0.00    +0.000 N 
ATOM     17  C   UNL     1      44.617   6.602  12.598  0.00  0.00    +0.000 A 
ATOM     18  N   UNL     1      45.073   7.818  12.947  0.00  0.00    +0.000 NA
ATOM     19  C   UNL     1      46.366   8.013  12.600  0.00  0.00    +0.000 A 
ATOM     20  C   UNL     1      47.179   7.093  11.952  0.00  0.00    +0.000 A 
ATOM     21  C   UNL     1      46.655   5.843  11.617  0.00  0.00    +0.000 A 
ATOM     22  C   UNL     1      45.315   5.583  11.955  0.00  0.00    +0.000 A 
ATOM     23  H   UNL     1      42.634   6.720  13.273  0.00  0.00    +0.000 HD
ENDBRANCH  13  14
ENDBRANCH   4  13
TORSDOF 6
ENDMDL
MODEL 3
REMARK VINA RESULT:    -5.857      1.700      7.298
REMARK INTER + INTRA:          -8.510
REMARK INTER:                  -8.204
REMARK INTRA:                  -0.306
REMARK UNBOUND:                -0.770
REMARK  Name = 
REMARK  6 active torsions:
REMARK  status: ('A' for Active; 'I' for Inactive)
REMARK    1  A    between atoms: N_1  and  C_2
REMARK    2  A    between atoms: C_2  and  C_3
REMARK    3  A    between atoms: C_3  and  C_4
REMARK    4  A    between atoms: C_4  and  N_5
REMARK    5  A    between atoms: N_8  and  C_9
REMARK    6  A    between atoms: C_9  and  C_10
REMARK                            x       y       z     vdW  Elec       q    Type
REMARK                         _______ _______ _______ _____ _____    ______ ____
ROOT
ATOM      1  N   UNL     1      44.196   3.094   9.561  0.00  0.00    +0.000 NA
ATOM      2  C   UNL     1      44.588   4.435   9.052  0.00  0.00    +0.000 C 
ATOM      3  C   UNL     1      45.668   5.155   9.896  0.00  0.00    +0.000 C 
ATOM      4  N   UNL     1      45.350   5.277  11.336  0.00  0.00    +0.000 NA
ATOM      5  C   UNL     1      44.978   3.934  11.843  0.00  0.00    +0.000 C 
ATOM      6  C   UNL     1      43.892   3.212  11.003  0.00  0.00    +0.000 C 
ENDROOT
BRANCH   1   7
ATOM      7  C   UNL     1      45.266   2.121   9.273  0.00  0.00    +0.000 C 
BRANCH   7   8
ATOM      8  C   UNL     1      45.971   2.306   7.922  0.00  0.00    +0.000 C 
BRANCH   8   9
ATOM      9  C   UNL     1      46.848   1.085   7.639  0.00  0.00    +0.000 C 
BRANCH   9  10
ATOM     10  N   UNL     1      48.018   1.445   6.850  0.00  0.00    +0.000 NA
ATOM     11  H   UNL     1      48.487   2.238   7.290  0.00  0.00    +0.000 HD
ATOM     12  H   UNL     1      47.726   1.763   5.928  0.00  0.00    +0.000 HD
ENDBRANCH   9  10
ENDBRANCH   8   9
ENDBRANCH   7   8
ENDBRANCH   1   7
BRANCH   4  13
ATOM     13  C   UNL     1      44.255   6.228  11.608  0.00  0.00    +0.000 C 
BRANCH  13  14
ATOM     14  C   UNL     1      44.765   7.589  11.975  0.00  0.00    +0.000 A 
ATOM     15  C   UNL     1      45.779   7.888  12.872  0.00  0.00    +0.000 A 
ATOM     16  N   UNL     1      45.914   9.250  12.930  0.00  0.00    +0.000 N 
ATOM     17  C   UNL     1      45.011   9.846  12.099  0.00  0.00    +0.000 A 
ATOM     18  N   UNL     1      44.891  11.176  11.935  0.00  0.00    +0.000 NA
ATOM     19  C   UNL     1      43.912  11.511  11.063  0.00  0.00    +0.000 A 
ATOM     20  C   UNL     1      43.090  10.620  10.387  0.00  0.00    +0.000 A 
ATOM     21  C   UNL     1      43.261   9.250  10.591  0.00  0.00    +0.000 A 
ATOM     22  C   UNL     1      44.266   8.842  11.486  0.00  0.00    +0.000 A 
ATOM     23  H   UNL     1      46.570   9.764  13.500  0.00  0.00    +0.000 HD
ENDBRANCH  13  14
ENDBRANCH   4  13
TORSDOF 6
ENDMDL
MODEL 4
REMARK VINA RESULT:    -5.731      1.353      6.894
REMARK INTER + INTRA:          -8.344
REMARK INTER:                  -8.242
REMARK INTRA:                  -0.101
REMARK UNBOUND:                -0.770
REMARK  Name = 
REMARK  6 active torsions:
REMARK  status: ('A' for Active; 'I' for Inactive)
REMARK    1  A    between atoms: N_1  and  C_2
REMARK    2  A    between atoms: C_2  and  C_3
REMARK    3  A    between atoms: C_3  and  C_4
REMARK    4  A    between atoms: C_4  and  N_5
REMARK    5  A    between atoms: N_8  and  C_9
REMARK    6  A    between atoms: C_9  and  C_10
REMARK                            x       y       z     vdW  Elec       q    Type
REMARK                         _______ _______ _______ _____ _____    ______ ____
ROOT
ATOM      1  N   UNL     1      44.544   2.684   8.901  0.00  0.00    +0.000 NA
ATOM      2  C   UNL     1      44.703   4.130   8.593  0.00  0.00    +0.000 C 
ATOM      3  C   UNL     1      45.566   4.916   9.611  0.00  0.00    +0.000 C 
ATOM      4  N   UNL     1      45.135   4.783  11.020  0.00  0.00    +0.000 NA
ATOM      5  C   UNL     1      44.995   3.340  11.328  0.00  0.00    +0.000 C 
ATOM      6  C   UNL     1      44.127   2.550  10.314  0.00  0.00    +0.000 C 
ENDROOT
BRANCH   1   7
ATOM      7  C   UNL     1      45.798   1.970   8.599  0.00  0.00    +0.000 C 
BRANCH   7   8
ATOM      8  C   UNL     1      46.528   2.439   7.332  0.00  0.00    +0.000 C 
BRANCH   8   9
ATOM      9  C   UNL     1      47.596   1.412   6.955  0.00  0.00    +0.000 C 
BRANCH   9  10
ATOM     10  N   UNL     1      48.368   1.851   5.800  0.00  0.00    +0.000 NA
ATOM     11  H   UNL     1      48.660   1.035   5.262  0.00  0.00    +0.000 HD
ATOM     12  H   UNL     1      49.223   2.308   6.112  0.00  0.00    +0.000 HD
ENDBRANCH   9  10
ENDBRANCH   8   9
ENDBRANCH   7   8
ENDBRANCH   1   7
BRANCH   4  13
ATOM     13  C   UNL     1      43.861   5.473  11.303  0.00  0.00    +0.000 C 
BRANCH  13  14
ATOM     14  C   UNL     1      44.018   6.963  11.330  0.00  0.00    +0.000 A 
ATOM     15  C   UNL     1      43.102   7.908  10.889  0.00  0.00    +0.000 A 
ATOM     16  N   UNL     1      43.646   9.152  11.072  0.00  0.00    +0.000 N 
ATOM     17  C   UNL     1      44.893   9.043  11.615  0.00  0.00    +0.000 A 
ATOM     18  N   UNL     1      45.686  10.087  11.912  0.00  0.00    +0.000 NA
ATOM     19  C   UNL     1      46.878   9.710  12.429  0.00  0.00    +0.000 A 
ATOM     20  C   UNL     1      47.289   8.403  12.648  0.00  0.00    +0.000 A 
ATOM     21  C   UNL     1      46.423   7.357  12.326  0.00  0.00    +0.000 A 
ATOM     22  C   UNL     1      45.168   7.688  11.786  0.00  0.00    +0.000 A 
ATOM     23  H   UNL     1      43.214  10.035  10.842  0.00  0.00    +0.000 HD
ENDBRANCH  13  14
ENDBRANCH   4  13
TORSDOF 6
ENDMDL
MODEL 5
REMARK VINA RESULT:    -5.646      2.232      3.703
REMARK INTER + INTRA:          -8.230
REMARK INTER:                  -7.571
REMARK INTRA:                  -0.660
REMARK UNBOUND:                -0.770
REMARK  Name = 
REMARK  6 active torsions:
REMARK  status: ('A' for Active; 'I' for Inactive)
REMARK    1  A    between atoms: N_1  and  C_2
REMARK    2  A    between atoms: C_2  and  C_3
REMARK    3  A    between atoms: C_3  and  C_4
REMARK    4  A    between atoms: C_4  and  N_5
REMARK    5  A    between atoms: N_8  and  C_9
REMARK    6  A    between atoms: C_9  and  C_10
REMARK                            x       y       z     vdW  Elec       q    Type
REMARK                         _______ _______ _______ _____ _____    ______ ____
ROOT
ATOM      1  N   UNL     1      48.046   8.383  12.280  0.00  0.00    +0.000 NA
ATOM      2  C   UNL     1      46.826   9.224  12.157  0.00  0.00    +0.000 C 
ATOM      3  C   UNL     1      45.620   8.738  12.999  0.00  0.00    +0.000 C 
ATOM      4  N   UNL     1      45.238   7.327  12.776  0.00  0.00    +0.000 NA
ATOM      5  C   UNL     1      46.454   6.490  12.918  0.00  0.00    +0.000 C 
ATOM      6  C   UNL     1      47.663   6.970  12.072  0.00  0.00    +0.000 C 
ENDROOT
BRANCH   1   7
ATOM      7  C   UNL     1      48.686   8.621  13.587  0.00  0.00    +0.000 C 
BRANCH   7   8
ATOM      8  C   UNL     1      49.829   7.660  13.939  0.00  0.00    +0.000 C 
BRANCH   8   9
ATOM      9  C   UNL     1      49.579   7.063  15.324  0.00  0.00    +0.000 C 
BRANCH   9  10
ATOM     10  N   UNL     1      48.303   7.507  15.869  0.00  0.00    +0.000 NA
ATOM     11  H   UNL     1      48.142   7.045  16.764  0.00  0.00    +0.000 HD
ATOM     12  H   UNL     1      47.546   7.213  15.255  0.00  0.00    +0.000 HD
ENDBRANCH   9  10
ENDBRANCH   8   9
ENDBRANCH   7   8
ENDBRANCH   1   7
BRANCH   4  13
ATOM     13  C   UNL     1      44.630   7.093  11.452  0.00  0.00    +0.000 C 
BRANCH  13  14
ATOM     14  C   UNL     1      44.144   5.684  11.292  0.00  0.00    +0.000 A 
ATOM     15  C   UNL     1      43.234   5.018  12.099  0.00  0.00    +0.000 A 
ATOM     16  N   UNL     1      43.085   3.744  11.617  0.00  0.00    +0.000 N 
ATOM     17  C   UNL     1      43.878   3.561  10.522  0.00  0.00    +0.000 A 
ATOM     18  N   UNL     1      43.957   2.415   9.824  0.00  0.00    +0.000 NA
ATOM     19  C   UNL     1      44.825   2.490   8.789  0.00  0.00    +0.000 A 
ATOM     20  C   UNL     1      45.579   3.602   8.442  0.00  0.00    +0.000 A 
ATOM     21  C   UNL     1      45.454   4.768   9.200  0.00  0.00    +0.000 A 
ATOM     22  C   UNL     1      44.564   4.750  10.288  0.00  0.00    +0.000 A 
ATOM     23  H   UNL     1      42.490   3.024  12.000  0.00  0.00    +0.000 HD
ENDBRANCH  13  14
ENDBRANCH   4  13
TORSDOF 6
ENDMDL
MODEL 6
REMARK VINA RESULT:    -5.334      1.898      6.578
REMARK INTER + INTRA:          -7.819
REMARK INTER:                  -7.237
REMARK INTRA:                  -0.582
REMARK UNBOUND:                -0.770
REMARK  Name = 
REMARK  6 active torsions:
REMARK  status: ('A' for Active; 'I' for Inactive)
REMARK    1  A    between atoms: N_1  and  C_2
REMARK    2  A    between atoms: C_2  and  C_3
REMARK    3  A    between atoms: C_3  and  C_4
REMARK    4  A    between atoms: C_4  and  N_5
REMARK    5  A    between atoms: N_8  and  C_9
REMARK    6  A    between atoms: C_9  and  C_10
REMARK                            x       y       z     vdW  Elec       q    Type
REMARK                         _______ _______ _______ _____ _____    ______ ____
ROOT
ATOM      1  N   UNL     1      44.569   3.230  11.190  0.00  0.00    +0.000 NA
ATOM      2  C   UNL     1      43.411   3.834  11.900  0.00  0.00    +0.000 C 
ATOM      3  C   UNL     1      43.021   5.251  11.409  0.00  0.00    +0.000 C 
ATOM      4  N   UNL     1      44.129   6.231  11.406  0.00  0.00    +0.000 NA
ATOM      5  C   UNL     1      45.276   5.631  10.681  0.00  0.00    +0.000 C 
ATOM      6  C   UNL     1      45.673   4.214  11.173  0.00  0.00    +0.000 C 
ENDROOT
BRANCH   1   7
ATOM      7  C   UNL     1      44.157   2.800   9.841  0.00  0.00    +0.000 C 
BRANCH   7   8
ATOM      8  C   UNL     1      45.308   2.419   8.898  0.00  0.00    +0.000 C 
BRANCH   8   9
ATOM      9  C   UNL     1      45.243   3.292   7.644  0.00  0.00    +0.000 C 
BRANCH   9  10
ATOM     10  N   UNL     1      46.415   4.150   7.536  0.00  0.00    +0.000 NA
ATOM     11  H   UNL     1      46.797   4.315   8.468  0.00  0.00    +0.000 HD
ATOM     12  H   UNL     1      46.142   5.062   7.174  0.00  0.00    +0.000 HD
ENDBRANCH   9  10
ENDBRANCH   8   9
ENDBRANCH   7   8
ENDBRANCH   1   7
BRANCH   4  13
ATOM     13  C   UNL     1      44.556   6.628  12.761  0.00  0.00    +0.000 C 
BRANCH  13  14
ATOM     14  C   UNL     1      45.512   7.782  12.739  0.00  0.00    +0.000 A 
ATOM     15  C   UNL     1      45.203   9.121  12.552  0.00  0.00    +0.000 A 
ATOM     16  N   UNL     1      46.368   9.840  12.580  0.00  0.00    +0.000 N 
ATOM     17  C   UNL     1      47.429   9.004  12.773  0.00  0.00    +0.000 A 
ATOM     18  N   UNL     1      48.711   9.407  12.846  0.00  0.00    +0.000 NA
ATOM     19  C   UNL     1      49.573   8.382  13.031  0.00  0.00    +0.000 A 
ATOM     20  C   UNL     1      49.228   7.042  13.139  0.00  0.00    +0.000 A 
ATOM     21  C   UNL     1      47.882   6.680  13.062  0.00  0.00    +0.000 A 
ATOM     22  C   UNL     1      46.939   7.705  12.871  0.00  0.00    +0.000 A 
ATOM     23  H   UNL     1      46.459  10.839  12.468  0.00  0.00    +0.000 HD
ENDBRANCH  13  14
ENDBRANCH   4  13
TORSDOF 6
ENDMDL
MODEL 7
REMARK VINA RESULT:    -5.095      2.258      3.459
REMARK INTER + INTRA:          -7.503
REMARK INTER:                  -7.271
REMARK INTRA:                  -0.232
REMARK UNBOUND:                -0.770
REMARK  Name = 
REMARK  6 active torsions:
REMARK  status: ('A' for Active; 'I' for Inactive)
REMARK    1  A    between atoms: N_1  and  C_2
REMARK    2  A    between atoms: C_2  and  C_3
REMARK    3  A    between atoms: C_3  and  C_4
REMARK    4  A    between atoms: C_4  and  N_5
REMARK    5  A    between atoms: N_8  and  C_9
REMARK    6  A    between atoms: C_9  and  C_10
REMARK                            x       y       z     vdW  Elec       q    Type
REMARK                         _______ _______ _______ _____ _____    ______ ____
ROOT
ATOM      1  N   UNL     1      47.175   8.178  13.729  0.00  0.00    +0.000 NA
ATOM      2  C   UNL     1      47.257   6.719  13.455  0.00  0.00    +0.000 C 
ATOM      3  C   UNL     1      46.997   6.323  11.980  0.00  0.00    +0.000 C 
ATOM      4  N   UNL     1      45.728   6.833  11.417  0.00  0.00    +0.000 NA
ATOM      5  C   UNL     1      45.660   8.292  11.676  0.00  0.00    +0.000 C 
ATOM      6  C   UNL     1      45.914   8.692  13.153  0.00  0.00    +0.000 C 
ENDROOT
BRANCH   1   7
ATOM      7  C   UNL     1      48.372   8.853  13.193  0.00  0.00    +0.000 C 
BRANCH   7   8
ATOM      8  C   UNL     1      49.656   8.649  14.009  0.00  0.00    +0.000 C 
BRANCH   8   9
ATOM      9  C   UNL     1      50.830   8.427  13.054  0.00  0.00    +0.000 C 
BRANCH   9  10
ATOM     10  N   UNL     1      50.503   7.440  12.033  0.00  0.00    +0.000 NA
ATOM     11  H   UNL     1      50.864   6.529  12.320  0.00  0.00    +0.000 HD
ATOM     12  H   UNL     1      50.979   7.675  11.164  0.00  0.00    +0.000 HD
ENDBRANCH   9  10
ENDBRANCH   8   9
ENDBRANCH   7   8
ENDBRANCH   1   7
BRANCH   4  13
ATOM     13  C   UNL     1      44.536   6.175  11.985  0.00  0.00    +0.000 C 
BRANCH  13  14
ATOM     14  C   UNL     1      44.384   4.764  11.504  0.00  0.00    +0.000 A 
ATOM     15  C   UNL     1      43.858   3.692  12.209  0.00  0.00    +0.000 A 
ATOM     16  N   UNL     1      43.923   2.579  11.413  0.00  0.00    +0.000 N 
ATOM     17  C   UNL     1      44.483   2.897  10.209  0.00  0.00    +0.000 A 
ATOM     18  N   UNL     1      44.686   2.019   9.211  0.00  0.00    +0.000 NA
ATOM     19  C   UNL     1      45.267   2.583   8.127  0.00  0.00    +0.000 A 
ATOM     20  C   UNL     1      45.635   3.915   8.006  0.00  0.00    +0.000 A 
ATOM     21  C   UNL     1      45.397   4.784   9.073  0.00  0.00    +0.000 A 
ATOM     22  C   UNL     1      44.793   4.254  10.227  0.00  0.00    +0.000 A 
ATOM     23  H   UNL     1      43.617   1.649  11.657  0.00  0.00    +0.000 HD
ENDBRANCH  13  14
ENDBRANCH   4  13
TORSDOF 6
ENDMDL
MODEL 8
REMARK VINA RESULT:    -4.991      4.650      7.835
REMARK INTER + INTRA:          -7.366
REMARK INTER:                  -7.037
REMARK INTRA:                  -0.329
REMARK UNBOUND:                -0.770
REMARK  Name = 
REMARK  6 active torsions:
REMARK  status: ('A' for Active; 'I' for Inactive)
REMARK    1  A    between atoms: N_1  and  C_2
REMARK    2  A    between atoms: C_2  and  C_3
REMARK    3  A    between atoms: C_3  and  C_4
REMARK    4  A    between atoms: C_4  and  N_5
REMARK    5  A    between atoms: N_8  and  C_9
REMARK    6  A    between atoms: C_9  and  C_10
REMARK                            x       y       z     vdW  Elec       q    Type
REMARK                         _______ _______ _______ _____ _____    ______ ____
ROOT
ATOM      1  N   UNL     1      45.277   6.047  12.033  0.00  0.00    +0.000 NA
ATOM      2  C   UNL     1      46.171   7.234  12.000  0.00  0.00    +0.000 C 
ATOM      3  C   UNL     1      47.680   6.909  12.133  0.00  0.00    +0.000 C 
ATOM      4  N   UNL     1      48.036   6.090  13.311  0.00  0.00    +0.000 NA
ATOM      5  C   UNL     1      47.154   4.898  13.330  0.00  0.00    +0.000 C 
ATOM      6  C   UNL     1      45.641   5.219  13.203  0.00  0.00    +0.000 C 
ENDROOT
BRANCH   1   7
ATOM      7  C   UNL     1      45.373   5.316  10.756  0.00  0.00    +0.000 C 
BRANCH   7   8
ATOM      8  C   UNL     1      44.071   4.651  10.286  0.00  0.00    +0.000 C 
BRANCH   8   9
ATOM      9  C   UNL     1      44.112   3.162  10.631  0.00  0.00    +0.000 C 
BRANCH   9  10
ATOM     10  N   UNL     1      42.987   2.783  11.475  0.00  0.00    +0.000 NA
ATOM     11  H   UNL     1      42.350   3.576  11.559  0.00  0.00    +0.000 HD
ATOM     12  H   UNL     1      43.316   2.581  12.417  0.00  0.00    +0.000 HD
ENDBRANCH   9  10
ENDBRANCH   8   9
ENDBRANCH   7   8
ENDBRANCH   1   7
BRANCH   4  13
ATOM     13  C   UNL     1      47.903   6.820  14.586  0.00  0.00    +0.000 C 
BRANCH  13  14
ATOM     14  C   UNL     1      48.778   6.248  15.661  0.00  0.00    +0.000 A 
ATOM     15  C   UNL     1      50.070   6.636  15.983  0.00  0.00    +0.000 A 
ATOM     16  N   UNL     1      50.514   5.844  17.008  0.00  0.00    +0.000 N 
ATOM     17  C   UNL     1      49.548   4.946  17.359  0.00  0.00    +0.000 A 
ATOM     18  N   UNL     1      49.682   4.029  18.333  0.00  0.00    +0.000 NA
ATOM     19  C   UNL     1      48.584   3.252  18.476  0.00  0.00    +0.000 A 
ATOM     20  C   UNL     1      47.421   3.346  17.724  0.00  0.00    +0.000 A 
ATOM     21  C   UNL     1      47.335   4.321  16.728  0.00  0.00    +0.000 A 
ATOM     22  C   UNL     1      48.446   5.160  16.535  0.00  0.00    +0.000 A 
ATOM     23  H   UNL     1      51.420   5.890  17.452  0.00  0.00    +0.000 HD
ENDBRANCH  13  14
ENDBRANCH   4  13
TORSDOF 6
ENDMDL
MODEL 9
REMARK VINA RESULT:    -4.703      3.961      7.595
REMARK INTER + INTRA:          -6.984
REMARK INTER:                  -6.553
REMARK INTRA:                  -0.431
REMARK UNBOUND:                -0.770
REMARK  Name = 
REMARK  6 active torsions:
REMARK  status: ('A' for Active; 'I' for Inactive)
REMARK    1  A    between atoms: N_1  and  C_2
REMARK    2  A    between atoms: C_2  and  C_3
REMARK    3  A    between atoms: C_3  and  C_4
REMARK    4  A    between atoms: C_4  and  N_5
REMARK    5  A    between atoms: N_8  and  C_9
REMARK    6  A    between atoms: C_9  and  C_10
REMARK                            x       y       z     vdW  Elec       q    Type
REMARK                         _______ _______ _______ _____ _____    ______ ____
ROOT
ATOM      1  N   UNL     1      44.407   5.090  12.636  0.00  0.00    +0.000 NA
ATOM      2  C   UNL     1      44.822   6.360  11.983  0.00  0.00    +0.000 C 
ATOM      3  C   UNL     1      46.307   6.404  11.543  0.00  0.00    +0.000 C 
ATOM      4  N   UNL     1      47.279   6.089  12.612  0.00  0.00    +0.000 NA
ATOM      5  C   UNL     1      46.871   4.812  13.247  0.00  0.00    +0.000 C 
ATOM      6  C   UNL     1      45.387   4.766  13.695  0.00  0.00    +0.000 C 
ENDROOT
BRANCH   1   7
ATOM      7  C   UNL     1      44.281   4.028  11.621  0.00  0.00    +0.000 C 
BRANCH   7   8
ATOM      8  C   UNL     1      43.764   4.491  10.251  0.00  0.00    +0.000 C 
BRANCH   8   9
ATOM      9  C   UNL     1      44.623   3.867   9.151  0.00  0.00    +0.000 C 
BRANCH   9  10
ATOM     10  N   UNL     1      45.401   4.879   8.449  0.00  0.00    +0.000 NA
ATOM     11  H   UNL     1      45.129   4.887   7.465  0.00  0.00    +0.000 HD
ATOM     12  H   UNL     1      46.388   4.629   8.470  0.00  0.00    +0.000 HD
ENDBRANCH   9  10
ENDBRANCH   8   9
ENDBRANCH   7   8
ENDBRANCH   1   7
BRANCH   4  13
ATOM     13  C   UNL     1      47.372   7.143  13.640  0.00  0.00    +0.000 C 
BRANCH  13  14
ATOM     14  C   UNL     1      48.750   7.248  14.220  0.00  0.00    +0.000 A 
ATOM     15  C   UNL     1      49.848   7.881  13.657  0.00  0.00    +0.000 A 
ATOM     16  N   UNL     1      50.915   7.724  14.502  0.00  0.00    +0.000 N 
ATOM     17  C   UNL     1      50.543   7.001  15.597  0.00  0.00    +0.000 A 
ATOM     18  N   UNL     1      51.367   6.677  16.610  0.00  0.00    +0.000 NA
ATOM     19  C   UNL     1      50.755   5.945  17.570  0.00  0.00    +0.000 A 
ATOM     20  C   UNL     1      49.427   5.544  17.560  0.00  0.00    +0.000 A 
ATOM     21  C   UNL     1      48.615   5.913  16.486  0.00  0.00    +0.000 A 
ATOM     22  C   UNL     1      49.196   6.677  15.458  0.00  0.00    +0.000 A 
ATOM     23  H   UNL     1      51.851   8.074  14.357  0.00  0.00    +0.000 HD
ENDBRANCH  13  14
ENDBRANCH   4  13
TORSDOF 6
ENDMDL
