MODEL 1
REMARK VINA RESULT:    -8.626      0.000      0.000
REMARK INTER + INTRA:         -11.220
REMARK INTER:                 -11.147
REMARK INTRA:                  -0.073
REMARK UNBOUND:                -0.073
REMARK  Name = 
REMARK  5 active torsions:
REMARK  status: ('A' for Active; 'I' for Inactive)
REMARK    1  A    between atoms: C_7  and  C_8
REMARK    2  A    between atoms: N_10  and  C_11
REMARK    3  A    between atoms: C_11  and  C_12
REMARK    4  A    between atoms: C_15  and  C_16
REMARK    5  A    between atoms: C_16  and  N_17
REMARK                            x       y       z     vdW  Elec       q    Type
REMARK                         _______ _______ _______ _____ _____    ______ ____
ROOT
ATOM      1  C   UNL     1      48.124   6.606  14.110  0.00  0.00    +0.000 C 
ATOM      2  O   UNL     1      48.856   6.915  13.172  0.00  0.00    +0.000 OA
ATOM      3  N   UNL     1      46.762   6.564  13.981  0.00  0.00    +0.000 N 
ATOM      4  H   UNL     1      46.177   6.228  14.740  0.00  0.00    +0.000 HD
ENDROOT
BRANCH   1  11
ATOM      5  N   UNL     1      48.316   2.904  19.719  0.00  0.00    +0.000 N 
ATOM      6  C   UNL     1      48.392   3.717  18.634  0.00  0.00    +0.000 A 
ATOM      7  N   UNL     1      49.202   4.735  18.636  0.00  0.00    +0.000 NA
ATOM      8  C   UNL     1      49.166   5.462  17.494  0.00  0.00    +0.000 A 
ATOM      9  N   UNL     1      49.931   6.568  17.287  0.00  0.00    +0.000 N 
ATOM     10  C   UNL     1      49.644   7.084  16.050  0.00  0.00    +0.000 A 
ATOM     11  C   UNL     1      48.674   6.294  15.434  0.00  0.00    +0.000 A 
ATOM     12  C   UNL     1      48.397   5.253  16.370  0.00  0.00    +0.000 A 
ATOM     13  C   UNL     1      47.520   4.108  16.391  0.00  0.00    +0.000 A 
ATOM     14  O   UNL     1      46.797   3.780  15.455  0.00  0.00    +0.000 OA
ATOM     15  N   UNL     1      47.570   3.399  17.575  0.00  0.00    +0.000 N 
ATOM     16  H   UNL     1      48.763   3.314  20.534  0.00  0.00    +0.000 HD
ATOM     17  H   UNL     1      47.415   2.498  19.930  0.00  0.00    +0.000 HD
ATOM     18  H   UNL     1      50.594   6.942  17.955  0.00  0.00    +0.000 HD
ATOM     19  H   UNL     1      47.002   2.570  17.611  0.00  0.00    +0.000 HD
ENDBRANCH   1  11
BRANCH   3  20
ATOM     20  C   UNL     1      46.093   6.946  12.755  0.00  0.00    +0.000 C 
BRANCH  20  21
ATOM     21  C   UNL     1      45.611   5.771  11.932  0.00  0.00    +0.000 A 
ATOM     22  C   UNL     1      45.711   4.478  12.438  0.00  0.00    +0.000 A 
ATOM     23  C   UNL     1      45.329   3.405  11.635  0.00  0.00    +0.000 A 
ATOM     24  C   UNL     1      44.839   3.636  10.346  0.00  0.00    +0.000 A 
ATOM     25  C   UNL     1      44.744   4.961   9.937  0.00  0.00    +0.000 A 
ATOM     26  N   UNL     1      45.116   6.026  10.692  0.00  0.00    +0.000 NA
BRANCH  24  27
ATOM     27  C   UNL     1      44.385   2.502   9.465  0.00  0.00    +0.000 C 
BRANCH  27  28
ATOM     28  N   UNL     1      45.132   2.347   8.194  0.00  0.00    +0.000 NA
ATOM     29  C   UNL     1      45.763   3.621   7.800  0.00  0.00    +0.000 C 
ATOM     30  C   UNL     1      46.706   3.487   6.602  0.00  0.00    +0.000 C 
ATOM     31  C   UNL     1      47.765   2.425   6.856  0.00  0.00    +0.000 C 
ATOM     32  C   UNL     1      47.082   1.108   7.182  0.00  0.00    +0.000 C 
ATOM     33  C   UNL     1      46.122   1.265   8.363  0.00  0.00    +0.000 C 
ENDBRANCH  27  28
ENDBRANCH  24  27
ENDBRANCH  20  21
ENDBRANCH   3  20
TORSDOF 5
ENDMDL
MODEL 2
REMARK VINA RESULT:    -8.014      2.908      8.310
REMARK INTER + INTRA:         -10.430
REMARK INTER:                  -9.487
REMARK INTRA:                  -0.943
REMARK UNBOUND:                -0.073
REMARK  Name = 
REMARK  5 active torsions:
REMARK  status: ('A' for Active; 'I' for Inactive)
REMARK    1  A    between atoms: C_7  and  C_8
REMARK    2  A    between atoms: N_10  and  C_11
REMARK    3  A    between atoms: C_11  and  C_12
REMARK    4  A    between atoms: C_15  and  C_16
REMARK    5  A    between atoms: C_16  and  N_17
REMARK                            x       y       z     vdW  Elec       q    Type
REMARK                         _______ _______ _______ _____ _____    ______ ____
ROOT
ATOM      1  C   UNL     1      47.103   7.202  12.674  0.00  0.00    +0.000 C 
ATOM      2  O   UNL     1      47.881   7.794  11.929  0.00  0.00    +0.000 OA
ATOM      3  N   UNL     1      47.334   7.090  14.019  0.00  0.00    +0.000 N 
ATOM      4  H   UNL     1      46.643   6.670  14.633  0.00  0.00    +0.000 HD
ENDROOT
BRANCH   1  11
ATOM      5  N   UNL     1      43.227   1.796  11.705  0.00  0.00    +0.000 N 
ATOM      6  C   UNL     1      43.904   2.963  11.848  0.00  0.00    +0.000 A 
ATOM      7  N   UNL     1      43.454   4.052  11.294  0.00  0.00    +0.000 NA
ATOM      8  C   UNL     1      44.235   5.137  11.512  0.00  0.00    +0.000 A 
ATOM      9  N   UNL     1      43.950   6.373  11.022  0.00  0.00    +0.000 N 
ATOM     10  C   UNL     1      44.943   7.241  11.398  0.00  0.00    +0.000 A 
ATOM     11  C   UNL     1      45.893   6.557  12.154  0.00  0.00    +0.000 A 
ATOM     12  C   UNL     1      45.410   5.216  12.227  0.00  0.00    +0.000 A 
ATOM     13  C   UNL     1      45.875   3.998  12.842  0.00  0.00    +0.000 A 
ATOM     14  O   UNL     1      46.889   3.919  13.531  0.00  0.00    +0.000 OA
ATOM     15  N   UNL     1      45.065   2.909  12.587  0.00  0.00    +0.000 N 
ATOM     16  H   UNL     1      42.522   1.851  10.974  0.00  0.00    +0.000 HD
ATOM     17  H   UNL     1      43.774   0.947  11.657  0.00  0.00    +0.000 HD
ATOM     18  H   UNL     1      43.137   6.597  10.462  0.00  0.00    +0.000 HD
ATOM     19  H   UNL     1      45.336   2.049  13.034  0.00  0.00    +0.000 HD
ENDBRANCH   1  11
BRANCH   3  20
ATOM     20  C   UNL     1      48.541   7.597  14.638  0.00  0.00    +0.000 C 
BRANCH  20  21
ATOM     21  C   UNL     1      49.157   6.648  15.642  0.00  0.00    +0.000 A 
ATOM     22  C   UNL     1      50.464   6.847  16.078  0.00  0.00    +0.000 A 
ATOM     23  C   UNL     1      51.037   5.920  16.947  0.00  0.00    +0.000 A 
ATOM     24  C   UNL     1      50.296   4.816  17.379  0.00  0.00    +0.000 A 
ATOM     25  C   UNL     1      48.989   4.716  16.917  0.00  0.00    +0.000 A 
ATOM     26  N   UNL     1      48.407   5.597  16.065  0.00  0.00    +0.000 NA
BRANCH  24  27
ATOM     27  C   UNL     1      50.872   3.814  18.345  0.00  0.00    +0.000 C 
BRANCH  27  28
ATOM     28  N   UNL     1      52.086   3.104  17.874  0.00  0.00    +0.000 NA
ATOM     29  C   UNL     1      53.187   3.250  18.844  0.00  0.00    +0.000 C 
ATOM     30  C   UNL     1      54.406   2.385  18.514  0.00  0.00    +0.000 C 
ATOM     31  C   UNL     1      54.015   0.922  18.370  0.00  0.00    +0.000 C 
ATOM     32  C   UNL     1      52.935   0.797  17.308  0.00  0.00    +0.000 C 
ATOM     33  C   UNL     1      51.736   1.689  17.638  0.00  0.00    +0.000 C 
ENDBRANCH  27  28
ENDBRANCH  24  27
ENDBRANCH  20  21
ENDBRANCH   3  20
TORSDOF 5
ENDMDL
MODEL 3
REMARK VINA RESULT:    -7.905      2.244      3.299
REMARK INTER + INTRA:         -10.288
REMARK INTER:                  -9.702
REMARK INTRA:                  -0.586
REMARK UNBOUND:                -0.073
REMARK  Name = 
REMARK  5 active torsions:
REMARK  status: ('A' for Active; 'I' for Inactive)
REMARK    1  A    between atoms: C_7  and  C_8
REMARK    2  A    between atoms: N_10  and  C_11
REMARK    3  A    between atoms: C_11  and  C_12
REMARK    4  A    between atoms: C_15  and  C_16
REMARK    5  A    between atoms: C_16  and  N_17
REMARK                            x       y       z     vdW  Elec       q    Type
REMARK                         _______ _______ _______ _____ _____    ______ ____
ROOT
ATOM      1  C   UNL     1      47.411   3.713  16.469  0.00  0.00    +0.000 C 
ATOM      2  O   UNL     1      46.490   3.715  17.284  0.00  0.00    +0.000 OA
ATOM      3  N   UNL     1      47.258   4.213  15.203  0.00  0.00    +0.000 N 
ATOM      4  H   UNL     1      48.049   4.278  14.571  0.00  0.00    +0.000 HD
ENDROOT
BRANCH   1  11
ATOM      5  N   UNL     1      53.482   4.113  19.329  0.00  0.00    +0.000 N 
ATOM      6  C   UNL     1      52.285   3.898  18.727  0.00  0.00    +0.000 A 
ATOM      7  N   UNL     1      52.073   2.794  18.071  0.00  0.00    +0.000 NA
ATOM      8  C   UNL     1      50.840   2.719  17.515  0.00  0.00    +0.000 A 
ATOM      9  N   UNL     1      50.413   1.653  16.786  0.00  0.00    +0.000 N 
ATOM     10  C   UNL     1      49.137   1.896  16.346  0.00  0.00    +0.000 A 
ATOM     11  C   UNL     1      48.721   3.145  16.803  0.00  0.00    +0.000 A 
ATOM     12  C   UNL     1      49.822   3.645  17.563  0.00  0.00    +0.000 A 
ATOM     13  C   UNL     1      50.080   4.852  18.309  0.00  0.00    +0.000 A 
ATOM     14  O   UNL     1      49.261   5.753  18.463  0.00  0.00    +0.000 OA
ATOM     15  N   UNL     1      51.351   4.902  18.849  0.00  0.00    +0.000 N 
ATOM     16  H   UNL     1      54.191   3.456  19.015  0.00  0.00    +0.000 HD
ATOM     17  H   UNL     1      53.819   5.066  19.360  0.00  0.00    +0.000 HD
ATOM     18  H   UNL     1      50.965   0.825  16.598  0.00  0.00    +0.000 HD
ATOM     19  H   UNL     1      51.553   5.711  19.411  0.00  0.00    +0.000 HD
ENDBRANCH   1  11
BRANCH   3  20
ATOM     20  C   UNL     1      45.986   4.710  14.721  0.00  0.00    +0.000 C 
BRANCH  20  21
ATOM     21  C   UNL     1      45.738   4.427  13.256  0.00  0.00    +0.000 A 
ATOM     22  C   UNL     1      45.919   5.434  12.311  0.00  0.00    +0.000 A 
ATOM     23  C   UNL     1      45.614   5.173  10.976  0.00  0.00    +0.000 A 
ATOM     24  C   UNL     1      45.147   3.910  10.600  0.00  0.00    +0.000 A 
ATOM     25  C   UNL     1      45.027   2.958  11.605  0.00  0.00    +0.000 A 
ATOM     26  N   UNL     1      45.308   3.184  12.914  0.00  0.00    +0.000 NA
BRANCH  24  27
ATOM     27  C   UNL     1      44.842   3.584   9.161  0.00  0.00    +0.000 C 
BRANCH  27  28
ATOM     28  N   UNL     1      45.989   3.082   8.367  0.00  0.00    +0.000 NA
ATOM     29  C   UNL     1      46.020   1.608   8.368  0.00  0.00    +0.000 C 
ATOM     30  C   UNL     1      47.063   1.022   7.412  0.00  0.00    +0.000 C 
ATOM     31  C   UNL     1      46.868   1.549   5.999  0.00  0.00    +0.000 C 
ATOM     32  C   UNL     1      46.919   3.068   6.023  0.00  0.00    +0.000 C 
ATOM     33  C   UNL     1      45.890   3.636   7.002  0.00  0.00    +0.000 C 
ENDBRANCH  27  28
ENDBRANCH  24  27
ENDBRANCH  20  21
ENDBRANCH   3  20
TORSDOF 5
ENDMDL
MODEL 4
REMARK VINA RESULT:    -7.904      2.386      3.563
REMARK INTER + INTRA:         -10.287
REMARK INTER:                  -9.516
REMARK INTRA:                  -0.771
REMARK UNBOUND:                -0.073
REMARK  Name = 
REMARK  5 active torsions:
REMARK  status: ('A' for Active; 'I' for Inactive)
REMARK    1  A    between atoms: C_7  and  C_8
REMARK    2  A    between atoms: N_10  and  C_11
REMARK    3  A    between atoms: C_11  and  C_12
REMARK    4  A    between atoms: C_15  and  C_16
REMARK    5  A    between atoms: C_16  and  N_17
REMARK                            x       y       z     vdW  Elec       q    Type
REMARK                         _______ _______ _______ _____ _____    ______ ____
ROOT
ATOM      1  C   UNL     1      49.891   6.431  16.833  0.00  0.00    +0.000 C 
ATOM      2  O   UNL     1      49.101   6.912  17.643  0.00  0.00    +0.000 OA
ATOM      3  N   UNL     1      49.862   6.768  15.506  0.00  0.00    +0.000 N 
ATOM      4  H   UNL     1      50.571   6.424  14.866  0.00  0.00    +0.000 HD
ENDROOT
BRANCH   1  11
ATOM      5  N   UNL     1      51.788   0.110  18.119  0.00  0.00    +0.000 N 
ATOM      6  C   UNL     1      51.539   1.423  17.876  0.00  0.00    +0.000 A 
ATOM      7  N   UNL     1      52.453   2.317  18.121  0.00  0.00    +0.000 NA
ATOM      8  C   UNL     1      52.064   3.583  17.840  0.00  0.00    +0.000 A 
ATOM      9  N   UNL     1      52.863   4.669  18.024  0.00  0.00    +0.000 N 
ATOM     10  C   UNL     1      52.170   5.798  17.671  0.00  0.00    +0.000 A 
ATOM     11  C   UNL     1      50.893   5.441  17.243  0.00  0.00    +0.000 A 
ATOM     12  C   UNL     1      50.854   4.018  17.345  0.00  0.00    +0.000 A 
ATOM     13  C   UNL     1      49.867   3.003  17.069  0.00  0.00    +0.000 A 
ATOM     14  O   UNL     1      48.756   3.235  16.601  0.00  0.00    +0.000 OA
ATOM     15  N   UNL     1      50.290   1.726  17.381  0.00  0.00    +0.000 N 
ATOM     16  H   UNL     1      52.620  -0.021  18.687  0.00  0.00    +0.000 HD
ATOM     17  H   UNL     1      51.010  -0.458  18.426  0.00  0.00    +0.000 HD
ATOM     18  H   UNL     1      53.812   4.632  18.376  0.00  0.00    +0.000 HD
ATOM     19  H   UNL     1      49.643   0.987  17.164  0.00  0.00    +0.000 HD
ENDBRANCH   1  11
BRANCH   3  20
ATOM     20  C   UNL     1      48.858   7.658  14.959  0.00  0.00    +0.000 C 
BRANCH  20  21
ATOM     21  C   UNL     1      47.809   6.955  14.127  0.00  0.00    +0.000 A 
ATOM     22  C   UNL     1      46.960   7.693  13.307  0.00  0.00    +0.000 A 
ATOM     23  C   UNL     1      45.954   7.033  12.605  0.00  0.00    +0.000 A 
ATOM     24  C   UNL     1      45.815   5.646  12.719  0.00  0.00    +0.000 A 
ATOM     25  C   UNL     1      46.727   4.988  13.536  0.00  0.00    +0.000 A 
ATOM     26  N   UNL     1      47.712   5.604  14.238  0.00  0.00    +0.000 NA
BRANCH  24  27
ATOM     27  C   UNL     1      44.760   4.898  11.947  0.00  0.00    +0.000 C 
BRANCH  27  28
ATOM     28  N   UNL     1      45.258   4.105  10.797  0.00  0.00    +0.000 NA
ATOM     29  C   UNL     1      44.332   3.000  10.484  0.00  0.00    +0.000 C 
ATOM     30  C   UNL     1      44.686   2.259   9.192  0.00  0.00    +0.000 C 
ATOM     31  C   UNL     1      44.781   3.222   8.018  0.00  0.00    +0.000 C 
ATOM     32  C   UNL     1      45.800   4.303   8.342  0.00  0.00    +0.000 C 
ATOM     33  C   UNL     1      45.448   5.014   9.650  0.00  0.00    +0.000 C 
ENDBRANCH  27  28
ENDBRANCH  24  27
ENDBRANCH  20  21
ENDBRANCH   3  20
TORSDOF 5
ENDMDL
MODEL 5
REMARK VINA RESULT:    -7.760      3.259      9.078
REMARK INTER + INTRA:         -10.101
REMARK INTER:                  -9.362
REMARK INTRA:                  -0.739
REMARK UNBOUND:                -0.073
REMARK  Name = 
REMARK  5 active torsions:
REMARK  status: ('A' for Active; 'I' for Inactive)
REMARK    1  A    between atoms: C_7  and  C_8
REMARK    2  A    between atoms: N_10  and  C_11
REMARK    3  A    between atoms: C_11  and  C_12
REMARK    4  A    between atoms: C_15  and  C_16
REMARK    5  A    between atoms: C_16  and  N_17
REMARK                            x       y       z     vdW  Elec       q    Type
REMARK                         _______ _______ _______ _____ _____    ______ ____
ROOT
ATOM      1  C   UNL     1      44.063   4.121  10.362  0.00  0.00    +0.000 C 
ATOM      2  O   UNL     1      42.944   3.930  10.834  0.00  0.00    +0.000 OA
ATOM      3  N   UNL     1      44.738   5.297  10.557  0.00  0.00    +0.000 N 
ATOM      4  H   UNL     1      45.693   5.408  10.230  0.00  0.00    +0.000 HD
ENDROOT
BRANCH   1  11
ATOM      5  N   UNL     1      48.360   2.309   5.520  0.00  0.00    +0.000 N 
ATOM      6  C   UNL     1      47.477   2.538   6.525  0.00  0.00    +0.000 A 
ATOM      7  N   UNL     1      46.803   1.551   7.041  0.00  0.00    +0.000 NA
ATOM      8  C   UNL     1      45.954   1.928   8.027  0.00  0.00    +0.000 A 
ATOM      9  N   UNL     1      45.154   1.056   8.698  0.00  0.00    +0.000 N 
ATOM     10  C   UNL     1      44.403   1.752   9.610  0.00  0.00    +0.000 A 
ATOM     11  C   UNL     1      44.725   3.106   9.537  0.00  0.00    +0.000 A 
ATOM     12  C   UNL     1      45.731   3.191   8.528  0.00  0.00    +0.000 A 
ATOM     13  C   UNL     1      46.504   4.262   7.948  0.00  0.00    +0.000 A 
ATOM     14  O   UNL     1      46.434   5.433   8.309  0.00  0.00    +0.000 OA
ATOM     15  N   UNL     1      47.347   3.846   6.936  0.00  0.00    +0.000 N 
ATOM     16  H   UNL     1      48.243   1.384   5.115  0.00  0.00    +0.000 HD
ATOM     17  H   UNL     1      48.464   3.032   4.822  0.00  0.00    +0.000 HD
ATOM     18  H   UNL     1      45.123   0.058   8.530  0.00  0.00    +0.000 HD
ATOM     19  H   UNL     1      47.932   4.560   6.535  0.00  0.00    +0.000 HD
ENDBRANCH   1  11
BRANCH   3  20
ATOM     20  C   UNL     1      44.152   6.413  11.269  0.00  0.00    +0.000 C 
BRANCH  20  21
ATOM     21  C   UNL     1      45.153   7.224  12.062  0.00  0.00    +0.000 A 
ATOM     22  C   UNL     1      45.126   8.614  12.004  0.00  0.00    +0.000 A 
ATOM     23  C   UNL     1      46.102   9.340  12.683  0.00  0.00    +0.000 A 
ATOM     24  C   UNL     1      47.083   8.671  13.422  0.00  0.00    +0.000 A 
ATOM     25  C   UNL     1      47.013   7.283  13.449  0.00  0.00    +0.000 A 
ATOM     26  N   UNL     1      46.080   6.549  12.791  0.00  0.00    +0.000 NA
BRANCH  24  27
ATOM     27  C   UNL     1      48.131   9.426  14.197  0.00  0.00    +0.000 C 
BRANCH  27  28
ATOM     28  N   UNL     1      48.985   8.598  15.082  0.00  0.00    +0.000 NA
ATOM     29  C   UNL     1      50.413   8.821  14.789  0.00  0.00    +0.000 C 
ATOM     30  C   UNL     1      51.351   8.145  15.792  0.00  0.00    +0.000 C 
ATOM     31  C   UNL     1      51.028   8.569  17.217  0.00  0.00    +0.000 C 
ATOM     32  C   UNL     1      49.570   8.254  17.511  0.00  0.00    +0.000 C 
ATOM     33  C   UNL     1      48.648   8.914  16.485  0.00  0.00    +0.000 C 
ENDBRANCH  27  28
ENDBRANCH  24  27
ENDBRANCH  20  21
ENDBRANCH   3  20
TORSDOF 5
ENDMDL
MODEL 6
REMARK VINA RESULT:    -7.646      3.551      8.708
REMARK INTER + INTRA:          -9.954
REMARK INTER:                  -9.379
REMARK INTRA:                  -0.575
REMARK UNBOUND:                -0.073
REMARK  Name = 
REMARK  5 active torsions:
REMARK  status: ('A' for Active; 'I' for Inactive)
REMARK    1  A    between atoms: C_7  and  C_8
REMARK    2  A    between atoms: N_10  and  C_11
REMARK    3  A    between atoms: C_11  and  C_12
REMARK    4  A    between atoms: C_15  and  C_16
REMARK    5  A    between atoms: C_16  and  N_17
REMARK                            x       y       z     vdW  Elec       q    Type
REMARK                         _______ _______ _______ _____ _____    ______ ____
ROOT
ATOM      1  C   UNL     1      44.144   4.085  10.511  0.00  0.00    +0.000 C 
ATOM      2  O   UNL     1      43.009   3.910  10.950  0.00  0.00    +0.000 OA
ATOM      3  N   UNL     1      44.868   5.210  10.803  0.00  0.00    +0.000 N 
ATOM      4  H   UNL     1      45.832   5.302  10.500  0.00  0.00    +0.000 HD
ENDROOT
BRANCH   1  11
ATOM      5  N   UNL     1      48.206   2.481   5.399  0.00  0.00    +0.000 N 
ATOM      6  C   UNL     1      47.373   2.667   6.455  0.00  0.00    +0.000 A 
ATOM      7  N   UNL     1      46.740   1.656   6.974  0.00  0.00    +0.000 NA
ATOM      8  C   UNL     1      45.939   1.990   8.014  0.00  0.00    +0.000 A 
ATOM      9  N   UNL     1      45.186   1.087   8.698  0.00  0.00    +0.000 N 
ATOM     10  C   UNL     1      44.475   1.744   9.669  0.00  0.00    +0.000 A 
ATOM     11  C   UNL     1      44.775   3.104   9.621  0.00  0.00    +0.000 A 
ATOM     12  C   UNL     1      45.726   3.235   8.565  0.00  0.00    +0.000 A 
ATOM     13  C   UNL     1      46.454   4.334   7.979  0.00  0.00    +0.000 A 
ATOM     14  O   UNL     1      46.388   5.492   8.379  0.00  0.00    +0.000 OA
ATOM     15  N   UNL     1      47.248   3.961   6.912  0.00  0.00    +0.000 N 
ATOM     16  H   UNL     1      48.080   1.567   4.971  0.00  0.00    +0.000 HD
ATOM     17  H   UNL     1      48.263   3.227   4.719  0.00  0.00    +0.000 HD
ATOM     18  H   UNL     1      45.159   0.094   8.502  0.00  0.00    +0.000 HD
ATOM     19  H   UNL     1      47.802   4.694   6.504  0.00  0.00    +0.000 HD
ENDBRANCH   1  11
BRANCH   3  20
ATOM     20  C   UNL     1      44.319   6.296  11.589  0.00  0.00    +0.000 C 
BRANCH  20  21
ATOM     21  C   UNL     1      45.363   7.100  12.331  0.00  0.00    +0.000 A 
ATOM     22  C   UNL     1      45.361   8.490  12.250  0.00  0.00    +0.000 A 
ATOM     23  C   UNL     1      46.375   9.207  12.881  0.00  0.00    +0.000 A 
ATOM     24  C   UNL     1      47.368   8.532  13.596  0.00  0.00    +0.000 A 
ATOM     25  C   UNL     1      47.273   7.146  13.649  0.00  0.00    +0.000 A 
ATOM     26  N   UNL     1      46.303   6.420  13.038  0.00  0.00    +0.000 NA
BRANCH  24  27
ATOM     27  C   UNL     1      48.459   9.278  14.319  0.00  0.00    +0.000 C 
BRANCH  27  28
ATOM     28  N   UNL     1      49.632   9.647  13.491  0.00  0.00    +0.000 NA
ATOM     29  C   UNL     1      49.848   8.656  12.421  0.00  0.00    +0.000 C 
ATOM     30  C   UNL     1      50.923   9.074  11.414  0.00  0.00    +0.000 C 
ATOM     31  C   UNL     1      50.615  10.439  10.820  0.00  0.00    +0.000 C 
ATOM     32  C   UNL     1      50.475  11.452  11.945  0.00  0.00    +0.000 C 
ATOM     33  C   UNL     1      49.418  11.006  12.956  0.00  0.00    +0.000 C 
ENDBRANCH  27  28
ENDBRANCH  24  27
ENDBRANCH  20  21
ENDBRANCH   3  20
TORSDOF 5
ENDMDL
MODEL 7
REMARK VINA RESULT:    -7.598      2.915      7.835
REMARK INTER + INTRA:          -9.892
REMARK INTER:                  -9.171
REMARK INTRA:                  -0.721
REMARK UNBOUND:                -0.073
REMARK  Name = 
REMARK  5 active torsions:
REMARK  status: ('A' for Active; 'I' for Inactive)
REMARK    1  A    between atoms: C_7  and  C_8
REMARK    2  A    between atoms: N_10  and  C_11
REMARK    3  A    between atoms: C_11  and  C_12
REMARK    4  A    between atoms: C_15  and  C_16
REMARK    5  A    between atoms: C_16  and  N_17
REMARK                            x       y       z     vdW  Elec       q    Type
REMARK                         _______ _______ _______ _____ _____    ______ ____
ROOT
ATOM      1  C   UNL     1      47.241   7.576  12.629  0.00  0.00    +0.000 C 
ATOM      2  O   UNL     1      48.326   7.390  12.081  0.00  0.00    +0.000 OA
ATOM      3  N   UNL     1      47.110   8.405  13.711  0.00  0.00    +0.000 N 
ATOM      4  H   UNL     1      46.195   8.610  14.101  0.00  0.00    +0.000 HD
ENDROOT
BRANCH   1  11
ATOM      5  N   UNL     1      43.493   2.047  11.867  0.00  0.00    +0.000 N 
ATOM      6  C   UNL     1      44.140   3.236  11.973  0.00  0.00    +0.000 A 
ATOM      7  N   UNL     1      43.632   4.306  11.434  0.00  0.00    +0.000 NA
ATOM      8  C   UNL     1      44.388   5.416  11.611  0.00  0.00    +0.000 A 
ATOM      9  N   UNL     1      44.043   6.640  11.127  0.00  0.00    +0.000 N 
ATOM     10  C   UNL     1      45.025   7.540  11.453  0.00  0.00    +0.000 A 
ATOM     11  C   UNL     1      46.029   6.891  12.168  0.00  0.00    +0.000 A 
ATOM     12  C   UNL     1      45.591   5.536  12.271  0.00  0.00    +0.000 A 
ATOM     13  C   UNL     1      46.122   4.336  12.870  0.00  0.00    +0.000 A 
ATOM     14  O   UNL     1      47.167   4.293  13.512  0.00  0.00    +0.000 OA
ATOM     15  N   UNL     1      45.334   3.221  12.658  0.00  0.00    +0.000 N 
ATOM     16  H   UNL     1      42.754   2.076  11.169  0.00  0.00    +0.000 HD
ATOM     17  H   UNL     1      44.063   1.215  11.799  0.00  0.00    +0.000 HD
ATOM     18  H   UNL     1      43.199   6.835  10.605  0.00  0.00    +0.000 HD
ATOM     19  H   UNL     1      45.652   2.373  13.097  0.00  0.00    +0.000 HD
ENDBRANCH   1  11
BRANCH   3  20
ATOM     20  C   UNL     1      48.248   9.061  14.321  0.00  0.00    +0.000 C 
BRANCH  20  21
ATOM     21  C   UNL     1      48.890   8.259  15.431  0.00  0.00    +0.000 A 
ATOM     22  C   UNL     1      50.000   7.462  15.164  0.00  0.00    +0.000 A 
ATOM     23  C   UNL     1      50.531   6.676  16.184  0.00  0.00    +0.000 A 
ATOM     24  C   UNL     1      49.959   6.706  17.459  0.00  0.00    +0.000 A 
ATOM     25  C   UNL     1      48.874   7.554  17.643  0.00  0.00    +0.000 A 
ATOM     26  N   UNL     1      48.329   8.325  16.667  0.00  0.00    +0.000 NA
BRANCH  24  27
ATOM     27  C   UNL     1      50.531   5.895  18.594  0.00  0.00    +0.000 C 
BRANCH  27  28
ATOM     28  N   UNL     1      50.217   4.446  18.559  0.00  0.00    +0.000 NA
ATOM     29  C   UNL     1      48.801   4.227  18.208  0.00  0.00    +0.000 C 
ATOM     30  C   UNL     1      48.457   2.755  17.967  0.00  0.00    +0.000 C 
ATOM     31  C   UNL     1      49.367   2.145  16.912  0.00  0.00    +0.000 C 
ATOM     32  C   UNL     1      50.814   2.320  17.342  0.00  0.00    +0.000 C 
ATOM     33  C   UNL     1      51.135   3.792  17.606  0.00  0.00    +0.000 C 
ENDBRANCH  27  28
ENDBRANCH  24  27
ENDBRANCH  20  21
ENDBRANCH   3  20
TORSDOF 5
ENDMDL
MODEL 8
REMARK VINA RESULT:    -7.167      3.523      8.689
REMARK INTER + INTRA:          -9.334
REMARK INTER:                  -8.594
REMARK INTRA:                  -0.740
REMARK UNBOUND:                -0.073
REMARK  Name = 
REMARK  5 active torsions:
REMARK  status: ('A' for Active; 'I' for Inactive)
REMARK    1  A    between atoms: C_7  and  C_8
REMARK    2  A    between atoms: N_10  and  C_11
REMARK    3  A    between atoms: C_11  and  C_12
REMARK    4  A    between atoms: C_15  and  C_16
REMARK    5  A    between atoms: C_16  and  N_17
REMARK                            x       y       z     vdW  Elec       q    Type
REMARK                         _______ _______ _______ _____ _____    ______ ____
ROOT
ATOM      1  C   UNL     1      48.155   6.237  13.873  0.00  0.00    +0.000 C 
ATOM      2  O   UNL     1      49.092   6.394  13.093  0.00  0.00    +0.000 OA
ATOM      3  N   UNL     1      48.151   6.800  15.122  0.00  0.00    +0.000 N 
ATOM      4  H   UNL     1      47.335   6.729  15.722  0.00  0.00    +0.000 HD
ENDROOT
BRANCH   1  11
ATOM      5  N   UNL     1      41.855   5.512  11.641  0.00  0.00    +0.000 N 
ATOM      6  C   UNL     1      43.137   5.519  12.088  0.00  0.00    +0.000 A 
ATOM      7  N   UNL     1      43.707   4.407  12.455  0.00  0.00    +0.000 NA
ATOM      8  C   UNL     1      44.981   4.566  12.886  0.00  0.00    +0.000 A 
ATOM      9  N   UNL     1      45.758   3.535  13.317  0.00  0.00    +0.000 N 
ATOM     10  C   UNL     1      46.977   4.028  13.704  0.00  0.00    +0.000 A 
ATOM     11  C   UNL     1      46.999   5.409  13.516  0.00  0.00    +0.000 A 
ATOM     12  C   UNL     1      45.716   5.727  12.976  0.00  0.00    +0.000 A 
ATOM     13  C   UNL     1      45.064   6.940  12.547  0.00  0.00    +0.000 A 
ATOM     14  O   UNL     1      45.600   8.044  12.544  0.00  0.00    +0.000 OA
ATOM     15  N   UNL     1      43.762   6.745  12.129  0.00  0.00    +0.000 N 
ATOM     16  H   UNL     1      41.384   4.635  11.849  0.00  0.00    +0.000 HD
ATOM     17  H   UNL     1      41.287   6.321  11.854  0.00  0.00    +0.000 HD
ATOM     18  H   UNL     1      45.463   2.567  13.351  0.00  0.00    +0.000 HD
ATOM     19  H   UNL     1      43.288   7.563  11.784  0.00  0.00    +0.000 HD
ENDBRANCH   1  11
BRANCH   3  20
ATOM     20  C   UNL     1      49.276   7.557  15.628  0.00  0.00    +0.000 C 
BRANCH  20  21
ATOM     21  C   UNL     1      50.307   6.712  16.343  0.00  0.00    +0.000 A 
ATOM     22  C   UNL     1      51.664   6.936  16.126  0.00  0.00    +0.000 A 
ATOM     23  C   UNL     1      52.595   6.099  16.738  0.00  0.00    +0.000 A 
ATOM     24  C   UNL     1      52.163   5.059  17.566  0.00  0.00    +0.000 A 
ATOM     25  C   UNL     1      50.791   4.930  17.750  0.00  0.00    +0.000 A 
ATOM     26  N   UNL     1      49.860   5.724  17.162  0.00  0.00    +0.000 NA
BRANCH  24  27
ATOM     27  C   UNL     1      53.144   4.158  18.270  0.00  0.00    +0.000 C 
BRANCH  27  28
ATOM     28  N   UNL     1      53.559   2.955  17.509  0.00  0.00    +0.000 NA
ATOM     29  C   UNL     1      55.021   2.774  17.576  0.00  0.00    +0.000 C 
ATOM     30  C   UNL     1      55.497   1.449  16.974  0.00  0.00    +0.000 C 
ATOM     31  C   UNL     1      54.785   0.269  17.618  0.00  0.00    +0.000 C 
ATOM     32  C   UNL     1      53.283   0.448  17.463  0.00  0.00    +0.000 C 
ATOM     33  C   UNL     1      52.829   1.789  18.044  0.00  0.00    +0.000 C 
ENDBRANCH  27  28
ENDBRANCH  24  27
ENDBRANCH  20  21
ENDBRANCH   3  20
TORSDOF 5
ENDMDL
MODEL 9
REMARK VINA RESULT:    -6.547      3.237      4.724
REMARK INTER + INTRA:          -8.534
REMARK INTER:                  -7.899
REMARK INTRA:                  -0.635
REMARK UNBOUND:                -0.073
REMARK  Name = 
REMARK  5 active torsions:
REMARK  status: ('A' for Active; 'I' for Inactive)
REMARK    1  A    between atoms: C_7  and  C_8
REMARK    2  A    between atoms: N_10  and  C_11
REMARK    3  A    between atoms: C_11  and  C_12
REMARK    4  A    between atoms: C_15  and  C_16
REMARK    5  A    between atoms: C_16  and  N_17
REMARK                            x       y       z     vdW  Elec       q    Type
REMARK                         _______ _______ _______ _____ _____    ______ ____
ROOT
ATOM      1  C   UNL     1      50.636   6.744  17.265  0.00  0.00    +0.000 C 
ATOM      2  O   UNL     1      49.707   6.994  18.031  0.00  0.00    +0.000 OA
ATOM      3  N   UNL     1      50.835   7.456  16.113  0.00  0.00    +0.000 N 
ATOM      4  H   UNL     1      51.652   7.292  15.534  0.00  0.00    +0.000 HD
ENDROOT
BRANCH   1  11
ATOM      5  N   UNL     1      52.008   0.215  18.089  0.00  0.00    +0.000 N 
ATOM      6  C   UNL     1      51.869   1.556  17.929  0.00  0.00    +0.000 A 
ATOM      7  N   UNL     1      52.886   2.345  18.121  0.00  0.00    +0.000 NA
ATOM      8  C   UNL     1      52.600   3.656  17.935  0.00  0.00    +0.000 A 
ATOM      9  N   UNL     1      53.516   4.650  18.086  0.00  0.00    +0.000 N 
ATOM     10  C   UNL     1      52.909   5.856  17.851  0.00  0.00    +0.000 A 
ATOM     11  C   UNL     1      51.568   5.644  17.534  0.00  0.00    +0.000 A 
ATOM     12  C   UNL     1      51.398   4.228  17.578  0.00  0.00    +0.000 A 
ATOM     13  C   UNL     1      50.294   3.326  17.356  0.00  0.00    +0.000 A 
ATOM     14  O   UNL     1      49.173   3.686  17.008  0.00  0.00    +0.000 OA
ATOM     15  N   UNL     1      50.616   2.000  17.570  0.00  0.00    +0.000 N 
ATOM     16  H   UNL     1      52.872  -0.024  18.568  0.00  0.00    +0.000 HD
ATOM     17  H   UNL     1      51.210  -0.293  18.446  0.00  0.00    +0.000 HD
ATOM     18  H   UNL     1      54.485   4.505  18.342  0.00  0.00    +0.000 HD
ATOM     19  H   UNL     1      49.881   1.338  17.386  0.00  0.00    +0.000 HD
ENDBRANCH   1  11
BRANCH   3  20
ATOM     20  C   UNL     1      49.926   8.501  15.686  0.00  0.00    +0.000 C 
BRANCH  20  21
ATOM     21  C   UNL     1      48.905   8.042  14.669  0.00  0.00    +0.000 A 
ATOM     22  C   UNL     1      48.827   6.698  14.317  0.00  0.00    +0.000 A 
ATOM     23  C   UNL     1      47.929   6.308  13.325  0.00  0.00    +0.000 A 
ATOM     24  C   UNL     1      47.112   7.260  12.709  0.00  0.00    +0.000 A 
ATOM     25  C   UNL     1      47.235   8.574  13.147  0.00  0.00    +0.000 A 
ATOM     26  N   UNL     1      48.106   8.984  14.103  0.00  0.00    +0.000 NA
BRANCH  24  27
ATOM     27  C   UNL     1      46.106   6.868  11.658  0.00  0.00    +0.000 C 
BRANCH  27  28
ATOM     28  N   UNL     1      45.030   5.958  12.119  0.00  0.00    +0.000 NA
ATOM     29  C   UNL     1      43.740   6.320  11.502  0.00  0.00    +0.000 C 
ATOM     30  C   UNL     1      42.627   5.308  11.784  0.00  0.00    +0.000 C 
ATOM     31  C   UNL     1      43.042   3.906  11.363  0.00  0.00    +0.000 C 
ATOM     32  C   UNL     1      44.332   3.535  12.075  0.00  0.00    +0.000 C 
ATOM     33  C   UNL     1      45.426   4.570  11.806  0.00  0.00    +0.000 C 
ENDBRANCH  27  28
ENDBRANCH  24  27
ENDBRANCH  20  21
ENDBRANCH   3  20
TORSDOF 5
ENDMDL
