MODEL 1
REMARK VINA RESULT:    -8.513      0.000      0.000
REMARK INTER + INTRA:         -13.992
REMARK INTER:                 -12.495
REMARK INTRA:                  -1.497
REMARK UNBOUND:                -1.497
REMARK  Name = 
REMARK  10 active torsions:
REMARK  status: ('A' for Active; 'I' for Inactive)
REMARK    1  A    between atoms: C_1  and  O_2
REMARK    2  A    between atoms: O_2  and  C_3
REMARK    3  A    between atoms: C_10  and  C_11
REMARK    4  A    between atoms: N_13  and  C_14
REMARK    5  A    between atoms: C_14  and  C_15
REMARK    6  A    between atoms: C_18  and  C_19
REMARK    7  A    between atoms: C_19  and  N_20
REMARK    8  A    between atoms: N_20  and  C_21
REMARK    9  A    between atoms: N_20  and  C_22
REMARK   10  A    between atoms: C_22  and  C_23
REMARK                            x       y       z     vdW  Elec       q    Type
REMARK                         _______ _______ _______ _____ _____    ______ ____
ROOT
ATOM      1  C   UNL     1      46.373   7.444  12.608  0.00  0.00    +0.000 A 
ATOM      2  C   UNL     1      47.013   6.717  11.610  0.00  0.00    +0.000 A 
ATOM      3  C   UNL     1      46.252   5.904  10.775  0.00  0.00    +0.000 A 
ATOM      4  C   UNL     1      44.874   5.801  10.973  0.00  0.00    +0.000 A 
ATOM      5  C   UNL     1      44.320   6.576  11.981  0.00  0.00    +0.000 A 
ATOM      6  N   UNL     1      45.031   7.383  12.807  0.00  0.00    +0.000 NA
ENDROOT
BRANCH   1   7
ATOM      7  C   UNL     1      47.193   8.279  13.566  0.00  0.00    +0.000 C 
BRANCH   7  10
ATOM      8  C   UNL     1      48.855   6.916  14.779  0.00  0.00    +0.000 C 
ATOM      9  O   UNL     1      49.651   6.992  13.845  0.00  0.00    +0.000 OA
ATOM     10  N   UNL     1      47.622   7.499  14.709  0.00  0.00    +0.000 N 
ATOM     11  H   UNL     1      47.013   7.515  15.517  0.00  0.00    +0.000 HD
BRANCH   8  19
ATOM     12  C   UNL     1      47.431   4.257  16.452  0.00  0.00    +0.000 A 
ATOM     13  N   UNL     1      47.062   3.299  17.328  0.00  0.00    +0.000 NA
ATOM     14  C   UNL     1      47.809   3.119  18.418  0.00  0.00    +0.000 A 
ATOM     15  N   UNL     1      48.905   3.789  18.756  0.00  0.00    +0.000 NA
ATOM     16  C   UNL     1      49.230   4.749  17.872  0.00  0.00    +0.000 A 
ATOM     17  S   UNL     1      50.610   5.696  18.136  0.00  0.00    +0.000 S 
ATOM     18  C   UNL     1      50.333   6.585  16.716  0.00  0.00    +0.000 A 
ATOM     19  C   UNL     1      49.199   6.191  16.015  0.00  0.00    +0.000 A 
ATOM     20  C   UNL     1      48.552   5.070  16.696  0.00  0.00    +0.000 A 
BRANCH  12  22
ATOM     21  C   UNL     1      47.123   3.593  14.225  0.00  0.00    +0.000 C 
ATOM     22  O   UNL     1      46.679   4.413  15.304  0.00  0.00    +0.000 OA
ENDBRANCH  12  22
ENDBRANCH   8  19
ENDBRANCH   7  10
ENDBRANCH   1   7
BRANCH   4  23
ATOM     23  C   UNL     1      44.026   4.852  10.161  0.00  0.00    +0.000 C 
BRANCH  23  24
ATOM     24  N   UNL     1      44.348   3.430  10.405  0.00  0.00    +0.000 NA
ATOM     25  C   UNL     1      43.524   2.876  11.489  0.00  0.00    +0.000 C 
BRANCH  24  26
ATOM     26  C   UNL     1      44.143   2.624   9.186  0.00  0.00    +0.000 C 
BRANCH  26  27
ATOM     27  C   UNL     1      45.374   2.477   8.311  0.00  0.00    +0.000 A 
ATOM     28  C   UNL     1      46.058   1.253   8.220  0.00  0.00    +0.000 A 
ATOM     29  C   UNL     1      47.145   1.114   7.353  0.00  0.00    +0.000 A 
ATOM     30  C   UNL     1      47.560   2.201   6.593  0.00  0.00    +0.000 A 
ATOM     31  F   UNL     1      48.588   2.061   5.744  0.00  0.00    +0.000 F 
ATOM     32  C   UNL     1      46.921   3.429   6.694  0.00  0.00    +0.000 A 
ATOM     33  C   UNL     1      45.827   3.567   7.549  0.00  0.00    +0.000 A 
ENDBRANCH  26  27
ENDBRANCH  24  26
ENDBRANCH  23  24
ENDBRANCH   4  23
TORSDOF 8
ENDMDL
MODEL 2
REMARK VINA RESULT:    -7.520      1.678      2.239
REMARK INTER + INTRA:         -12.533
REMARK INTER:                 -11.182
REMARK INTRA:                  -1.352
REMARK UNBOUND:                -1.497
REMARK  Name = 
REMARK  10 active torsions:
REMARK  status: ('A' for Active; 'I' for Inactive)
REMARK    1  A    between atoms: C_1  and  O_2
REMARK    2  A    between atoms: O_2  and  C_3
REMARK    3  A    between atoms: C_10  and  C_11
REMARK    4  A    between atoms: N_13  and  C_14
REMARK    5  A    between atoms: C_14  and  C_15
REMARK    6  A    between atoms: C_18  and  C_19
REMARK    7  A    between atoms: C_19  and  N_20
REMARK    8  A    between atoms: N_20  and  C_21
REMARK    9  A    between atoms: N_20  and  C_22
REMARK   10  A    between atoms: C_22  and  C_23
REMARK                            x       y       z     vdW  Elec       q    Type
REMARK                         _______ _______ _______ _____ _____    ______ ____
ROOT
ATOM      1  C   UNL     1      47.909   6.859  13.407  0.00  0.00    +0.000 A 
ATOM      2  C   UNL     1      46.969   7.812  13.031  0.00  0.00    +0.000 A 
ATOM      3  C   UNL     1      45.721   7.388  12.581  0.00  0.00    +0.000 A 
ATOM      4  C   UNL     1      45.447   6.022  12.480  0.00  0.00    +0.000 A 
ATOM      5  C   UNL     1      46.438   5.145  12.894  0.00  0.00    +0.000 A 
ATOM      6  N   UNL     1      47.660   5.525  13.343  0.00  0.00    +0.000 NA
ENDROOT
BRANCH   1   7
ATOM      7  C   UNL     1      49.291   7.301  13.834  0.00  0.00    +0.000 C 
BRANCH   7  10
ATOM      8  C   UNL     1      49.109   7.960  16.206  0.00  0.00    +0.000 C 
ATOM      9  O   UNL     1      48.588   9.033  15.905  0.00  0.00    +0.000 OA
ATOM     10  N   UNL     1      49.503   7.070  15.249  0.00  0.00    +0.000 N 
ATOM     11  H   UNL     1      49.840   6.151  15.507  0.00  0.00    +0.000 HD
BRANCH   8  19
ATOM     12  C   UNL     1      48.634   5.059  18.011  0.00  0.00    +0.000 A 
ATOM     13  N   UNL     1      48.495   4.105  18.955  0.00  0.00    +0.000 NA
ATOM     14  C   UNL     1      48.843   4.401  20.208  0.00  0.00    +0.000 A 
ATOM     15  N   UNL     1      49.325   5.556  20.652  0.00  0.00    +0.000 NA
ATOM     16  C   UNL     1      49.432   6.489  19.689  0.00  0.00    +0.000 A 
ATOM     17  S   UNL     1      50.042   8.021  20.074  0.00  0.00    +0.000 S 
ATOM     18  C   UNL     1      49.858   8.553  18.472  0.00  0.00    +0.000 A 
ATOM     19  C   UNL     1      49.332   7.592  17.615  0.00  0.00    +0.000 A 
ATOM     20  C   UNL     1      49.101   6.344  18.342  0.00  0.00    +0.000 A 
BRANCH  12  22
ATOM     21  C   UNL     1      47.079   4.029  16.592  0.00  0.00    +0.000 C 
ATOM     22  O   UNL     1      48.311   4.737  16.708  0.00  0.00    +0.000 OA
ENDBRANCH  12  22
ENDBRANCH   8  19
ENDBRANCH   7  10
ENDBRANCH   1   7
BRANCH   4  23
ATOM     23  C   UNL     1      44.149   5.517  11.898  0.00  0.00    +0.000 C 
BRANCH  23  24
ATOM     24  N   UNL     1      44.270   4.180  11.279  0.00  0.00    +0.000 NA
ATOM     25  C   UNL     1      43.375   3.210  11.925  0.00  0.00    +0.000 C 
BRANCH  24  26
ATOM     26  C   UNL     1      43.958   4.235   9.837  0.00  0.00    +0.000 C 
BRANCH  26  27
ATOM     27  C   UNL     1      44.958   3.519   8.947  0.00  0.00    +0.000 A 
ATOM     28  C   UNL     1      45.740   4.227   8.018  0.00  0.00    +0.000 A 
ATOM     29  C   UNL     1      46.708   3.564   7.260  0.00  0.00    +0.000 A 
ATOM     30  C   UNL     1      46.881   2.194   7.414  0.00  0.00    +0.000 A 
ATOM     31  F   UNL     1      47.826   1.562   6.703  0.00  0.00    +0.000 F 
ATOM     32  C   UNL     1      46.096   1.470   8.300  0.00  0.00    +0.000 A 
ATOM     33  C   UNL     1      45.138   2.131   9.069  0.00  0.00    +0.000 A 
ENDBRANCH  26  27
ENDBRANCH  24  26
ENDBRANCH  23  24
ENDBRANCH   4  23
TORSDOF 8
ENDMDL
MODEL 3
REMARK VINA RESULT:    -7.492      2.242      2.856
REMARK INTER + INTRA:         -12.493
REMARK INTER:                 -11.647
REMARK INTRA:                  -0.846
REMARK UNBOUND:                -1.497
REMARK  Name = 
REMARK  10 active torsions:
REMARK  status: ('A' for Active; 'I' for Inactive)
REMARK    1  A    between atoms: C_1  and  O_2
REMARK    2  A    between atoms: O_2  and  C_3
REMARK    3  A    between atoms: C_10  and  C_11
REMARK    4  A    between atoms: N_13  and  C_14
REMARK    5  A    between atoms: C_14  and  C_15
REMARK    6  A    between atoms: C_18  and  C_19
REMARK    7  A    between atoms: C_19  and  N_20
REMARK    8  A    between atoms: N_20  and  C_21
REMARK    9  A    between atoms: N_20  and  C_22
REMARK   10  A    between atoms: C_22  and  C_23
REMARK                            x       y       z     vdW  Elec       q    Type
REMARK                         _______ _______ _______ _____ _____    ______ ____
ROOT
ATOM      1  C   UNL     1      48.038   6.806  14.438  0.00  0.00    +0.000 A 
ATOM      2  C   UNL     1      47.522   5.517  14.355  0.00  0.00    +0.000 A 
ATOM      3  C   UNL     1      46.868   5.127  13.190  0.00  0.00    +0.000 A 
ATOM      4  C   UNL     1      46.708   6.039  12.145  0.00  0.00    +0.000 A 
ATOM      5  C   UNL     1      47.271   7.295  12.309  0.00  0.00    +0.000 A 
ATOM      6  N   UNL     1      47.919   7.706  13.428  0.00  0.00    +0.000 NA
ENDROOT
BRANCH   1   7
ATOM      7  C   UNL     1      48.692   7.267  15.722  0.00  0.00    +0.000 C 
BRANCH   7  10
ATOM      8  C   UNL     1      49.984   6.032  17.424  0.00  0.00    +0.000 C 
ATOM      9  O   UNL     1      49.312   6.512  18.335  0.00  0.00    +0.000 OA
ATOM     10  N   UNL     1      49.758   6.371  16.120  0.00  0.00    +0.000 N 
ATOM     11  H   UNL     1      50.250   5.899  15.373  0.00  0.00    +0.000 HD
BRANCH   8  19
ATOM     12  C   UNL     1      50.282   2.615  17.061  0.00  0.00    +0.000 A 
ATOM     13  N   UNL     1      50.647   1.316  17.087  0.00  0.00    +0.000 NA
ATOM     14  C   UNL     1      51.859   1.010  17.552  0.00  0.00    +0.000 A 
ATOM     15  N   UNL     1      52.778   1.855  18.005  0.00  0.00    +0.000 NA
ATOM     16  C   UNL     1      52.373   3.137  17.984  0.00  0.00    +0.000 A 
ATOM     17  S   UNL     1      53.424   4.355  18.515  0.00  0.00    +0.000 S 
ATOM     18  C   UNL     1      52.266   5.558  18.208  0.00  0.00    +0.000 A 
ATOM     19  C   UNL     1      51.066   5.071  17.702  0.00  0.00    +0.000 A 
ATOM     20  C   UNL     1      51.141   3.619  17.543  0.00  0.00    +0.000 A 
BRANCH  12  22
ATOM     21  C   UNL     1      48.000   2.903  17.515  0.00  0.00    +0.000 C 
ATOM     22  O   UNL     1      49.042   2.932  16.542  0.00  0.00    +0.000 OA
ENDBRANCH  12  22
ENDBRANCH   8  19
ENDBRANCH   7  10
ENDBRANCH   1   7
BRANCH   4  23
ATOM     23  C   UNL     1      45.915   5.693  10.907  0.00  0.00    +0.000 C 
BRANCH  23  24
ATOM     24  N   UNL     1      44.668   4.956  11.203  0.00  0.00    +0.000 NA
ATOM     25  C   UNL     1      43.689   5.815  11.884  0.00  0.00    +0.000 C 
BRANCH  24  26
ATOM     26  C   UNL     1      44.062   4.424   9.967  0.00  0.00    +0.000 C 
BRANCH  26  27
ATOM     27  C   UNL     1      45.005   3.608   9.101  0.00  0.00    +0.000 A 
ATOM     28  C   UNL     1      45.162   2.226   9.301  0.00  0.00    +0.000 A 
ATOM     29  C   UNL     1      45.977   1.477   8.448  0.00  0.00    +0.000 A 
ATOM     30  C   UNL     1      46.648   2.110   7.409  0.00  0.00    +0.000 A 
ATOM     31  F   UNL     1      47.411   1.387   6.576  0.00  0.00    +0.000 F 
ATOM     32  C   UNL     1      46.534   3.480   7.214  0.00  0.00    +0.000 A 
ATOM     33  C   UNL     1      45.711   4.228   8.056  0.00  0.00    +0.000 A 
ENDBRANCH  26  27
ENDBRANCH  24  26
ENDBRANCH  23  24
ENDBRANCH   4  23
TORSDOF 8
ENDMDL
MODEL 4
REMARK VINA RESULT:    -7.309      1.443      1.866
REMARK INTER + INTRA:         -12.225
REMARK INTER:                 -10.820
REMARK INTRA:                  -1.405
REMARK UNBOUND:                -1.497
REMARK  Name = 
REMARK  10 active torsions:
REMARK  status: ('A' for Active; 'I' for Inactive)
REMARK    1  A    between atoms: C_1  and  O_2
REMARK    2  A    between atoms: O_2  and  C_3
REMARK    3  A    between atoms: C_10  and  C_11
REMARK    4  A    between atoms: N_13  and  C_14
REMARK    5  A    between atoms: C_14  and  C_15
REMARK    6  A    between atoms: C_18  and  C_19
REMARK    7  A    between atoms: C_19  and  N_20
REMARK    8  A    between atoms: N_20  and  C_21
REMARK    9  A    between atoms: N_20  and  C_22
REMARK   10  A    between atoms: C_22  and  C_23
REMARK                            x       y       z     vdW  Elec       q    Type
REMARK                         _______ _______ _______ _____ _____    ______ ____
ROOT
ATOM      1  C   UNL     1      47.181   7.651  13.085  0.00  0.00    +0.000 A 
ATOM      2  C   UNL     1      47.333   6.276  12.947  0.00  0.00    +0.000 A 
ATOM      3  C   UNL     1      46.306   5.540  12.363  0.00  0.00    +0.000 A 
ATOM      4  C   UNL     1      45.133   6.182  11.961  0.00  0.00    +0.000 A 
ATOM      5  C   UNL     1      45.078   7.558  12.120  0.00  0.00    +0.000 A 
ATOM      6  N   UNL     1      46.063   8.306  12.679  0.00  0.00    +0.000 NA
ENDROOT
BRANCH   1   7
ATOM      7  C   UNL     1      48.259   8.456  13.778  0.00  0.00    +0.000 C 
BRANCH   7  10
ATOM      8  C   UNL     1      49.744   7.967  15.688  0.00  0.00    +0.000 C 
ATOM      9  O   UNL     1      49.543   9.079  16.174  0.00  0.00    +0.000 OA
ATOM     10  N   UNL     1      49.171   7.596  14.505  0.00  0.00    +0.000 N 
ATOM     11  H   UNL     1      49.263   6.648  14.163  0.00  0.00    +0.000 HD
BRANCH   8  19
ATOM     12  C   UNL     1      49.325   4.684  16.661  0.00  0.00    +0.000 A 
ATOM     13  N   UNL     1      49.418   3.449  17.194  0.00  0.00    +0.000 NA
ATOM     14  C   UNL     1      50.556   3.105  17.799  0.00  0.00    +0.000 A 
ATOM     15  N   UNL     1      51.642   3.856  17.943  0.00  0.00    +0.000 NA
ATOM     16  C   UNL     1      51.507   5.086  17.418  0.00  0.00    +0.000 A 
ATOM     17  S   UNL     1      52.801   6.177  17.500  0.00  0.00    +0.000 S 
ATOM     18  C   UNL     1      51.904   7.379  16.704  0.00  0.00    +0.000 A 
ATOM     19  C   UNL     1      50.614   6.988  16.362  0.00  0.00    +0.000 A 
ATOM     20  C   UNL     1      50.386   5.602  16.768  0.00  0.00    +0.000 A 
BRANCH  12  22
ATOM     21  C   UNL     1      47.141   4.031  16.115  0.00  0.00    +0.000 C 
ATOM     22  O   UNL     1      48.161   5.022  15.999  0.00  0.00    +0.000 OA
ENDBRANCH  12  22
ENDBRANCH   8  19
ENDBRANCH   7  10
ENDBRANCH   1   7
BRANCH   4  23
ATOM     23  C   UNL     1      43.953   5.410  11.420  0.00  0.00    +0.000 C 
BRANCH  23  24
ATOM     24  N   UNL     1      44.296   4.028  11.024  0.00  0.00    +0.000 NA
ATOM     25  C   UNL     1      43.634   3.044  11.893  0.00  0.00    +0.000 C 
BRANCH  24  26
ATOM     26  C   UNL     1      43.908   3.767   9.624  0.00  0.00    +0.000 C 
BRANCH  26  27
ATOM     27  C   UNL     1      45.023   3.223   8.750  0.00  0.00    +0.000 A 
ATOM     28  C   UNL     1      45.780   4.073   7.925  0.00  0.00    +0.000 A 
ATOM     29  C   UNL     1      46.851   3.567   7.184  0.00  0.00    +0.000 A 
ATOM     30  C   UNL     1      47.153   2.212   7.251  0.00  0.00    +0.000 A 
ATOM     31  F   UNL     1      48.196   1.731   6.559  0.00  0.00    +0.000 F 
ATOM     32  C   UNL     1      46.397   1.349   8.032  0.00  0.00    +0.000 A 
ATOM     33  C   UNL     1      45.335   1.853   8.784  0.00  0.00    +0.000 A 
ENDBRANCH  26  27
ENDBRANCH  24  26
ENDBRANCH  23  24
ENDBRANCH   4  23
TORSDOF 8
ENDMDL
MODEL 5
REMARK VINA RESULT:    -7.264      2.758      3.901
REMARK INTER + INTRA:         -12.158
REMARK INTER:                 -11.046
REMARK INTRA:                  -1.112
REMARK UNBOUND:                -1.497
REMARK  Name = 
REMARK  10 active torsions:
REMARK  status: ('A' for Active; 'I' for Inactive)
REMARK    1  A    between atoms: C_1  and  O_2
REMARK    2  A    between atoms: O_2  and  C_3
REMARK    3  A    between atoms: C_10  and  C_11
REMARK    4  A    between atoms: N_13  and  C_14
REMARK    5  A    between atoms: C_14  and  C_15
REMARK    6  A    between atoms: C_18  and  C_19
REMARK    7  A    between atoms: C_19  and  N_20
REMARK    8  A    between atoms: N_20  and  C_21
REMARK    9  A    between atoms: N_20  and  C_22
REMARK   10  A    between atoms: C_22  and  C_23
REMARK                            x       y       z     vdW  Elec       q    Type
REMARK                         _______ _______ _______ _____ _____    ______ ____
ROOT
ATOM      1  C   UNL     1      47.126   4.287  14.926  0.00  0.00    +0.000 A 
ATOM      2  C   UNL     1      46.897   5.613  14.578  0.00  0.00    +0.000 A 
ATOM      3  C   UNL     1      46.304   5.896  13.350  0.00  0.00    +0.000 A 
ATOM      4  C   UNL     1      45.985   4.853  12.478  0.00  0.00    +0.000 A 
ATOM      5  C   UNL     1      46.232   3.562  12.916  0.00  0.00    +0.000 A 
ATOM      6  N   UNL     1      46.802   3.252  14.108  0.00  0.00    +0.000 NA
ENDROOT
BRANCH   1   7
ATOM      7  C   UNL     1      47.829   3.966  16.226  0.00  0.00    +0.000 C 
BRANCH   7  10
ATOM      8  C   UNL     1      48.532   5.816  17.702  0.00  0.00    +0.000 C 
ATOM      9  O   UNL     1      49.697   5.724  17.322  0.00  0.00    +0.000 OA
ATOM     10  N   UNL     1      47.563   4.976  17.231  0.00  0.00    +0.000 N 
ATOM     11  H   UNL     1      46.592   5.121  17.474  0.00  0.00    +0.000 HD
BRANCH   8  19
ATOM     12  C   UNL     1      47.989   9.218  17.513  0.00  0.00    +0.000 A 
ATOM     13  N   UNL     1      47.776  10.530  17.741  0.00  0.00    +0.000 NA
ATOM     14  C   UNL     1      47.468  10.914  18.981  0.00  0.00    +0.000 A 
ATOM     15  N   UNL     1      47.342  10.136  20.050  0.00  0.00    +0.000 NA
ATOM     16  C   UNL     1      47.582   8.839  19.791  0.00  0.00    +0.000 A 
ATOM     17  S   UNL     1      47.454   7.699  21.038  0.00  0.00    +0.000 S 
ATOM     18  C   UNL     1      47.880   6.432  19.992  0.00  0.00    +0.000 A 
ATOM     19  C   UNL     1      48.130   6.838  18.685  0.00  0.00    +0.000 A 
ATOM     20  C   UNL     1      47.924   8.280  18.560  0.00  0.00    +0.000 A 
BRANCH  12  22
ATOM     21  C   UNL     1      49.108   9.731  15.519  0.00  0.00    +0.000 C 
ATOM     22  O   UNL     1      48.266   8.819  16.221  0.00  0.00    +0.000 OA
ENDBRANCH  12  22
ENDBRANCH   8  19
ENDBRANCH   7  10
ENDBRANCH   1   7
BRANCH   4  23
ATOM     23  C   UNL     1      45.440   5.118  11.095  0.00  0.00    +0.000 C 
BRANCH  23  24
ATOM     24  N   UNL     1      44.280   4.267  10.754  0.00  0.00    +0.000 NA
ATOM     25  C   UNL     1      43.039   4.798  11.337  0.00  0.00    +0.000 C 
BRANCH  24  26
ATOM     26  C   UNL     1      44.115   4.158   9.291  0.00  0.00    +0.000 C 
BRANCH  26  27
ATOM     27  C   UNL     1      45.203   3.366   8.590  0.00  0.00    +0.000 A 
ATOM     28  C   UNL     1      45.364   1.990   8.824  0.00  0.00    +0.000 A 
ATOM     29  C   UNL     1      46.322   1.261   8.114  0.00  0.00    +0.000 A 
ATOM     30  C   UNL     1      47.130   1.908   7.188  0.00  0.00    +0.000 A 
ATOM     31  F   UNL     1      48.033   1.204   6.489  0.00  0.00    +0.000 F 
ATOM     32  C   UNL     1      47.011   3.274   6.966  0.00  0.00    +0.000 A 
ATOM     33  C   UNL     1      46.046   4.002   7.663  0.00  0.00    +0.000 A 
ENDBRANCH  26  27
ENDBRANCH  24  26
ENDBRANCH  23  24
ENDBRANCH   4  23
TORSDOF 8
ENDMDL
MODEL 6
REMARK VINA RESULT:    -7.113      3.238      5.546
REMARK INTER + INTRA:         -11.937
REMARK INTER:                 -10.568
REMARK INTRA:                  -1.369
REMARK UNBOUND:                -1.497
REMARK  Name = 
REMARK  10 active torsions:
REMARK  status: ('A' for Active; 'I' for Inactive)
REMARK    1  A    between atoms: C_1  and  O_2
REMARK    2  A    between atoms: O_2  and  C_3
REMARK    3  A    between atoms: C_10  and  C_11
REMARK    4  A    between atoms: N_13  and  C_14
REMARK    5  A    between atoms: C_14  and  C_15
REMARK    6  A    between atoms: C_18  and  C_19
REMARK    7  A    between atoms: C_19  and  N_20
REMARK    8  A    between atoms: N_20  and  C_21
REMARK    9  A    between atoms: N_20  and  C_22
REMARK   10  A    between atoms: C_22  and  C_23
REMARK                            x       y       z     vdW  Elec       q    Type
REMARK                         _______ _______ _______ _____ _____    ______ ____
ROOT
ATOM      1  C   UNL     1      47.569   4.230  16.220  0.00  0.00    +0.000 A 
ATOM      2  C   UNL     1      48.264   5.434  16.231  0.00  0.00    +0.000 A 
ATOM      3  C   UNL     1      48.197   6.261  15.112  0.00  0.00    +0.000 A 
ATOM      4  C   UNL     1      47.470   5.855  13.992  0.00  0.00    +0.000 A 
ATOM      5  C   UNL     1      46.794   4.648  14.078  0.00  0.00    +0.000 A 
ATOM      6  N   UNL     1      46.833   3.822  15.154  0.00  0.00    +0.000 NA
ENDROOT
BRANCH   1   7
ATOM      7  C   UNL     1      47.686   3.290  17.399  0.00  0.00    +0.000 C 
BRANCH   7  10
ATOM      8  C   UNL     1      49.910   2.276  17.055  0.00  0.00    +0.000 C 
ATOM      9  O   UNL     1      49.512   1.649  16.075  0.00  0.00    +0.000 OA
ATOM     10  N   UNL     1      49.070   3.081  17.771  0.00  0.00    +0.000 N 
ATOM     11  H   UNL     1      49.428   3.667  18.514  0.00  0.00    +0.000 HD
BRANCH   8  19
ATOM     12  C   UNL     1      52.156   4.558  18.338  0.00  0.00    +0.000 A 
ATOM     13  N   UNL     1      53.235   5.230  18.788  0.00  0.00    +0.000 NA
ATOM     14  C   UNL     1      54.373   4.556  18.963  0.00  0.00    +0.000 A 
ATOM     15  N   UNL     1      54.576   3.262  18.741  0.00  0.00    +0.000 NA
ATOM     16  C   UNL     1      53.486   2.628  18.275  0.00  0.00    +0.000 A 
ATOM     17  S   UNL     1      53.559   0.967  17.949  0.00  0.00    +0.000 S 
ATOM     18  C   UNL     1      51.940   0.944  17.438  0.00  0.00    +0.000 A 
ATOM     19  C   UNL     1      51.311   2.183  17.500  0.00  0.00    +0.000 A 
ATOM     20  C   UNL     1      52.233   3.188  18.028  0.00  0.00    +0.000 A 
BRANCH  12  22
ATOM     21  C   UNL     1      50.611   5.994  19.360  0.00  0.00    +0.000 C 
ATOM     22  O   UNL     1      50.970   5.251  18.197  0.00  0.00    +0.000 OA
ENDBRANCH  12  22
ENDBRANCH   8  19
ENDBRANCH   7  10
ENDBRANCH   1   7
BRANCH   4  23
ATOM     23  C   UNL     1      47.456   6.669  12.720  0.00  0.00    +0.000 C 
BRANCH  23  24
ATOM     24  N   UNL     1      46.252   7.516  12.584  0.00  0.00    +0.000 NA
ATOM     25  C   UNL     1      46.610   8.937  12.468  0.00  0.00    +0.000 C 
BRANCH  24  26
ATOM     26  C   UNL     1      45.459   7.123  11.403  0.00  0.00    +0.000 C 
BRANCH  26  27
ATOM     27  C   UNL     1      44.799   5.760  11.510  0.00  0.00    +0.000 A 
ATOM     28  C   UNL     1      43.833   5.497  12.496  0.00  0.00    +0.000 A 
ATOM     29  C   UNL     1      43.182   4.261  12.534  0.00  0.00    +0.000 A 
ATOM     30  C   UNL     1      43.508   3.284  11.602  0.00  0.00    +0.000 A 
ATOM     31  F   UNL     1      42.866   2.107  11.623  0.00  0.00    +0.000 F 
ATOM     32  C   UNL     1      44.484   3.511  10.641  0.00  0.00    +0.000 A 
ATOM     33  C   UNL     1      45.127   4.749  10.592  0.00  0.00    +0.000 A 
ENDBRANCH  26  27
ENDBRANCH  24  26
ENDBRANCH  23  24
ENDBRANCH   4  23
TORSDOF 8
ENDMDL
MODEL 7
REMARK VINA RESULT:    -7.010      2.291      3.887
REMARK INTER + INTRA:         -11.785
REMARK INTER:                 -10.627
REMARK INTRA:                  -1.158
REMARK UNBOUND:                -1.497
REMARK  Name = 
REMARK  10 active torsions:
REMARK  status: ('A' for Active; 'I' for Inactive)
REMARK    1  A    between atoms: C_1  and  O_2
REMARK    2  A    between atoms: O_2  and  C_3
REMARK    3  A    between atoms: C_10  and  C_11
REMARK    4  A    between atoms: N_13  and  C_14
REMARK    5  A    between atoms: C_14  and  C_15
REMARK    6  A    between atoms: C_18  and  C_19
REMARK    7  A    between atoms: C_19  and  N_20
REMARK    8  A    between atoms: N_20  and  C_21
REMARK    9  A    between atoms: N_20  and  C_22
REMARK   10  A    between atoms: C_22  and  C_23
REMARK                            x       y       z     vdW  Elec       q    Type
REMARK                         _______ _______ _______ _____ _____    ______ ____
ROOT
ATOM      1  C   UNL     1      47.083   4.618  14.810  0.00  0.00    +0.000 A 
ATOM      2  C   UNL     1      47.153   5.911  14.303  0.00  0.00    +0.000 A 
ATOM      3  C   UNL     1      46.597   6.176  13.054  0.00  0.00    +0.000 A 
ATOM      4  C   UNL     1      46.017   5.140  12.319  0.00  0.00    +0.000 A 
ATOM      5  C   UNL     1      45.976   3.888  12.912  0.00  0.00    +0.000 A 
ATOM      6  N   UNL     1      46.501   3.597  14.128  0.00  0.00    +0.000 NA
ENDROOT
BRANCH   1   7
ATOM      7  C   UNL     1      47.740   4.299  16.135  0.00  0.00    +0.000 C 
BRANCH   7  10
ATOM      8  C   UNL     1      49.595   5.587  17.132  0.00  0.00    +0.000 C 
ATOM      9  O   UNL     1      50.368   4.639  17.008  0.00  0.00    +0.000 OA
ATOM     10  N   UNL     1      48.287   5.491  16.751  0.00  0.00    +0.000 N 
ATOM     11  H   UNL     1      47.684   6.304  16.766  0.00  0.00    +0.000 HD
BRANCH   8  19
ATOM     12  C   UNL     1      51.007   8.426  15.774  0.00  0.00    +0.000 A 
ATOM     13  N   UNL     1      51.613   9.607  15.532  0.00  0.00    +0.000 NA
ATOM     14  C   UNL     1      51.843  10.422  16.563  0.00  0.00    +0.000 A 
ATOM     15  N   UNL     1      51.537  10.205  17.837  0.00  0.00    +0.000 NA
ATOM     16  C   UNL     1      50.954   9.011  18.044  0.00  0.00    +0.000 A 
ATOM     17  S   UNL     1      50.483   8.570  19.610  0.00  0.00    +0.000 S 
ATOM     18  C   UNL     1      49.900   7.071  19.069  0.00  0.00    +0.000 A 
ATOM     19  C   UNL     1      50.048   6.869  17.700  0.00  0.00    +0.000 A 
ATOM     20  C   UNL     1      50.657   8.045  17.082  0.00  0.00    +0.000 A 
BRANCH  12  22
ATOM     21  C   UNL     1      49.960   8.241  13.685  0.00  0.00    +0.000 C 
ATOM     22  O   UNL     1      50.734   7.603  14.700  0.00  0.00    +0.000 OA
ENDBRANCH  12  22
ENDBRANCH   8  19
ENDBRANCH   7  10
ENDBRANCH   1   7
BRANCH   4  23
ATOM     23  C   UNL     1      45.498   5.359  10.918  0.00  0.00    +0.000 C 
BRANCH  23  24
ATOM     24  N   UNL     1      44.323   4.521  10.595  0.00  0.00    +0.000 NA
ATOM     25  C   UNL     1      43.093   5.081  11.173  0.00  0.00    +0.000 C 
BRANCH  24  26
ATOM     26  C   UNL     1      44.151   4.391   9.135  0.00  0.00    +0.000 C 
BRANCH  26  27
ATOM     27  C   UNL     1      45.166   3.488   8.457  0.00  0.00    +0.000 A 
ATOM     28  C   UNL     1      46.088   4.002   7.529  0.00  0.00    +0.000 A 
ATOM     29  C   UNL     1      47.064   3.172   6.970  0.00  0.00    +0.000 A 
ATOM     30  C   UNL     1      47.106   1.829   7.323  0.00  0.00    +0.000 A 
ATOM     31  F   UNL     1      48.057   1.038   6.805  0.00  0.00    +0.000 F 
ATOM     32  C   UNL     1      46.184   1.293   8.211  0.00  0.00    +0.000 A 
ATOM     33  C   UNL     1      45.217   2.122   8.781  0.00  0.00    +0.000 A 
ENDBRANCH  26  27
ENDBRANCH  24  26
ENDBRANCH  23  24
ENDBRANCH   4  23
TORSDOF 8
ENDMDL
MODEL 8
REMARK VINA RESULT:    -6.785      3.080      4.514
REMARK INTER + INTRA:         -11.455
REMARK INTER:                 -10.544
REMARK INTRA:                  -0.911
REMARK UNBOUND:                -1.497
REMARK  Name = 
REMARK  10 active torsions:
REMARK  status: ('A' for Active; 'I' for Inactive)
REMARK    1  A    between atoms: C_1  and  O_2
REMARK    2  A    between atoms: O_2  and  C_3
REMARK    3  A    between atoms: C_10  and  C_11
REMARK    4  A    between atoms: N_13  and  C_14
REMARK    5  A    between atoms: C_14  and  C_15
REMARK    6  A    between atoms: C_18  and  C_19
REMARK    7  A    between atoms: C_19  and  N_20
REMARK    8  A    between atoms: N_20  and  C_21
REMARK    9  A    between atoms: N_20  and  C_22
REMARK   10  A    between atoms: C_22  and  C_23
REMARK                            x       y       z     vdW  Elec       q    Type
REMARK                         _______ _______ _______ _____ _____    ______ ____
ROOT
ATOM      1  C   UNL     1      47.947   5.388  15.702  0.00  0.00    +0.000 A 
ATOM      2  C   UNL     1      47.045   4.383  15.373  0.00  0.00    +0.000 A 
ATOM      3  C   UNL     1      46.481   4.373  14.099  0.00  0.00    +0.000 A 
ATOM      4  C   UNL     1      46.799   5.387  13.193  0.00  0.00    +0.000 A 
ATOM      5  C   UNL     1      47.721   6.337  13.602  0.00  0.00    +0.000 A 
ATOM      6  N   UNL     1      48.294   6.372  14.832  0.00  0.00    +0.000 NA
ENDROOT
BRANCH   1   7
ATOM      7  C   UNL     1      48.517   5.451  17.102  0.00  0.00    +0.000 C 
BRANCH   7  10
ATOM      8  C   UNL     1      49.873   3.481  17.712  0.00  0.00    +0.000 C 
ATOM      9  O   UNL     1      48.892   2.904  18.176  0.00  0.00    +0.000 OA
ATOM     10  N   UNL     1      49.776   4.739  17.190  0.00  0.00    +0.000 N 
ATOM     11  H   UNL     1      50.566   5.166  16.722  0.00  0.00    +0.000 HD
BRANCH   8  19
ATOM     12  C   UNL     1      53.075   4.614  18.316  0.00  0.00    +0.000 A 
ATOM     13  N   UNL     1      54.407   4.792  18.434  0.00  0.00    +0.000 NA
ATOM     14  C   UNL     1      55.205   3.743  18.227  0.00  0.00    +0.000 A 
ATOM     15  N   UNL     1      54.834   2.507  17.911  0.00  0.00    +0.000 NA
ATOM     16  C   UNL     1      53.502   2.372  17.782  0.00  0.00    +0.000 A 
ATOM     17  S   UNL     1      52.849   0.858  17.393  0.00  0.00    +0.000 S 
ATOM     18  C   UNL     1      51.269   1.480  17.406  0.00  0.00    +0.000 A 
ATOM     19  C   UNL     1      51.199   2.837  17.700  0.00  0.00    +0.000 A 
ATOM     20  C   UNL     1      52.539   3.366  17.952  0.00  0.00    +0.000 A 
BRANCH  12  22
ATOM     21  C   UNL     1      52.745   6.548  19.599  0.00  0.00    +0.000 C 
ATOM     22  O   UNL     1      52.250   5.692  18.571  0.00  0.00    +0.000 OA
ENDBRANCH  12  22
ENDBRANCH   8  19
ENDBRANCH   7  10
ENDBRANCH   1   7
BRANCH   4  23
ATOM     23  C   UNL     1      46.131   5.476  11.841  0.00  0.00    +0.000 C 
BRANCH  23  24
ATOM     24  N   UNL     1      44.798   4.839  11.807  0.00  0.00    +0.000 NA
ATOM     25  C   UNL     1      43.850   5.539  12.688  0.00  0.00    +0.000 C 
BRANCH  24  26
ATOM     26  C   UNL     1      44.254   4.821  10.436  0.00  0.00    +0.000 C 
BRANCH  26  27
ATOM     27  C   UNL     1      45.002   3.919   9.471  0.00  0.00    +0.000 A 
ATOM     28  C   UNL     1      44.981   2.522   9.620  0.00  0.00    +0.000 A 
ATOM     29  C   UNL     1      45.613   1.702   8.681  0.00  0.00    +0.000 A 
ATOM     30  C   UNL     1      46.280   2.277   7.607  0.00  0.00    +0.000 A 
ATOM     31  F   UNL     1      46.866   1.490   6.693  0.00  0.00    +0.000 F 
ATOM     32  C   UNL     1      46.342   3.656   7.459  0.00  0.00    +0.000 A 
ATOM     33  C   UNL     1      45.701   4.477   8.388  0.00  0.00    +0.000 A 
ENDBRANCH  26  27
ENDBRANCH  24  26
ENDBRANCH  23  24
ENDBRANCH   4  23
TORSDOF 8
ENDMDL
MODEL 9
REMARK VINA RESULT:    -6.518      2.801      3.886
REMARK INTER + INTRA:         -11.063
REMARK INTER:                 -10.316
REMARK INTRA:                  -0.747
REMARK UNBOUND:                -1.497
REMARK  Name = 
REMARK  10 active torsions:
REMARK  status: ('A' for Active; 'I' for Inactive)
REMARK    1  A    between atoms: C_1  and  O_2
REMARK    2  A    between atoms: O_2  and  C_3
REMARK    3  A    between atoms: C_10  and  C_11
REMARK    4  A    between atoms: N_13  and  C_14
REMARK    5  A    between atoms: C_14  and  C_15
REMARK    6  A    between atoms: C_18  and  C_19
REMARK    7  A    between atoms: C_19  and  N_20
REMARK    8  A    between atoms: N_20  and  C_21
REMARK    9  A    between atoms: N_20  and  C_22
REMARK   10  A    between atoms: C_22  and  C_23
REMARK                            x       y       z     vdW  Elec       q    Type
REMARK                         _______ _______ _______ _____ _____    ______ ____
ROOT
ATOM      1  C   UNL     1      47.070   4.884  14.741  0.00  0.00    +0.000 A 
ATOM      2  C   UNL     1      47.417   6.045  14.057  0.00  0.00    +0.000 A 
ATOM      3  C   UNL     1      46.862   6.280  12.803  0.00  0.00    +0.000 A 
ATOM      4  C   UNL     1      46.000   5.337  12.237  0.00  0.00    +0.000 A 
ATOM      5  C   UNL     1      45.697   4.219  12.999  0.00  0.00    +0.000 A 
ATOM      6  N   UNL     1      46.215   3.963  14.226  0.00  0.00    +0.000 NA
ENDROOT
BRANCH   1   7
ATOM      7  C   UNL     1      47.716   4.582  16.075  0.00  0.00    +0.000 C 
BRANCH   7  10
ATOM      8  C   UNL     1      49.629   5.344  17.437  0.00  0.00    +0.000 C 
ATOM      9  O   UNL     1      49.319   4.591  18.358  0.00  0.00    +0.000 OA
ATOM     10  N   UNL     1      48.881   5.414  16.296  0.00  0.00    +0.000 N 
ATOM     11  H   UNL     1      49.196   5.963  15.506  0.00  0.00    +0.000 HD
BRANCH   8  19
ATOM     12  C   UNL     1      52.775   4.918  18.784  0.00  0.00    +0.000 A 
ATOM     13  N   UNL     1      54.028   5.049  19.268  0.00  0.00    +0.000 NA
ATOM     14  C   UNL     1      54.662   6.207  19.074  0.00  0.00    +0.000 A 
ATOM     15  N   UNL     1      54.194   7.277  18.441  0.00  0.00    +0.000 NA
ATOM     16  C   UNL     1      52.938   7.118  17.991  0.00  0.00    +0.000 A 
ATOM     17  S   UNL     1      52.185   8.379  17.147  0.00  0.00    +0.000 S 
ATOM     18  C   UNL     1      50.762   7.472  16.957  0.00  0.00    +0.000 A 
ATOM     19  C   UNL     1      50.822   6.204  17.525  0.00  0.00    +0.000 A 
ATOM     20  C   UNL     1      52.138   5.982  18.122  0.00  0.00    +0.000 A 
BRANCH  12  22
ATOM     21  C   UNL     1      52.486   2.744  17.957  0.00  0.00    +0.000 C 
ATOM     22  O   UNL     1      52.138   3.704  18.952  0.00  0.00    +0.000 OA
ENDBRANCH  12  22
ENDBRANCH   8  19
ENDBRANCH   7  10
ENDBRANCH   1   7
BRANCH   4  23
ATOM     23  C   UNL     1      45.459   5.499  10.837  0.00  0.00    +0.000 C 
BRANCH  23  24
ATOM     24  N   UNL     1      44.270   4.662  10.572  0.00  0.00    +0.000 NA
ATOM     25  C   UNL     1      43.055   5.268  11.136  0.00  0.00    +0.000 C 
BRANCH  24  26
ATOM     26  C   UNL     1      44.077   4.459   9.123  0.00  0.00    +0.000 C 
BRANCH  26  27
ATOM     27  C   UNL     1      45.096   3.542   8.473  0.00  0.00    +0.000 A 
ATOM     28  C   UNL     1      46.028   4.035   7.543  0.00  0.00    +0.000 A 
ATOM     29  C   UNL     1      47.007   3.193   7.010  0.00  0.00    +0.000 A 
ATOM     30  C   UNL     1      47.044   1.857   7.390  0.00  0.00    +0.000 A 
ATOM     31  F   UNL     1      47.998   1.055   6.897  0.00  0.00    +0.000 F 
ATOM     32  C   UNL     1      46.112   1.341   8.280  0.00  0.00    +0.000 A 
ATOM     33  C   UNL     1      45.142   2.182   8.824  0.00  0.00    +0.000 A 
ENDBRANCH  26  27
ENDBRANCH  24  26
ENDBRANCH  23  24
ENDBRANCH   4  23
TORSDOF 8
ENDMDL
