MODEL 1
REMARK VINA RESULT:    -8.368      0.000      0.000
REMARK INTER + INTRA:         -11.561
REMARK INTER:                 -10.814
REMARK INTRA:                  -0.747
REMARK UNBOUND:                -0.747
REMARK  Name = 
REMARK  5 active torsions:
REMARK  status: ('A' for Active; 'I' for Inactive)
REMARK    1  A    between atoms: C_2  and  C_5
REMARK    2  A    between atoms: C_9  and  N_10
REMARK    3  A    between atoms: N_10  and  C_11
REMARK    4  A    between atoms: C_11  and  C_12
REMARK    5  A    between atoms: C_16  and  C_17
REMARK                            x       y       z     vdW  Elec       q    Type
REMARK                         _______ _______ _______ _____ _____    ______ ____
ROOT
ATOM      1  C   UNL     1      44.215   5.556  11.673  0.00  0.00    +0.000 C 
ENDROOT
BRANCH   1   2
ATOM      2  C   UNL     1      45.548   5.710  12.361  0.00  0.00    +0.000 A 
ATOM      3  C   UNL     1      46.544   6.533  11.834  0.00  0.00    +0.000 A 
ATOM      4  C   UNL     1      47.763   6.593  12.488  0.00  0.00    +0.000 A 
ATOM      5  N   UNL     1      48.051   5.903  13.614  0.00  0.00    +0.000 NA
ATOM      6  C   UNL     1      47.080   5.112  14.145  0.00  0.00    +0.000 A 
ATOM      7  C   UNL     1      45.821   5.013  13.545  0.00  0.00    +0.000 A 
BRANCH   6   8
ATOM      8  C   UNL     1      47.436   4.337  15.361  0.00  0.00    +0.000 A 
ATOM      9  C   UNL     1      47.391   4.897  16.639  0.00  0.00    +0.000 A 
ATOM     10  C   UNL     1      47.765   4.131  17.742  0.00  0.00    +0.000 A 
ATOM     11  C   UNL     1      48.174   2.818  17.549  0.00  0.00    +0.000 A 
ATOM     12  C   UNL     1      48.191   2.327  16.257  0.00  0.00    +0.000 A 
ATOM     13  N   UNL     1      47.836   3.048  15.170  0.00  0.00    +0.000 NA
ENDBRANCH   6   8
ENDBRANCH   1   2
BRANCH   1  14
ATOM     14  N   UNL     1      44.397   5.451  10.235  0.00  0.00    +0.000 N 
ATOM     15  H   UNL     1      43.664   5.914   9.699  0.00  0.00    +0.000 HD
BRANCH  14  20
ATOM     16  C   UNL     1      45.976   2.952   7.938  0.00  0.00    +0.000 A 
ATOM     17  C   UNL     1      45.402   1.813   8.475  0.00  0.00    +0.000 A 
ATOM     18  N   UNL     1      44.565   1.827   9.533  0.00  0.00    +0.000 NA
ATOM     19  C   UNL     1      44.295   3.039  10.076  0.00  0.00    +0.000 A 
ATOM     20  C   UNL     1      44.826   4.259   9.649  0.00  0.00    +0.000 A 
ATOM     21  C   UNL     1      45.666   4.187   8.535  0.00  0.00    +0.000 A 
BRANCH  16  23
ATOM     22  F   UNL     1      46.712   1.738   6.008  0.00  0.00    +0.000 F 
ATOM     23  C   UNL     1      46.890   2.862   6.757  0.00  0.00    +0.000 C 
ATOM     24  F   UNL     1      48.204   2.863   7.116  0.00  0.00    +0.000 F 
ATOM     25  F   UNL     1      46.740   3.907   5.899  0.00  0.00    +0.000 F 
ENDBRANCH  16  23
ENDBRANCH  14  20
ENDBRANCH   1  14
TORSDOF 5
ENDMDL
MODEL 2
REMARK VINA RESULT:    -8.339      3.395      6.940
REMARK INTER + INTRA:         -11.524
REMARK INTER:                 -10.631
REMARK INTRA:                  -0.892
REMARK UNBOUND:                -0.747
REMARK  Name = 
REMARK  5 active torsions:
REMARK  status: ('A' for Active; 'I' for Inactive)
REMARK    1  A    between atoms: C_2  and  C_5
REMARK    2  A    between atoms: C_9  and  N_10
REMARK    3  A    between atoms: N_10  and  C_11
REMARK    4  A    between atoms: C_11  and  C_12
REMARK    5  A    between atoms: C_16  and  C_17
REMARK                            x       y       z     vdW  Elec       q    Type
REMARK                         _______ _______ _______ _____ _____    ______ ____
ROOT
ATOM      1  C   UNL     1      43.604   6.331  11.366  0.00  0.00    +0.000 C 
ENDROOT
BRANCH   1   2
ATOM      2  C   UNL     1      43.770   4.878  10.999  0.00  0.00    +0.000 A 
ATOM      3  C   UNL     1      43.178   3.867  11.757  0.00  0.00    +0.000 A 
ATOM      4  C   UNL     1      43.408   2.552  11.395  0.00  0.00    +0.000 A 
ATOM      5  N   UNL     1      44.172   2.179  10.345  0.00  0.00    +0.000 NA
ATOM      6  C   UNL     1      44.738   3.158   9.587  0.00  0.00    +0.000 A 
ATOM      7  C   UNL     1      44.538   4.509   9.887  0.00  0.00    +0.000 A 
BRANCH   6   8
ATOM      8  C   UNL     1      45.602   2.720   8.462  0.00  0.00    +0.000 A 
ATOM      9  C   UNL     1      45.908   3.560   7.389  0.00  0.00    +0.000 A 
ATOM     10  C   UNL     1      46.700   3.086   6.345  0.00  0.00    +0.000 A 
ATOM     11  C   UNL     1      47.177   1.783   6.393  0.00  0.00    +0.000 A 
ATOM     12  C   UNL     1      46.840   1.009   7.487  0.00  0.00    +0.000 A 
ATOM     13  N   UNL     1      46.072   1.441   8.511  0.00  0.00    +0.000 NA
ENDBRANCH   6   8
ENDBRANCH   1   2
BRANCH   1  14
ATOM     14  N   UNL     1      44.194   6.595  12.668  0.00  0.00    +0.000 N 
ATOM     15  H   UNL     1      43.751   7.367  13.163  0.00  0.00    +0.000 HD
BRANCH  14  20
ATOM     16  C   UNL     1      47.861   7.325  12.473  0.00  0.00    +0.000 A 
ATOM     17  C   UNL     1      48.313   6.194  13.128  0.00  0.00    +0.000 A 
ATOM     18  N   UNL     1      47.496   5.245  13.631  0.00  0.00    +0.000 NA
ATOM     19  C   UNL     1      46.165   5.444  13.469  0.00  0.00    +0.000 A 
ATOM     20  C   UNL     1      45.576   6.552  12.853  0.00  0.00    +0.000 A 
ATOM     21  C   UNL     1      46.471   7.489  12.329  0.00  0.00    +0.000 A 
BRANCH  16  23
ATOM     22  F   UNL     1      49.658   8.857  12.876  0.00  0.00    +0.000 F 
ATOM     23  C   UNL     1      48.826   8.333  11.934  0.00  0.00    +0.000 C 
ATOM     24  F   UNL     1      48.200   9.396  11.359  0.00  0.00    +0.000 F 
ATOM     25  F   UNL     1      49.637   7.816  10.970  0.00  0.00    +0.000 F 
ENDBRANCH  16  23
ENDBRANCH  14  20
ENDBRANCH   1  14
TORSDOF 5
ENDMDL
MODEL 3
REMARK VINA RESULT:    -8.188      2.037      4.035
REMARK INTER + INTRA:         -11.329
REMARK INTER:                 -10.685
REMARK INTRA:                  -0.644
REMARK UNBOUND:                -0.747
REMARK  Name = 
REMARK  5 active torsions:
REMARK  status: ('A' for Active; 'I' for Inactive)
REMARK    1  A    between atoms: C_2  and  C_5
REMARK    2  A    between atoms: C_9  and  N_10
REMARK    3  A    between atoms: N_10  and  C_11
REMARK    4  A    between atoms: C_11  and  C_12
REMARK    5  A    between atoms: C_16  and  C_17
REMARK                            x       y       z     vdW  Elec       q    Type
REMARK                         _______ _______ _______ _____ _____    ______ ____
ROOT
ATOM      1  C   UNL     1      43.784   3.693  11.857  0.00  0.00    +0.000 C 
ENDROOT
BRANCH   1   2
ATOM      2  C   UNL     1      45.111   4.190  12.373  0.00  0.00    +0.000 A 
ATOM      3  C   UNL     1      45.912   3.396  13.195  0.00  0.00    +0.000 A 
ATOM      4  C   UNL     1      47.096   3.929  13.673  0.00  0.00    +0.000 A 
ATOM      5  N   UNL     1      47.532   5.177  13.391  0.00  0.00    +0.000 NA
ATOM      6  C   UNL     1      46.767   5.952  12.575  0.00  0.00    +0.000 A 
ATOM      7  C   UNL     1      45.565   5.474  12.044  0.00  0.00    +0.000 A 
BRANCH   6   8
ATOM      8  C   UNL     1      47.251   7.330  12.312  0.00  0.00    +0.000 A 
ATOM      9  C   UNL     1      48.575   7.599  11.956  0.00  0.00    +0.000 A 
ATOM     10  C   UNL     1      48.981   8.916  11.750  0.00  0.00    +0.000 A 
ATOM     11  C   UNL     1      48.058   9.942  11.898  0.00  0.00    +0.000 A 
ATOM     12  C   UNL     1      46.764   9.605  12.247  0.00  0.00    +0.000 A 
ATOM     13  N   UNL     1      46.343   8.337  12.456  0.00  0.00    +0.000 NA
ENDBRANCH   6   8
ENDBRANCH   1   2
BRANCH   1  14
ATOM     14  N   UNL     1      43.983   2.596  10.923  0.00  0.00    +0.000 N 
ATOM     15  H   UNL     1      44.276   1.730  11.373  0.00  0.00    +0.000 HD
BRANCH  14  20
ATOM     16  C   UNL     1      46.137   2.217   7.885  0.00  0.00    +0.000 A 
ATOM     17  C   UNL     1      45.921   3.472   7.343  0.00  0.00    +0.000 A 
ATOM     18  N   UNL     1      45.112   4.396   7.900  0.00  0.00    +0.000 NA
ATOM     19  C   UNL     1      44.492   4.043   9.053  0.00  0.00    +0.000 A 
ATOM     20  C   UNL     1      44.601   2.804   9.690  0.00  0.00    +0.000 A 
ATOM     21  C   UNL     1      45.472   1.896   9.082  0.00  0.00    +0.000 A 
BRANCH  16  23
ATOM     22  F   UNL     1      46.808   1.081   5.885  0.00  0.00    +0.000 F 
ATOM     23  C   UNL     1      47.055   1.244   7.215  0.00  0.00    +0.000 C 
ATOM     24  F   UNL     1      46.980  -0.001   7.761  0.00  0.00    +0.000 F 
ATOM     25  F   UNL     1      48.362   1.611   7.307  0.00  0.00    +0.000 F 
ENDBRANCH  16  23
ENDBRANCH  14  20
ENDBRANCH   1  14
TORSDOF 5
ENDMDL
MODEL 4
REMARK VINA RESULT:    -7.801      3.628      7.646
REMARK INTER + INTRA:         -10.828
REMARK INTER:                 -10.023
REMARK INTRA:                  -0.805
REMARK UNBOUND:                -0.747
REMARK  Name = 
REMARK  5 active torsions:
REMARK  status: ('A' for Active; 'I' for Inactive)
REMARK    1  A    between atoms: C_2  and  C_5
REMARK    2  A    between atoms: C_9  and  N_10
REMARK    3  A    between atoms: N_10  and  C_11
REMARK    4  A    between atoms: C_11  and  C_12
REMARK    5  A    between atoms: C_16  and  C_17
REMARK                            x       y       z     vdW  Elec       q    Type
REMARK                         _______ _______ _______ _____ _____    ______ ____
ROOT
ATOM      1  C   UNL     1      44.887   6.223  12.264  0.00  0.00    +0.000 C 
ENDROOT
BRANCH   1   2
ATOM      2  C   UNL     1      44.531   4.934  11.569  0.00  0.00    +0.000 A 
ATOM      3  C   UNL     1      43.532   4.096  12.064  0.00  0.00    +0.000 A 
ATOM      4  C   UNL     1      43.287   2.903  11.407  0.00  0.00    +0.000 A 
ATOM      5  N   UNL     1      43.955   2.496  10.305  0.00  0.00    +0.000 NA
ATOM      6  C   UNL     1      44.919   3.315   9.803  0.00  0.00    +0.000 A 
ATOM      7  C   UNL     1      45.212   4.541  10.408  0.00  0.00    +0.000 A 
BRANCH   6   8
ATOM      8  C   UNL     1      45.663   2.826   8.615  0.00  0.00    +0.000 A 
ATOM      9  C   UNL     1      45.952   3.653   7.527  0.00  0.00    +0.000 A 
ATOM     10  C   UNL     1      46.628   3.132   6.425  0.00  0.00    +0.000 A 
ATOM     11  C   UNL     1      47.006   1.796   6.429  0.00  0.00    +0.000 A 
ATOM     12  C   UNL     1      46.691   1.037   7.540  0.00  0.00    +0.000 A 
ATOM     13  N   UNL     1      46.035   1.514   8.621  0.00  0.00    +0.000 NA
ENDBRANCH   6   8
ENDBRANCH   1   2
BRANCH   1  14
ATOM     14  N   UNL     1      46.325   6.434  12.235  0.00  0.00    +0.000 N 
ATOM     15  H   UNL     1      46.771   6.065  11.396  0.00  0.00    +0.000 HD
BRANCH  14  20
ATOM     16  C   UNL     1      47.792   5.078  15.401  0.00  0.00    +0.000 A 
ATOM     17  C   UNL     1      48.545   6.185  15.749  0.00  0.00    +0.000 A 
ATOM     18  N   UNL     1      48.607   7.309  15.006  0.00  0.00    +0.000 NA
ATOM     19  C   UNL     1      47.879   7.321  13.862  0.00  0.00    +0.000 A 
ATOM     20  C   UNL     1      47.101   6.265  13.382  0.00  0.00    +0.000 A 
ATOM     21  C   UNL     1      47.054   5.136  14.205  0.00  0.00    +0.000 A 
BRANCH  16  23
ATOM     22  F   UNL     1      46.655   3.781  17.064  0.00  0.00    +0.000 F 
ATOM     23  C   UNL     1      47.765   3.866  16.278  0.00  0.00    +0.000 C 
ATOM     24  F   UNL     1      48.826   3.818  17.130  0.00  0.00    +0.000 F 
ATOM     25  F   UNL     1      47.807   2.706  15.568  0.00  0.00    +0.000 F 
ENDBRANCH  16  23
ENDBRANCH  14  20
ENDBRANCH   1  14
TORSDOF 5
ENDMDL
MODEL 5
REMARK VINA RESULT:    -7.428      1.558      1.933
REMARK INTER + INTRA:         -10.346
REMARK INTER:                  -9.591
REMARK INTRA:                  -0.755
REMARK UNBOUND:                -0.747
REMARK  Name = 
REMARK  5 active torsions:
REMARK  status: ('A' for Active; 'I' for Inactive)
REMARK    1  A    between atoms: C_2  and  C_5
REMARK    2  A    between atoms: C_9  and  N_10
REMARK    3  A    between atoms: N_10  and  C_11
REMARK    4  A    between atoms: C_11  and  C_12
REMARK    5  A    between atoms: C_16  and  C_17
REMARK                            x       y       z     vdW  Elec       q    Type
REMARK                         _______ _______ _______ _____ _____    ______ ____
ROOT
ATOM      1  C   UNL     1      45.139   7.360  11.773  0.00  0.00    +0.000 C 
ENDROOT
BRANCH   1   2
ATOM      2  C   UNL     1      46.493   7.102  12.384  0.00  0.00    +0.000 A 
ATOM      3  C   UNL     1      47.663   7.541  11.763  0.00  0.00    +0.000 A 
ATOM      4  C   UNL     1      48.877   7.230  12.351  0.00  0.00    +0.000 A 
ATOM      5  N   UNL     1      49.003   6.526  13.498  0.00  0.00    +0.000 NA
ATOM      6  C   UNL     1      47.867   6.110  14.121  0.00  0.00    +0.000 A 
ATOM      7  C   UNL     1      46.606   6.399  13.591  0.00  0.00    +0.000 A 
BRANCH   6   8
ATOM      8  C   UNL     1      48.036   5.307  15.358  0.00  0.00    +0.000 A 
ATOM      9  C   UNL     1      47.125   4.317  15.733  0.00  0.00    +0.000 A 
ATOM     10  C   UNL     1      47.319   3.615  16.921  0.00  0.00    +0.000 A 
ATOM     11  C   UNL     1      48.420   3.911  17.712  0.00  0.00    +0.000 A 
ATOM     12  C   UNL     1      49.283   4.899  17.279  0.00  0.00    +0.000 A 
ATOM     13  N   UNL     1      49.120   5.598  16.134  0.00  0.00    +0.000 NA
ENDBRANCH   6   8
ENDBRANCH   1   2
BRANCH   1  14
ATOM     14  N   UNL     1      44.227   6.273  12.087  0.00  0.00    +0.000 N 
ATOM     15  H   UNL     1      44.070   6.153  13.086  0.00  0.00    +0.000 HD
BRANCH  14  20
ATOM     16  C   UNL     1      44.914   3.647   9.509  0.00  0.00    +0.000 A 
ATOM     17  C   UNL     1      44.116   2.649  10.038  0.00  0.00    +0.000 A 
ATOM     18  N   UNL     1      43.403   2.788  11.175  0.00  0.00    +0.000 NA
ATOM     19  C   UNL     1      43.499   3.984  11.808  0.00  0.00    +0.000 A 
ATOM     20  C   UNL     1      44.286   5.062  11.397  0.00  0.00    +0.000 A 
ATOM     21  C   UNL     1      44.982   4.870  10.200  0.00  0.00    +0.000 A 
BRANCH  16  23
ATOM     22  F   UNL     1      46.357   2.248   8.205  0.00  0.00    +0.000 F 
ATOM     23  C   UNL     1      45.672   3.425   8.238  0.00  0.00    +0.000 C 
ATOM     24  F   UNL     1      46.596   4.399   8.007  0.00  0.00    +0.000 F 
ATOM     25  F   UNL     1      44.864   3.414   7.143  0.00  0.00    +0.000 F 
ENDBRANCH  16  23
ENDBRANCH  14  20
ENDBRANCH   1  14
TORSDOF 5
ENDMDL
MODEL 6
REMARK VINA RESULT:    -7.283      4.367      7.676
REMARK INTER + INTRA:         -10.159
REMARK INTER:                  -9.491
REMARK INTRA:                  -0.668
REMARK UNBOUND:                -0.747
REMARK  Name = 
REMARK  5 active torsions:
REMARK  status: ('A' for Active; 'I' for Inactive)
REMARK    1  A    between atoms: C_2  and  C_5
REMARK    2  A    between atoms: C_9  and  N_10
REMARK    3  A    between atoms: N_10  and  C_11
REMARK    4  A    between atoms: C_11  and  C_12
REMARK    5  A    between atoms: C_16  and  C_17
REMARK                            x       y       z     vdW  Elec       q    Type
REMARK                         _______ _______ _______ _____ _____    ______ ____
ROOT
ATOM      1  C   UNL     1      44.881   5.986  12.766  0.00  0.00    +0.000 C 
ENDROOT
BRANCH   1   2
ATOM      2  C   UNL     1      44.492   4.775  11.956  0.00  0.00    +0.000 A 
ATOM      3  C   UNL     1      43.465   3.927  12.369  0.00  0.00    +0.000 A 
ATOM      4  C   UNL     1      43.189   2.806  11.605  0.00  0.00    +0.000 A 
ATOM      5  N   UNL     1      43.853   2.480  10.474  0.00  0.00    +0.000 NA
ATOM      6  C   UNL     1      44.845   3.312  10.053  0.00  0.00    +0.000 A 
ATOM      7  C   UNL     1      45.169   4.469  10.768  0.00  0.00    +0.000 A 
BRANCH   6   8
ATOM      8  C   UNL     1      45.582   2.910   8.828  0.00  0.00    +0.000 A 
ATOM      9  C   UNL     1      45.901   3.822   7.819  0.00  0.00    +0.000 A 
ATOM     10  C   UNL     1      46.569   3.383   6.678  0.00  0.00    +0.000 A 
ATOM     11  C   UNL     1      46.911   2.042   6.566  0.00  0.00    +0.000 A 
ATOM     12  C   UNL     1      46.569   1.196   7.603  0.00  0.00    +0.000 A 
ATOM     13  N   UNL     1      45.919   1.593   8.720  0.00  0.00    +0.000 NA
ENDBRANCH   6   8
ENDBRANCH   1   2
BRANCH   1  14
ATOM     14  N   UNL     1      46.038   5.690  13.595  0.00  0.00    +0.000 N 
ATOM     15  H   UNL     1      45.812   5.588  14.583  0.00  0.00    +0.000 HD
BRANCH  14  20
ATOM     16  C   UNL     1      49.380   7.297  14.105  0.00  0.00    +0.000 A 
ATOM     17  C   UNL     1      49.537   7.814  12.831  0.00  0.00    +0.000 A 
ATOM     18  N   UNL     1      48.636   7.647  11.841  0.00  0.00    +0.000 NA
ATOM     19  C   UNL     1      47.528   6.927  12.146  0.00  0.00    +0.000 A 
ATOM     20  C   UNL     1      47.259   6.329  13.380  0.00  0.00    +0.000 A 
ATOM     21  C   UNL     1      48.215   6.557  14.374  0.00  0.00    +0.000 A 
BRANCH  16  23
ATOM     22  F   UNL     1      51.693   7.552  14.674  0.00  0.00    +0.000 F 
ATOM     23  C   UNL     1      50.419   7.528  15.156  0.00  0.00    +0.000 C 
ATOM     24  F   UNL     1      50.406   6.567  16.120  0.00  0.00    +0.000 F 
ATOM     25  F   UNL     1      50.248   8.710  15.809  0.00  0.00    +0.000 F 
ENDBRANCH  16  23
ENDBRANCH  14  20
ENDBRANCH   1  14
TORSDOF 5
ENDMDL
MODEL 7
REMARK VINA RESULT:    -7.198      4.318      7.894
REMARK INTER + INTRA:         -10.049
REMARK INTER:                  -9.438
REMARK INTRA:                  -0.610
REMARK UNBOUND:                -0.747
REMARK  Name = 
REMARK  5 active torsions:
REMARK  status: ('A' for Active; 'I' for Inactive)
REMARK    1  A    between atoms: C_2  and  C_5
REMARK    2  A    between atoms: C_9  and  N_10
REMARK    3  A    between atoms: N_10  and  C_11
REMARK    4  A    between atoms: C_11  and  C_12
REMARK    5  A    between atoms: C_16  and  C_17
REMARK                            x       y       z     vdW  Elec       q    Type
REMARK                         _______ _______ _______ _____ _____    ______ ____
ROOT
ATOM      1  C   UNL     1      45.896   7.102  12.562  0.00  0.00    +0.000 C 
ENDROOT
BRANCH   1   2
ATOM      2  C   UNL     1      45.075   6.188  11.687  0.00  0.00    +0.000 A 
ATOM      3  C   UNL     1      43.698   6.060  11.864  0.00  0.00    +0.000 A 
ATOM      4  C   UNL     1      43.010   5.169  11.059  0.00  0.00    +0.000 A 
ATOM      5  N   UNL     1      43.591   4.411  10.103  0.00  0.00    +0.000 NA
ATOM      6  C   UNL     1      44.931   4.543   9.909  0.00  0.00    +0.000 A 
ATOM      7  C   UNL     1      45.688   5.434  10.677  0.00  0.00    +0.000 A 
BRANCH   6   8
ATOM      8  C   UNL     1      45.549   3.672   8.878  0.00  0.00    +0.000 A 
ATOM      9  C   UNL     1      45.580   2.281   9.000  0.00  0.00    +0.000 A 
ATOM     10  C   UNL     1      46.200   1.515   8.015  0.00  0.00    +0.000 A 
ATOM     11  C   UNL     1      46.774   2.150   6.922  0.00  0.00    +0.000 A 
ATOM     12  C   UNL     1      46.703   3.529   6.862  0.00  0.00    +0.000 A 
ATOM     13  N   UNL     1      46.112   4.297   7.804  0.00  0.00    +0.000 NA
ENDBRANCH   6   8
ENDBRANCH   1   2
BRANCH   1  14
ATOM     14  N   UNL     1      47.169   6.482  12.888  0.00  0.00    +0.000 N 
ATOM     15  H   UNL     1      47.587   5.981  12.105  0.00  0.00    +0.000 HD
BRANCH  14  20
ATOM     16  C   UNL     1      48.486   5.506  16.254  0.00  0.00    +0.000 A 
ATOM     17  C   UNL     1      47.792   4.318  16.391  0.00  0.00    +0.000 A 
ATOM     18  N   UNL     1      46.925   3.849  15.469  0.00  0.00    +0.000 NA
ATOM     19  C   UNL     1      46.749   4.610  14.361  0.00  0.00    +0.000 A 
ATOM     20  C   UNL     1      47.365   5.839  14.111  0.00  0.00    +0.000 A 
ATOM     21  C   UNL     1      48.270   6.262  15.087  0.00  0.00    +0.000 A 
BRANCH  16  23
ATOM     22  F   UNL     1      49.146   5.484  18.557  0.00  0.00    +0.000 F 
ATOM     23  C   UNL     1      49.438   5.961  17.315  0.00  0.00    +0.000 C 
ATOM     24  F   UNL     1      49.471   7.317  17.436  0.00  0.00    +0.000 F 
ATOM     25  F   UNL     1      50.721   5.580  17.064  0.00  0.00    +0.000 F 
ENDBRANCH  16  23
ENDBRANCH  14  20
ENDBRANCH   1  14
TORSDOF 5
ENDMDL
MODEL 8
REMARK VINA RESULT:    -6.969      2.011      2.877
REMARK INTER + INTRA:          -9.753
REMARK INTER:                  -9.340
REMARK INTRA:                  -0.413
REMARK UNBOUND:                -0.747
REMARK  Name = 
REMARK  5 active torsions:
REMARK  status: ('A' for Active; 'I' for Inactive)
REMARK    1  A    between atoms: C_2  and  C_5
REMARK    2  A    between atoms: C_9  and  N_10
REMARK    3  A    between atoms: N_10  and  C_11
REMARK    4  A    between atoms: C_11  and  C_12
REMARK    5  A    between atoms: C_16  and  C_17
REMARK                            x       y       z     vdW  Elec       q    Type
REMARK                         _______ _______ _______ _____ _____    ______ ____
ROOT
ATOM      1  C   UNL     1      45.515   6.338  10.850  0.00  0.00    +0.000 C 
ENDROOT
BRANCH   1   2
ATOM      2  C   UNL     1      46.234   5.959  12.120  0.00  0.00    +0.000 A 
ATOM      3  C   UNL     1      45.980   4.747  12.762  0.00  0.00    +0.000 A 
ATOM      4  C   UNL     1      46.639   4.480  13.950  0.00  0.00    +0.000 A 
ATOM      5  N   UNL     1      47.522   5.322  14.530  0.00  0.00    +0.000 NA
ATOM      6  C   UNL     1      47.791   6.499  13.902  0.00  0.00    +0.000 A 
ATOM      7  C   UNL     1      47.172   6.829  12.692  0.00  0.00    +0.000 A 
BRANCH   6   8
ATOM      8  C   UNL     1      48.736   7.421  14.581  0.00  0.00    +0.000 A 
ATOM      9  C   UNL     1      48.355   8.696  15.005  0.00  0.00    +0.000 A 
ATOM     10  C   UNL     1      49.292   9.531  15.611  0.00  0.00    +0.000 A 
ATOM     11  C   UNL     1      50.592   9.076  15.786  0.00  0.00    +0.000 A 
ATOM     12  C   UNL     1      50.899   7.803  15.346  0.00  0.00    +0.000 A 
ATOM     13  N   UNL     1      50.012   6.973  14.753  0.00  0.00    +0.000 NA
ENDBRANCH   6   8
ENDBRANCH   1   2
BRANCH   1  14
ATOM     14  N   UNL     1      44.532   5.325  10.504  0.00  0.00    +0.000 N 
ATOM     15  H   UNL     1      43.874   5.126  11.256  0.00  0.00    +0.000 HD
BRANCH  14  20
ATOM     16  C   UNL     1      45.936   3.024   7.907  0.00  0.00    +0.000 A 
ATOM     17  C   UNL     1      45.334   1.857   8.343  0.00  0.00    +0.000 A 
ATOM     18  N   UNL     1      44.531   1.791   9.426  0.00  0.00    +0.000 NA
ATOM     19  C   UNL     1      44.327   2.950  10.100  0.00  0.00    +0.000 A 
ATOM     20  C   UNL     1      44.894   4.187   9.784  0.00  0.00    +0.000 A 
ATOM     21  C   UNL     1      45.695   4.200   8.639  0.00  0.00    +0.000 A 
BRANCH  16  23
ATOM     22  F   UNL     1      46.467   2.082   5.769  0.00  0.00    +0.000 F 
ATOM     23  C   UNL     1      46.809   3.023   6.692  0.00  0.00    +0.000 C 
ATOM     24  F   UNL     1      48.117   2.790   6.993  0.00  0.00    +0.000 F 
ATOM     25  F   UNL     1      46.788   4.214   6.033  0.00  0.00    +0.000 F 
ENDBRANCH  16  23
ENDBRANCH  14  20
ENDBRANCH   1  14
TORSDOF 5
ENDMDL
MODEL 9
REMARK VINA RESULT:    -6.750      4.150      7.908
REMARK INTER + INTRA:          -9.470
REMARK INTER:                  -8.800
REMARK INTRA:                  -0.670
REMARK UNBOUND:                -0.747
REMARK  Name = 
REMARK  5 active torsions:
REMARK  status: ('A' for Active; 'I' for Inactive)
REMARK    1  A    between atoms: C_2  and  C_5
REMARK    2  A    between atoms: C_9  and  N_10
REMARK    3  A    between atoms: N_10  and  C_11
REMARK    4  A    between atoms: C_11  and  C_12
REMARK    5  A    between atoms: C_16  and  C_17
REMARK                            x       y       z     vdW  Elec       q    Type
REMARK                         _______ _______ _______ _____ _____    ______ ____
ROOT
ATOM      1  C   UNL     1      48.433   7.542  13.521  0.00  0.00    +0.000 C 
ENDROOT
BRANCH   1   2
ATOM      2  C   UNL     1      47.154   7.472  12.726  0.00  0.00    +0.000 A 
ATOM      3  C   UNL     1      46.189   8.476  12.817  0.00  0.00    +0.000 A 
ATOM      4  C   UNL     1      45.016   8.328  12.098  0.00  0.00    +0.000 A 
ATOM      5  N   UNL     1      44.744   7.269  11.304  0.00  0.00    +0.000 NA
ATOM      6  C   UNL     1      45.687   6.294  11.194  0.00  0.00    +0.000 A 
ATOM      7  C   UNL     1      46.901   6.383  11.882  0.00  0.00    +0.000 A 
BRANCH   6   8
ATOM      8  C   UNL     1      45.347   5.124  10.345  0.00  0.00    +0.000 A 
ATOM      9  C   UNL     1      44.678   4.008  10.851  0.00  0.00    +0.000 A 
ATOM     10  C   UNL     1      44.411   2.926  10.015  0.00  0.00    +0.000 A 
ATOM     11  C   UNL     1      44.812   2.979   8.687  0.00  0.00    +0.000 A 
ATOM     12  C   UNL     1      45.465   4.116   8.252  0.00  0.00    +0.000 A 
ATOM     13  N   UNL     1      45.740   5.179   9.040  0.00  0.00    +0.000 NA
ENDBRANCH   6   8
ENDBRANCH   1   2
BRANCH   1  14
ATOM     14  N   UNL     1      48.156   7.392  14.940  0.00  0.00    +0.000 N 
ATOM     15  H   UNL     1      48.101   8.280  15.437  0.00  0.00    +0.000 HD
BRANCH  14  20
ATOM     16  C   UNL     1      48.763   4.323  16.995  0.00  0.00    +0.000 A 
ATOM     17  C   UNL     1      50.069   4.595  17.360  0.00  0.00    +0.000 A 
ATOM     18  N   UNL     1      50.743   5.693  16.958  0.00  0.00    +0.000 NA
ATOM     19  C   UNL     1      50.073   6.554  16.154  0.00  0.00    +0.000 A 
ATOM     20  C   UNL     1      48.765   6.387  15.691  0.00  0.00    +0.000 A 
ATOM     21  C   UNL     1      48.109   5.245  16.159  0.00  0.00    +0.000 A 
BRANCH  16  23
ATOM     22  F   UNL     1      48.297   2.820  18.802  0.00  0.00    +0.000 F 
ATOM     23  C   UNL     1      48.076   3.087  17.485  0.00  0.00    +0.000 C 
ATOM     24  F   UNL     1      48.469   1.972  16.809  0.00  0.00    +0.000 F 
ATOM     25  F   UNL     1      46.723   3.150  17.341  0.00  0.00    +0.000 F 
ENDBRANCH  16  23
ENDBRANCH  14  20
ENDBRANCH   1  14
TORSDOF 5
ENDMDL
