MODEL 1
REMARK VINA RESULT:    -8.448      0.000      0.000
REMARK INTER + INTRA:         -14.859
REMARK INTER:                 -13.386
REMARK INTRA:                  -1.473
REMARK UNBOUND:                -1.473
REMARK  Name = 
REMARK  10 active torsions:
REMARK  status: ('A' for Active; 'I' for Inactive)
REMARK    1  A    between atoms: C_2  and  C_3
REMARK    2  A    between atoms: C_3  and  N_4
REMARK    3  A    between atoms: C_3  and  C_32
REMARK    4  A    between atoms: N_4  and  C_5
REMARK    5  A    between atoms: C_5  and  C_6
REMARK    6  A    between atoms: C_9  and  C_10
REMARK    7  A    between atoms: C_10  and  N_11
REMARK    8  A    between atoms: C_12  and  C_14
REMARK    9  A    between atoms: N_20  and  C_21
REMARK   10  A    between atoms: C_21  and  C_22
REMARK                            x       y       z     vdW  Elec       q    Type
REMARK                         _______ _______ _______ _____ _____    ______ ____
ROOT
ATOM      1  C   UNL     1      47.461   9.018  13.602  0.00  0.00    +0.000 C 
ENDROOT
BRANCH   1   5
ATOM      2  C   UNL     1      44.308   6.739  11.693  0.00  0.00    +0.000 A 
ATOM      3  C   UNL     1      45.142   6.146  12.650  0.00  0.00    +0.000 A 
ATOM      4  C   UNL     1      46.163   6.881  13.264  0.00  0.00    +0.000 A 
ATOM      5  C   UNL     1      46.360   8.229  12.946  0.00  0.00    +0.000 A 
ATOM      6  C   UNL     1      45.532   8.815  11.986  0.00  0.00    +0.000 A 
ATOM      7  F   UNL     1      45.710  10.096  11.637  0.00  0.00    +0.000 F 
ATOM      8  C   UNL     1      44.513   8.088  11.370  0.00  0.00    +0.000 A 
BRANCH   2   9
ATOM      9  C   UNL     1      43.194   5.946  11.045  0.00  0.00    +0.000 C 
BRANCH   9  10
ATOM     10  N   UNL     1      43.705   5.157   9.924  0.00  0.00    +0.000 NA
ATOM     11  H   UNL     1      44.344   5.742   9.383  0.00  0.00    +0.000 HD
BRANCH  10  12
ATOM     12  C   UNL     1      44.477   3.962  10.365  0.00  0.00    +0.000 C 
BRANCH  12  13
ATOM     13  C   UNL     1      45.223   3.352   9.176  0.00  0.00    +0.000 A 
ATOM     14  C   UNL     1      45.700   4.159   8.139  0.00  0.00    +0.000 A 
ATOM     15  C   UNL     1      46.421   3.575   7.101  0.00  0.00    +0.000 A 
ATOM     16  C   UNL     1      46.638   2.204   7.112  0.00  0.00    +0.000 A 
ATOM     17  C   UNL     1      46.123   1.468   8.166  0.00  0.00    +0.000 A 
ATOM     18  N   UNL     1      45.435   2.008   9.198  0.00  0.00    +0.000 NA
ENDBRANCH  12  13
BRANCH  12  20
ATOM     19  N   UNL     1      42.985   2.126  11.554  0.00  0.00    +0.000 NA
ATOM     20  C   UNL     1      43.661   2.918  11.037  0.00  0.00    +0.000 C 
ENDBRANCH  12  20
ENDBRANCH  10  12
ENDBRANCH   9  10
ENDBRANCH   2   9
ENDBRANCH   1   5
BRANCH   1  21
ATOM     21  N   UNL     1      47.514   8.763  15.021  0.00  0.00    +0.000 N 
ATOM     22  C   UNL     1      48.540   9.260  15.798  0.00  0.00    +0.000 C 
ATOM     23  O   UNL     1      49.454   9.934  15.342  0.00  0.00    +0.000 OA
ATOM     24  H   UNL     1      46.731   8.301  15.459  0.00  0.00    +0.000 HD
BRANCH  22  25
ATOM     25  C   UNL     1      48.460   8.877  17.210  0.00  0.00    +0.000 A 
ATOM     26  C   UNL     1      48.200   9.788  18.224  0.00  0.00    +0.000 A 
ATOM     27  S   UNL     1      48.077   9.067  19.764  0.00  0.00    +0.000 S 
ATOM     28  C   UNL     1      48.369   7.517  19.124  0.00  0.00    +0.000 A 
ATOM     29  N   UNL     1      48.388   6.423  19.927  0.00  0.00    +0.000 NA
ATOM     30  C   UNL     1      48.595   5.309  19.306  0.00  0.00    +0.000 A 
ATOM     31  N   UNL     1      48.793   5.173  17.947  0.00  0.00    +0.000 N 
ATOM     32  C   UNL     1      48.893   6.286  17.112  0.00  0.00    +0.000 A 
ATOM     33  O   UNL     1      49.270   6.191  15.947  0.00  0.00    +0.000 OA
ATOM     34  C   UNL     1      48.578   7.549  17.760  0.00  0.00    +0.000 A 
BRANCH  31  35
ATOM     35  C   UNL     1      49.064   3.859  17.364  0.00  0.00    +0.000 C 
BRANCH  35  36
ATOM     36  C   UNL     1      47.842   3.139  16.789  0.00  0.00    +0.000 C 
ATOM     37  F   UNL     1      47.004   3.974  16.138  0.00  0.00    +0.000 F 
ATOM     38  F   UNL     1      48.241   2.201  15.894  0.00  0.00    +0.000 F 
ATOM     39  F   UNL     1      47.139   2.501  17.748  0.00  0.00    +0.000 F 
ENDBRANCH  35  36
ENDBRANCH  31  35
ENDBRANCH  22  25
ENDBRANCH   1  21
TORSDOF 10
ENDMDL
MODEL 2
REMARK VINA RESULT:    -7.840      4.029      8.823
REMARK INTER + INTRA:         -13.896
REMARK INTER:                 -12.222
REMARK INTRA:                  -1.674
REMARK UNBOUND:                -1.473
REMARK  Name = 
REMARK  10 active torsions:
REMARK  status: ('A' for Active; 'I' for Inactive)
REMARK    1  A    between atoms: C_2  and  C_3
REMARK    2  A    between atoms: C_3  and  N_4
REMARK    3  A    between atoms: C_3  and  C_32
REMARK    4  A    between atoms: N_4  and  C_5
REMARK    5  A    between atoms: C_5  and  C_6
REMARK    6  A    between atoms: C_9  and  C_10
REMARK    7  A    between atoms: C_10  and  N_11
REMARK    8  A    between atoms: C_12  and  C_14
REMARK    9  A    between atoms: N_20  and  C_21
REMARK   10  A    between atoms: C_21  and  C_22
REMARK                            x       y       z     vdW  Elec       q    Type
REMARK                         _______ _______ _______ _____ _____    ______ ____
ROOT
ATOM      1  C   UNL     1      47.214   8.062  11.850  0.00  0.00    +0.000 C 
ENDROOT
BRANCH   1   5
ATOM      2  C   UNL     1      49.561   8.239  15.490  0.00  0.00    +0.000 A 
ATOM      3  C   UNL     1      48.312   8.870  15.411  0.00  0.00    +0.000 A 
ATOM      4  C   UNL     1      47.556   8.816  14.233  0.00  0.00    +0.000 A 
ATOM      5  C   UNL     1      48.025   8.116  13.117  0.00  0.00    +0.000 A 
ATOM      6  C   UNL     1      49.272   7.494  13.197  0.00  0.00    +0.000 A 
ATOM      7  F   UNL     1      49.765   6.838  12.138  0.00  0.00    +0.000 F 
ATOM      8  C   UNL     1      50.032   7.545  14.366  0.00  0.00    +0.000 A 
BRANCH   2   9
ATOM      9  C   UNL     1      50.367   8.284  16.769  0.00  0.00    +0.000 C 
BRANCH   9  10
ATOM     10  N   UNL     1      49.860   7.310  17.735  0.00  0.00    +0.000 NA
ATOM     11  H   UNL     1      48.884   7.108  17.508  0.00  0.00    +0.000 HD
BRANCH  10  12
ATOM     12  C   UNL     1      50.592   6.013  17.685  0.00  0.00    +0.000 C 
BRANCH  12  13
ATOM     13  C   UNL     1      49.627   4.878  17.340  0.00  0.00    +0.000 A 
ATOM     14  C   UNL     1      48.295   5.146  17.009  0.00  0.00    +0.000 A 
ATOM     15  C   UNL     1      47.460   4.092  16.648  0.00  0.00    +0.000 A 
ATOM     16  C   UNL     1      47.965   2.798  16.639  0.00  0.00    +0.000 A 
ATOM     17  C   UNL     1      49.290   2.610  16.993  0.00  0.00    +0.000 A 
ATOM     18  N   UNL     1      50.131   3.614  17.329  0.00  0.00    +0.000 NA
ENDBRANCH  12  13
BRANCH  12  20
ATOM     19  N   UNL     1      51.880   5.430  19.924  0.00  0.00    +0.000 NA
ATOM     20  C   UNL     1      51.336   5.683  18.928  0.00  0.00    +0.000 C 
ENDBRANCH  12  20
ENDBRANCH  10  12
ENDBRANCH   9  10
ENDBRANCH   2   9
ENDBRANCH   1   5
BRANCH   1  21
ATOM     21  N   UNL     1      46.546   6.791  11.709  0.00  0.00    +0.000 N 
ATOM     22  C   UNL     1      45.187   6.719  11.488  0.00  0.00    +0.000 C 
ATOM     23  O   UNL     1      44.473   7.710  11.399  0.00  0.00    +0.000 OA
ATOM     24  H   UNL     1      47.105   5.952  11.672  0.00  0.00    +0.000 HD
BRANCH  22  25
ATOM     25  C   UNL     1      44.665   5.353  11.406  0.00  0.00    +0.000 A 
ATOM     26  C   UNL     1      43.866   4.792  12.393  0.00  0.00    +0.000 A 
ATOM     27  S   UNL     1      43.326   3.220  12.011  0.00  0.00    +0.000 S 
ATOM     28  C   UNL     1      44.144   3.241  10.518  0.00  0.00    +0.000 A 
ATOM     29  N   UNL     1      44.084   2.179   9.675  0.00  0.00    +0.000 NA
ATOM     30  C   UNL     1      44.730   2.340   8.567  0.00  0.00    +0.000 A 
ATOM     31  N   UNL     1      45.444   3.467   8.211  0.00  0.00    +0.000 N 
ATOM     32  C   UNL     1      45.620   4.527   9.102  0.00  0.00    +0.000 A 
ATOM     33  O   UNL     1      46.415   5.435   8.878  0.00  0.00    +0.000 OA
ATOM     34  C   UNL     1      44.836   4.419  10.321  0.00  0.00    +0.000 A 
BRANCH  31  35
ATOM     35  C   UNL     1      46.174   3.514   6.944  0.00  0.00    +0.000 C 
BRANCH  35  36
ATOM     36  C   UNL     1      47.219   2.413   6.757  0.00  0.00    +0.000 C 
ATOM     37  F   UNL     1      47.247   1.539   7.786  0.00  0.00    +0.000 F 
ATOM     38  F   UNL     1      46.938   1.698   5.638  0.00  0.00    +0.000 F 
ATOM     39  F   UNL     1      48.460   2.921   6.603  0.00  0.00    +0.000 F 
ENDBRANCH  35  36
ENDBRANCH  31  35
ENDBRANCH  22  25
ENDBRANCH   1  21
TORSDOF 10
ENDMDL
MODEL 3
REMARK VINA RESULT:    -7.192      5.842      8.596
REMARK INTER + INTRA:         -12.870
REMARK INTER:                 -11.767
REMARK INTRA:                  -1.102
REMARK UNBOUND:                -1.473
REMARK  Name = 
REMARK  10 active torsions:
REMARK  status: ('A' for Active; 'I' for Inactive)
REMARK    1  A    between atoms: C_2  and  C_3
REMARK    2  A    between atoms: C_3  and  N_4
REMARK    3  A    between atoms: C_3  and  C_32
REMARK    4  A    between atoms: N_4  and  C_5
REMARK    5  A    between atoms: C_5  and  C_6
REMARK    6  A    between atoms: C_9  and  C_10
REMARK    7  A    between atoms: C_10  and  N_11
REMARK    8  A    between atoms: C_12  and  C_14
REMARK    9  A    between atoms: N_20  and  C_21
REMARK   10  A    between atoms: C_21  and  C_22
REMARK                            x       y       z     vdW  Elec       q    Type
REMARK                         _______ _______ _______ _____ _____    ______ ____
ROOT
ATOM      1  C   UNL     1      46.594   8.344  12.372  0.00  0.00    +0.000 C 
ENDROOT
BRANCH   1   5
ATOM      2  C   UNL     1      50.782   8.672  11.306  0.00  0.00    +0.000 A 
ATOM      3  C   UNL     1      50.229   7.437  11.670  0.00  0.00    +0.000 A 
ATOM      4  C   UNL     1      48.877   7.332  12.019  0.00  0.00    +0.000 A 
ATOM      5  C   UNL     1      48.046   8.456  11.993  0.00  0.00    +0.000 A 
ATOM      6  C   UNL     1      48.601   9.687  11.636  0.00  0.00    +0.000 A 
ATOM      7  F   UNL     1      47.839  10.789  11.627  0.00  0.00    +0.000 F 
ATOM      8  C   UNL     1      49.947   9.799  11.289  0.00  0.00    +0.000 A 
BRANCH   2   9
ATOM      9  C   UNL     1      52.239   8.779  10.912  0.00  0.00    +0.000 C 
BRANCH   9  10
ATOM     10  N   UNL     1      52.728   7.503  10.391  0.00  0.00    +0.000 NA
ATOM     11  H   UNL     1      52.146   6.754  10.772  0.00  0.00    +0.000 HD
BRANCH  10  12
ATOM     12  C   UNL     1      52.635   7.412   8.907  0.00  0.00    +0.000 C 
BRANCH  12  13
ATOM     13  C   UNL     1      53.416   6.195   8.406  0.00  0.00    +0.000 A 
ATOM     14  C   UNL     1      53.045   5.543   7.226  0.00  0.00    +0.000 A 
ATOM     15  C   UNL     1      53.811   4.473   6.773  0.00  0.00    +0.000 A 
ATOM     16  C   UNL     1      54.918   4.070   7.508  0.00  0.00    +0.000 A 
ATOM     17  C   UNL     1      55.214   4.756   8.674  0.00  0.00    +0.000 A 
ATOM     18  N   UNL     1      54.500   5.811   9.131  0.00  0.00    +0.000 NA
ENDBRANCH  12  13
BRANCH  12  20
ATOM     19  N   UNL     1      53.403   9.606   7.640  0.00  0.00    +0.000 NA
ATOM     20  C   UNL     1      53.087   8.632   8.189  0.00  0.00    +0.000 C 
ENDBRANCH  12  20
ENDBRANCH  10  12
ENDBRANCH   9  10
ENDBRANCH   2   9
ENDBRANCH   1   5
BRANCH   1  21
ATOM     21  N   UNL     1      46.100   7.004  12.163  0.00  0.00    +0.000 N 
ATOM     22  C   UNL     1      44.847   6.780  11.630  0.00  0.00    +0.000 C 
ATOM     23  O   UNL     1      44.089   7.685  11.308  0.00  0.00    +0.000 OA
ATOM     24  H   UNL     1      46.726   6.228  12.316  0.00  0.00    +0.000 HD
BRANCH  22  25
ATOM     25  C   UNL     1      44.489   5.364  11.519  0.00  0.00    +0.000 A 
ATOM     26  C   UNL     1      43.723   4.705  12.471  0.00  0.00    +0.000 A 
ATOM     27  S   UNL     1      43.382   3.086  12.058  0.00  0.00    +0.000 S 
ATOM     28  C   UNL     1      44.247   3.217  10.597  0.00  0.00    +0.000 A 
ATOM     29  N   UNL     1      44.341   2.164   9.745  0.00  0.00    +0.000 NA
ATOM     30  C   UNL     1      45.005   2.410   8.664  0.00  0.00    +0.000 A 
ATOM     31  N   UNL     1      45.598   3.615   8.344  0.00  0.00    +0.000 N 
ATOM     32  C   UNL     1      45.618   4.678   9.248  0.00  0.00    +0.000 A 
ATOM     33  O   UNL     1      46.312   5.674   9.061  0.00  0.00    +0.000 OA
ATOM     34  C   UNL     1      44.807   4.468  10.435  0.00  0.00    +0.000 A 
BRANCH  31  35
ATOM     35  C   UNL     1      46.365   3.759   7.106  0.00  0.00    +0.000 C 
BRANCH  35  36
ATOM     36  C   UNL     1      47.250   2.564   6.749  0.00  0.00    +0.000 C 
ATOM     37  F   UNL     1      47.352   1.671   7.756  0.00  0.00    +0.000 F 
ATOM     38  F   UNL     1      46.724   1.904   5.687  0.00  0.00    +0.000 F 
ATOM     39  F   UNL     1      48.496   2.949   6.401  0.00  0.00    +0.000 F 
ENDBRANCH  35  36
ENDBRANCH  31  35
ENDBRANCH  22  25
ENDBRANCH   1  21
TORSDOF 10
ENDMDL
MODEL 4
REMARK VINA RESULT:    -7.076      2.330      2.719
REMARK INTER + INTRA:         -12.686
REMARK INTER:                 -11.371
REMARK INTRA:                  -1.315
REMARK UNBOUND:                -1.473
REMARK  Name = 
REMARK  10 active torsions:
REMARK  status: ('A' for Active; 'I' for Inactive)
REMARK    1  A    between atoms: C_2  and  C_3
REMARK    2  A    between atoms: C_3  and  N_4
REMARK    3  A    between atoms: C_3  and  C_32
REMARK    4  A    between atoms: N_4  and  C_5
REMARK    5  A    between atoms: C_5  and  C_6
REMARK    6  A    between atoms: C_9  and  C_10
REMARK    7  A    between atoms: C_10  and  N_11
REMARK    8  A    between atoms: C_12  and  C_14
REMARK    9  A    between atoms: N_20  and  C_21
REMARK   10  A    between atoms: C_21  and  C_22
REMARK                            x       y       z     vdW  Elec       q    Type
REMARK                         _______ _______ _______ _____ _____    ______ ____
ROOT
ATOM      1  C   UNL     1      48.337   9.967  12.280  0.00  0.00    +0.000 C 
ENDROOT
BRANCH   1   5
ATOM      2  C   UNL     1      45.126   7.098  11.787  0.00  0.00    +0.000 A 
ATOM      3  C   UNL     1      46.465   6.685  11.775  0.00  0.00    +0.000 A 
ATOM      4  C   UNL     1      47.503   7.612  11.930  0.00  0.00    +0.000 A 
ATOM      5  C   UNL     1      47.222   8.970  12.119  0.00  0.00    +0.000 A 
ATOM      6  C   UNL     1      45.887   9.379  12.123  0.00  0.00    +0.000 A 
ATOM      7  F   UNL     1      45.583  10.676  12.273  0.00  0.00    +0.000 F 
ATOM      8  C   UNL     1      44.848   8.461  11.968  0.00  0.00    +0.000 A 
BRANCH   2   9
ATOM      9  C   UNL     1      44.007   6.091  11.637  0.00  0.00    +0.000 C 
BRANCH   9  10
ATOM     10  N   UNL     1      44.163   5.326  10.400  0.00  0.00    +0.000 NA
ATOM     11  H   UNL     1      44.827   5.816   9.799  0.00  0.00    +0.000 HD
BRANCH  10  12
ATOM     12  C   UNL     1      44.715   3.961  10.632  0.00  0.00    +0.000 C 
BRANCH  12  13
ATOM     13  C   UNL     1      45.367   3.435   9.352  0.00  0.00    +0.000 A 
ATOM     14  C   UNL     1      45.813   4.315   8.361  0.00  0.00    +0.000 A 
ATOM     15  C   UNL     1      46.450   3.802   7.235  0.00  0.00    +0.000 A 
ATOM     16  C   UNL     1      46.617   2.429   7.115  0.00  0.00    +0.000 A 
ATOM     17  C   UNL     1      46.137   1.620   8.131  0.00  0.00    +0.000 A 
ATOM     18  N   UNL     1      45.530   2.089   9.245  0.00  0.00    +0.000 NA
ENDBRANCH  12  13
BRANCH  12  20
ATOM     19  N   UNL     1      42.969   2.199  11.560  0.00  0.00    +0.000 NA
ATOM     20  C   UNL     1      43.721   2.976  11.133  0.00  0.00    +0.000 C 
ENDBRANCH  12  20
ENDBRANCH  10  12
ENDBRANCH   9  10
ENDBRANCH   2   9
ENDBRANCH   1   5
BRANCH   1  21
ATOM     21  N   UNL     1      49.287   9.534  13.277  0.00  0.00    +0.000 N 
ATOM     22  C   UNL     1      50.469   8.921  12.918  0.00  0.00    +0.000 C 
ATOM     23  O   UNL     1      50.782   8.709  11.754  0.00  0.00    +0.000 OA
ATOM     24  H   UNL     1      49.121   9.779  14.241  0.00  0.00    +0.000 HD
BRANCH  22  25
ATOM     25  C   UNL     1      51.299   8.512  14.053  0.00  0.00    +0.000 A 
ATOM     26  C   UNL     1      52.572   9.020  14.277  0.00  0.00    +0.000 A 
ATOM     27  S   UNL     1      53.286   8.440  15.712  0.00  0.00    +0.000 S 
ATOM     28  C   UNL     1      51.919   7.493  16.078  0.00  0.00    +0.000 A 
ATOM     29  N   UNL     1      51.875   6.738  17.204  0.00  0.00    +0.000 NA
ATOM     30  C   UNL     1      50.769   6.090  17.369  0.00  0.00    +0.000 A 
ATOM     31  N   UNL     1      49.689   6.115  16.509  0.00  0.00    +0.000 N 
ATOM     32  C   UNL     1      49.747   6.788  15.288  0.00  0.00    +0.000 A 
ATOM     33  O   UNL     1      48.880   6.650  14.430  0.00  0.00    +0.000 OA
ATOM     34  C   UNL     1      50.941   7.599  15.110  0.00  0.00    +0.000 A 
BRANCH  31  35
ATOM     35  C   UNL     1      48.505   5.300  16.781  0.00  0.00    +0.000 C 
BRANCH  35  36
ATOM     36  C   UNL     1      47.833   5.562  18.130  0.00  0.00    +0.000 C 
ATOM     37  F   UNL     1      47.701   6.878  18.401  0.00  0.00    +0.000 F 
ATOM     38  F   UNL     1      46.584   5.031  18.132  0.00  0.00    +0.000 F 
ATOM     39  F   UNL     1      48.511   4.990  19.148  0.00  0.00    +0.000 F 
ENDBRANCH  35  36
ENDBRANCH  31  35
ENDBRANCH  22  25
ENDBRANCH   1  21
TORSDOF 10
ENDMDL
MODEL 5
REMARK VINA RESULT:    -7.019      2.226      2.749
REMARK INTER + INTRA:         -12.596
REMARK INTER:                 -11.032
REMARK INTRA:                  -1.564
REMARK UNBOUND:                -1.473
REMARK  Name = 
REMARK  10 active torsions:
REMARK  status: ('A' for Active; 'I' for Inactive)
REMARK    1  A    between atoms: C_2  and  C_3
REMARK    2  A    between atoms: C_3  and  N_4
REMARK    3  A    between atoms: C_3  and  C_32
REMARK    4  A    between atoms: N_4  and  C_5
REMARK    5  A    between atoms: C_5  and  C_6
REMARK    6  A    between atoms: C_9  and  C_10
REMARK    7  A    between atoms: C_10  and  N_11
REMARK    8  A    between atoms: C_12  and  C_14
REMARK    9  A    between atoms: N_20  and  C_21
REMARK   10  A    between atoms: C_21  and  C_22
REMARK                            x       y       z     vdW  Elec       q    Type
REMARK                         _______ _______ _______ _____ _____    ______ ____
ROOT
ATOM      1  C   UNL     1      50.512   8.499  13.805  0.00  0.00    +0.000 C 
ENDROOT
BRANCH   1   5
ATOM      2  C   UNL     1      46.524   8.012  12.180  0.00  0.00    +0.000 A 
ATOM      3  C   UNL     1      46.715   8.516  13.474  0.00  0.00    +0.000 A 
ATOM      4  C   UNL     1      48.003   8.670  14.000  0.00  0.00    +0.000 A 
ATOM      5  C   UNL     1      49.128   8.339  13.237  0.00  0.00    +0.000 A 
ATOM      6  C   UNL     1      48.934   7.831  11.951  0.00  0.00    +0.000 A 
ATOM      7  F   UNL     1      49.989   7.478  11.203  0.00  0.00    +0.000 F 
ATOM      8  C   UNL     1      47.654   7.674  11.421  0.00  0.00    +0.000 A 
BRANCH   2   9
ATOM      9  C   UNL     1      45.131   7.865  11.608  0.00  0.00    +0.000 C 
BRANCH   9  10
ATOM     10  N   UNL     1      44.572   6.554  11.939  0.00  0.00    +0.000 NA
ATOM     11  H   UNL     1      43.822   6.347  11.277  0.00  0.00    +0.000 HD
BRANCH  10  12
ATOM     12  C   UNL     1      45.571   5.454  11.819  0.00  0.00    +0.000 C 
BRANCH  12  13
ATOM     13  C   UNL     1      45.217   4.552  10.635  0.00  0.00    +0.000 A 
ATOM     14  C   UNL     1      45.545   4.924   9.328  0.00  0.00    +0.000 A 
ATOM     15  C   UNL     1      45.257   4.053   8.282  0.00  0.00    +0.000 A 
ATOM     16  C   UNL     1      44.638   2.840   8.558  0.00  0.00    +0.000 A 
ATOM     17  C   UNL     1      44.332   2.548   9.876  0.00  0.00    +0.000 A 
ATOM     18  N   UNL     1      44.616   3.365  10.916  0.00  0.00    +0.000 NA
ENDBRANCH  12  13
BRANCH  12  20
ATOM     19  N   UNL     1      45.850   4.031  14.034  0.00  0.00    +0.000 NA
ATOM     20  C   UNL     1      45.728   4.635  13.049  0.00  0.00    +0.000 C 
ENDBRANCH  12  20
ENDBRANCH  10  12
ENDBRANCH   9  10
ENDBRANCH   2   9
ENDBRANCH   1   5
BRANCH   1  21
ATOM     21  N   UNL     1      50.538   8.196  15.216  0.00  0.00    +0.000 N 
ATOM     22  C   UNL     1      51.670   7.686  15.816  0.00  0.00    +0.000 C 
ATOM     23  O   UNL     1      52.706   7.462  15.202  0.00  0.00    +0.000 OA
ATOM     24  H   UNL     1      49.745   8.459  15.782  0.00  0.00    +0.000 HD
BRANCH  22  25
ATOM     25  C   UNL     1      51.513   7.400  17.244  0.00  0.00    +0.000 A 
ATOM     26  C   UNL     1      52.356   7.926  18.214  0.00  0.00    +0.000 A 
ATOM     27  S   UNL     1      51.902   7.504  19.802  0.00  0.00    +0.000 S 
ATOM     28  C   UNL     1      50.567   6.606  19.243  0.00  0.00    +0.000 A 
ATOM     29  N   UNL     1      49.736   5.978  20.112  0.00  0.00    +0.000 NA
ATOM     30  C   UNL     1      48.751   5.355  19.553  0.00  0.00    +0.000 A 
ATOM     31  N   UNL     1      48.512   5.289  18.194  0.00  0.00    +0.000 N 
ATOM     32  C   UNL     1      49.410   5.826  17.271  0.00  0.00    +0.000 A 
ATOM     33  O   UNL     1      49.316   5.597  16.068  0.00  0.00    +0.000 OA
ATOM     34  C   UNL     1      50.481   6.609  17.865  0.00  0.00    +0.000 A 
BRANCH  31  35
ATOM     35  C   UNL     1      47.386   4.512  17.676  0.00  0.00    +0.000 C 
BRANCH  35  36
ATOM     36  C   UNL     1      47.677   3.031  17.432  0.00  0.00    +0.000 C 
ATOM     37  F   UNL     1      46.682   2.226  17.860  0.00  0.00    +0.000 F 
ATOM     38  F   UNL     1      47.825   2.805  16.102  0.00  0.00    +0.000 F 
ATOM     39  F   UNL     1      48.822   2.639  18.032  0.00  0.00    +0.000 F 
ENDBRANCH  35  36
ENDBRANCH  31  35
ENDBRANCH  22  25
ENDBRANCH   1  21
TORSDOF 10
ENDMDL
MODEL 6
REMARK VINA RESULT:    -6.830      5.662      8.766
REMARK INTER + INTRA:         -12.296
REMARK INTER:                 -11.341
REMARK INTRA:                  -0.954
REMARK UNBOUND:                -1.473
REMARK  Name = 
REMARK  10 active torsions:
REMARK  status: ('A' for Active; 'I' for Inactive)
REMARK    1  A    between atoms: C_2  and  C_3
REMARK    2  A    between atoms: C_3  and  N_4
REMARK    3  A    between atoms: C_3  and  C_32
REMARK    4  A    between atoms: N_4  and  C_5
REMARK    5  A    between atoms: C_5  and  C_6
REMARK    6  A    between atoms: C_9  and  C_10
REMARK    7  A    between atoms: C_10  and  N_11
REMARK    8  A    between atoms: C_12  and  C_14
REMARK    9  A    between atoms: N_20  and  C_21
REMARK   10  A    between atoms: C_21  and  C_22
REMARK                            x       y       z     vdW  Elec       q    Type
REMARK                         _______ _______ _______ _____ _____    ______ ____
ROOT
ATOM      1  C   UNL     1      46.075   8.296  12.890  0.00  0.00    +0.000 C 
ENDROOT
BRANCH   1   5
ATOM      2  C   UNL     1      50.349   8.702  12.291  0.00  0.00    +0.000 A 
ATOM      3  C   UNL     1      49.446   9.514  11.591  0.00  0.00    +0.000 A 
ATOM      4  C   UNL     1      48.065   9.380  11.782  0.00  0.00    +0.000 A 
ATOM      5  C   UNL     1      47.560   8.444  12.689  0.00  0.00    +0.000 A 
ATOM      6  C   UNL     1      48.461   7.632  13.380  0.00  0.00    +0.000 A 
ATOM      7  F   UNL     1      48.010   6.705  14.237  0.00  0.00    +0.000 F 
ATOM      8  C   UNL     1      49.838   7.759  13.194  0.00  0.00    +0.000 A 
BRANCH   2   9
ATOM      9  C   UNL     1      51.840   8.862  12.096  0.00  0.00    +0.000 C 
BRANCH   9  10
ATOM     10  N   UNL     1      52.425   7.637  11.552  0.00  0.00    +0.000 NA
ATOM     11  H   UNL     1      51.743   7.205  10.925  0.00  0.00    +0.000 HD
BRANCH  10  12
ATOM     12  C   UNL     1      53.653   7.892  10.746  0.00  0.00    +0.000 C 
BRANCH  12  13
ATOM     13  C   UNL     1      53.313   7.883   9.255  0.00  0.00    +0.000 A 
ATOM     14  C   UNL     1      52.920   6.702   8.617  0.00  0.00    +0.000 A 
ATOM     15  C   UNL     1      52.566   6.743   7.272  0.00  0.00    +0.000 A 
ATOM     16  C   UNL     1      52.625   7.951   6.590  0.00  0.00    +0.000 A 
ATOM     17  C   UNL     1      53.037   9.075   7.285  0.00  0.00    +0.000 A 
ATOM     18  N   UNL     1      53.369   9.072   8.597  0.00  0.00    +0.000 NA
ENDBRANCH  12  13
BRANCH  12  20
ATOM     19  N   UNL     1      55.611   6.175  11.224  0.00  0.00    +0.000 NA
ATOM     20  C   UNL     1      54.768   6.948  11.015  0.00  0.00    +0.000 C 
ENDBRANCH  12  20
ENDBRANCH  10  12
ENDBRANCH   9  10
ENDBRANCH   2   9
ENDBRANCH   1   5
BRANCH   1  21
ATOM     21  N   UNL     1      45.640   6.950  12.610  0.00  0.00    +0.000 N 
ATOM     22  C   UNL     1      44.793   6.678  11.555  0.00  0.00    +0.000 C 
ATOM     23  O   UNL     1      44.365   7.545  10.805  0.00  0.00    +0.000 OA
ATOM     24  H   UNL     1      46.046   6.191  13.136  0.00  0.00    +0.000 HD
BRANCH  22  25
ATOM     25  C   UNL     1      44.421   5.266  11.435  0.00  0.00    +0.000 A 
ATOM     26  C   UNL     1      43.653   4.607  12.385  0.00  0.00    +0.000 A 
ATOM     27  S   UNL     1      43.294   2.995  11.961  0.00  0.00    +0.000 S 
ATOM     28  C   UNL     1      44.155   3.128  10.498  0.00  0.00    +0.000 A 
ATOM     29  N   UNL     1      44.235   2.081   9.638  0.00  0.00    +0.000 NA
ATOM     30  C   UNL     1      44.896   2.329   8.556  0.00  0.00    +0.000 A 
ATOM     31  N   UNL     1      45.500   3.531   8.242  0.00  0.00    +0.000 N 
ATOM     32  C   UNL     1      45.533   4.587   9.153  0.00  0.00    +0.000 A 
ATOM     33  O   UNL     1      46.236   5.577   8.971  0.00  0.00    +0.000 OA
ATOM     34  C   UNL     1      44.726   4.375  10.343  0.00  0.00    +0.000 A 
BRANCH  31  35
ATOM     35  C   UNL     1      46.262   3.677   7.002  0.00  0.00    +0.000 C 
BRANCH  35  36
ATOM     36  C   UNL     1      47.167   2.494   6.654  0.00  0.00    +0.000 C 
ATOM     37  F   UNL     1      47.494   1.752   7.734  0.00  0.00    +0.000 F 
ATOM     38  F   UNL     1      46.531   1.669   5.785  0.00  0.00    +0.000 F 
ATOM     39  F   UNL     1      48.310   2.895   6.059  0.00  0.00    +0.000 F 
ENDBRANCH  35  36
ENDBRANCH  31  35
ENDBRANCH  22  25
ENDBRANCH   1  21
TORSDOF 10
ENDMDL
MODEL 7
REMARK VINA RESULT:    -6.527      4.719      6.155
REMARK INTER + INTRA:         -11.816
REMARK INTER:                 -10.441
REMARK INTRA:                  -1.376
REMARK UNBOUND:                -1.473
REMARK  Name = 
REMARK  10 active torsions:
REMARK  status: ('A' for Active; 'I' for Inactive)
REMARK    1  A    between atoms: C_2  and  C_3
REMARK    2  A    between atoms: C_3  and  N_4
REMARK    3  A    between atoms: C_3  and  C_32
REMARK    4  A    between atoms: N_4  and  C_5
REMARK    5  A    between atoms: C_5  and  C_6
REMARK    6  A    between atoms: C_9  and  C_10
REMARK    7  A    between atoms: C_10  and  N_11
REMARK    8  A    between atoms: C_12  and  C_14
REMARK    9  A    between atoms: N_20  and  C_21
REMARK   10  A    between atoms: C_21  and  C_22
REMARK                            x       y       z     vdW  Elec       q    Type
REMARK                         _______ _______ _______ _____ _____    ______ ____
ROOT
ATOM      1  C   UNL     1      48.039  10.094  12.511  0.00  0.00    +0.000 C 
ENDROOT
BRANCH   1   5
ATOM      2  C   UNL     1      44.981   7.133  11.691  0.00  0.00    +0.000 A 
ATOM      3  C   UNL     1      46.318   6.753  11.871  0.00  0.00    +0.000 A 
ATOM      4  C   UNL     1      47.306   7.710  12.132  0.00  0.00    +0.000 A 
ATOM      5  C   UNL     1      46.975   9.065  12.235  0.00  0.00    +0.000 A 
ATOM      6  C   UNL     1      45.644   9.441  12.048  0.00  0.00    +0.000 A 
ATOM      7  F   UNL     1      45.296  10.734  12.112  0.00  0.00    +0.000 F 
ATOM      8  C   UNL     1      44.654   8.494  11.786  0.00  0.00    +0.000 A 
BRANCH   2   9
ATOM      9  C   UNL     1      43.913   6.095  11.427  0.00  0.00    +0.000 C 
BRANCH   9  10
ATOM     10  N   UNL     1      44.215   5.340  10.211  0.00  0.00    +0.000 NA
ATOM     11  H   UNL     1      44.946   5.835   9.697  0.00  0.00    +0.000 HD
BRANCH  10  12
ATOM     12  C   UNL     1      44.737   3.973  10.495  0.00  0.00    +0.000 C 
BRANCH  12  13
ATOM     13  C   UNL     1      45.364   3.378   9.232  0.00  0.00    +0.000 A 
ATOM     14  C   UNL     1      45.739   4.198   8.164  0.00  0.00    +0.000 A 
ATOM     15  C   UNL     1      46.356   3.627   7.055  0.00  0.00    +0.000 A 
ATOM     16  C   UNL     1      46.572   2.256   7.028  0.00  0.00    +0.000 A 
ATOM     17  C   UNL     1      46.159   1.507   8.117  0.00  0.00    +0.000 A 
ATOM     18  N   UNL     1      45.575   2.034   9.217  0.00  0.00    +0.000 NA
ENDBRANCH  12  13
BRANCH  12  20
ATOM     19  N   UNL     1      42.968   2.276  11.495  0.00  0.00    +0.000 NA
ATOM     20  C   UNL     1      43.726   3.034  11.047  0.00  0.00    +0.000 C 
ENDBRANCH  12  20
ENDBRANCH  10  12
ENDBRANCH   9  10
ENDBRANCH   2   9
ENDBRANCH   1   5
BRANCH   1  21
ATOM     21  N   UNL     1      49.332   9.478  12.680  0.00  0.00    +0.000 N 
ATOM     22  C   UNL     1      50.464  10.239  12.885  0.00  0.00    +0.000 C 
ATOM     23  O   UNL     1      50.445  11.461  12.935  0.00  0.00    +0.000 OA
ATOM     24  H   UNL     1      49.384   8.472  12.749  0.00  0.00    +0.000 HD
BRANCH  22  25
ATOM     25  C   UNL     1      51.698   9.457  12.999  0.00  0.00    +0.000 A 
ATOM     26  C   UNL     1      52.198   9.013  14.216  0.00  0.00    +0.000 A 
ATOM     27  S   UNL     1      53.599   8.054  14.060  0.00  0.00    +0.000 S 
ATOM     28  C   UNL     1      53.582   8.204  12.364  0.00  0.00    +0.000 A 
ATOM     29  N   UNL     1      54.527   7.600  11.600  0.00  0.00    +0.000 NA
ATOM     30  C   UNL     1      54.379   7.776  10.329  0.00  0.00    +0.000 A 
ATOM     31  N   UNL     1      53.372   8.509   9.733  0.00  0.00    +0.000 N 
ATOM     32  C   UNL     1      52.454   9.236  10.493  0.00  0.00    +0.000 A 
ATOM     33  O   UNL     1      51.689  10.048   9.981  0.00  0.00    +0.000 OA
ATOM     34  C   UNL     1      52.537   8.991  11.923  0.00  0.00    +0.000 A 
BRANCH  31  35
ATOM     35  C   UNL     1      53.335   8.675   8.280  0.00  0.00    +0.000 C 
BRANCH  35  36
ATOM     36  C   UNL     1      52.958   7.419   7.493  0.00  0.00    +0.000 C 
ATOM     37  F   UNL     1      52.297   7.699   6.349  0.00  0.00    +0.000 F 
ATOM     38  F   UNL     1      54.080   6.740   7.146  0.00  0.00    +0.000 F 
ATOM     39  F   UNL     1      52.194   6.579   8.224  0.00  0.00    +0.000 F 
ENDBRANCH  35  36
ENDBRANCH  31  35
ENDBRANCH  22  25
ENDBRANCH   1  21
TORSDOF 10
ENDMDL
MODEL 8
REMARK VINA RESULT:    -6.141      3.776      6.139
REMARK INTER + INTRA:         -11.205
REMARK INTER:                  -8.988
REMARK INTRA:                  -2.217
REMARK UNBOUND:                -1.473
REMARK  Name = 
REMARK  10 active torsions:
REMARK  status: ('A' for Active; 'I' for Inactive)
REMARK    1  A    between atoms: C_2  and  C_3
REMARK    2  A    between atoms: C_3  and  N_4
REMARK    3  A    between atoms: C_3  and  C_32
REMARK    4  A    between atoms: N_4  and  C_5
REMARK    5  A    between atoms: C_5  and  C_6
REMARK    6  A    between atoms: C_9  and  C_10
REMARK    7  A    between atoms: C_10  and  N_11
REMARK    8  A    between atoms: C_12  and  C_14
REMARK    9  A    between atoms: N_20  and  C_21
REMARK   10  A    between atoms: C_21  and  C_22
REMARK                            x       y       z     vdW  Elec       q    Type
REMARK                         _______ _______ _______ _____ _____    ______ ____
ROOT
ATOM      1  C   UNL     1      51.630   7.897  19.070  0.00  0.00    +0.000 C 
ENDROOT
BRANCH   1   5
ATOM      2  C   UNL     1      49.259   9.266  15.709  0.00  0.00    +0.000 A 
ATOM      3  C   UNL     1      50.656   9.379  15.695  0.00  0.00    +0.000 A 
ATOM      4  C   UNL     1      51.422   8.940  16.782  0.00  0.00    +0.000 A 
ATOM      5  C   UNL     1      50.807   8.364  17.899  0.00  0.00    +0.000 A 
ATOM      6  C   UNL     1      49.415   8.260  17.913  0.00  0.00    +0.000 A 
ATOM      7  F   UNL     1      48.791   7.738  18.979  0.00  0.00    +0.000 F 
ATOM      8  C   UNL     1      48.646   8.696  16.834  0.00  0.00    +0.000 A 
BRANCH   2   9
ATOM      9  C   UNL     1      48.437   9.724  14.525  0.00  0.00    +0.000 C 
BRANCH   9  10
ATOM     10  N   UNL     1      47.273   8.858  14.337  0.00  0.00    +0.000 NA
ATOM     11  H   UNL     1      46.430   9.428  14.423  0.00  0.00    +0.000 HD
BRANCH  10  12
ATOM     12  C   UNL     1      47.235   8.228  12.988  0.00  0.00    +0.000 C 
BRANCH  12  13
ATOM     13  C   UNL     1      46.467   6.906  13.048  0.00  0.00    +0.000 A 
ATOM     14  C   UNL     1      47.107   5.722  13.426  0.00  0.00    +0.000 A 
ATOM     15  C   UNL     1      46.364   4.550  13.521  0.00  0.00    +0.000 A 
ATOM     16  C   UNL     1      45.007   4.579  13.226  0.00  0.00    +0.000 A 
ATOM     17  C   UNL     1      44.446   5.786  12.845  0.00  0.00    +0.000 A 
ATOM     18  N   UNL     1      45.138   6.946  12.761  0.00  0.00    +0.000 NA
ENDBRANCH  12  13
BRANCH  12  20
ATOM     19  N   UNL     1      49.624   7.878  11.902  0.00  0.00    +0.000 NA
ATOM     20  C   UNL     1      48.571   8.007  12.377  0.00  0.00    +0.000 C 
ENDBRANCH  12  20
ENDBRANCH  10  12
ENDBRANCH   9  10
ENDBRANCH   2   9
ENDBRANCH   1   5
BRANCH   1  21
ATOM     21  N   UNL     1      51.925   6.488  18.974  0.00  0.00    +0.000 N 
ATOM     22  C   UNL     1      53.092   6.042  18.389  0.00  0.00    +0.000 C 
ATOM     23  O   UNL     1      53.934   6.797  17.922  0.00  0.00    +0.000 OA
ATOM     24  H   UNL     1      51.312   5.833  19.435  0.00  0.00    +0.000 HD
BRANCH  22  25
ATOM     25  C   UNL     1      53.216   4.583  18.341  0.00  0.00    +0.000 A 
ATOM     26  C   UNL     1      54.356   3.911  18.760  0.00  0.00    +0.000 A 
ATOM     27  S   UNL     1      54.207   2.214  18.676  0.00  0.00    +0.000 S 
ATOM     28  C   UNL     1      52.617   2.327  18.077  0.00  0.00    +0.000 A 
ATOM     29  N   UNL     1      51.897   1.211  17.798  0.00  0.00    +0.000 NA
ATOM     30  C   UNL     1      50.698   1.442  17.375  0.00  0.00    +0.000 A 
ATOM     31  N   UNL     1      50.138   2.691  17.195  0.00  0.00    +0.000 N 
ATOM     32  C   UNL     1      50.889   3.855  17.363  0.00  0.00    +0.000 A 
ATOM     33  O   UNL     1      50.468   4.954  17.010  0.00  0.00    +0.000 OA
ATOM     34  C   UNL     1      52.212   3.637  17.922  0.00  0.00    +0.000 A 
BRANCH  31  35
ATOM     35  C   UNL     1      48.781   2.827  16.665  0.00  0.00    +0.000 C 
BRANCH  35  36
ATOM     36  C   UNL     1      47.712   3.179  17.701  0.00  0.00    +0.000 C 
ATOM     37  F   UNL     1      46.735   2.250  17.778  0.00  0.00    +0.000 F 
ATOM     38  F   UNL     1      48.276   3.264  18.932  0.00  0.00    +0.000 F 
ATOM     39  F   UNL     1      47.137   4.373  17.443  0.00  0.00    +0.000 F 
ENDBRANCH  35  36
ENDBRANCH  31  35
ENDBRANCH  22  25
ENDBRANCH   1  21
TORSDOF 10
ENDMDL
MODEL 9
REMARK VINA RESULT:    -6.136      3.115      4.555
REMARK INTER + INTRA:         -11.197
REMARK INTER:                  -8.940
REMARK INTRA:                  -2.257
REMARK UNBOUND:                -1.473
REMARK  Name = 
REMARK  10 active torsions:
REMARK  status: ('A' for Active; 'I' for Inactive)
REMARK    1  A    between atoms: C_2  and  C_3
REMARK    2  A    between atoms: C_3  and  N_4
REMARK    3  A    between atoms: C_3  and  C_32
REMARK    4  A    between atoms: N_4  and  C_5
REMARK    5  A    between atoms: C_5  and  C_6
REMARK    6  A    between atoms: C_9  and  C_10
REMARK    7  A    between atoms: C_10  and  N_11
REMARK    8  A    between atoms: C_12  and  C_14
REMARK    9  A    between atoms: N_20  and  C_21
REMARK   10  A    between atoms: C_21  and  C_22
REMARK                            x       y       z     vdW  Elec       q    Type
REMARK                         _______ _______ _______ _____ _____    ______ ____
ROOT
ATOM      1  C   UNL     1      51.714   9.722  15.197  0.00  0.00    +0.000 C 
ENDROOT
BRANCH   1   5
ATOM      2  C   UNL     1      47.868   9.056  13.313  0.00  0.00    +0.000 A 
ATOM      3  C   UNL     1      49.045   9.077  12.553  0.00  0.00    +0.000 A 
ATOM      4  C   UNL     1      50.287   9.297  13.161  0.00  0.00    +0.000 A 
ATOM      5  C   UNL     1      50.379   9.481  14.544  0.00  0.00    +0.000 A 
ATOM      6  C   UNL     1      49.204   9.466  15.298  0.00  0.00    +0.000 A 
ATOM      7  F   UNL     1      49.253   9.667  16.622  0.00  0.00    +0.000 F 
ATOM      8  C   UNL     1      47.963   9.249  14.699  0.00  0.00    +0.000 A 
BRANCH   2   9
ATOM      9  C   UNL     1      46.530   8.800  12.655  0.00  0.00    +0.000 C 
BRANCH   9  10
ATOM     10  N   UNL     1      45.865   7.648  13.264  0.00  0.00    +0.000 NA
ATOM     11  H   UNL     1      44.865   7.711  13.066  0.00  0.00    +0.000 HD
BRANCH  10  12
ATOM     12  C   UNL     1      46.336   6.349  12.707  0.00  0.00    +0.000 C 
BRANCH  12  13
ATOM     13  C   UNL     1      45.144   5.526  12.216  0.00  0.00    +0.000 A 
ATOM     14  C   UNL     1      44.834   5.455  10.854  0.00  0.00    +0.000 A 
ATOM     15  C   UNL     1      43.775   4.653  10.440  0.00  0.00    +0.000 A 
ATOM     16  C   UNL     1      43.042   3.951  11.389  0.00  0.00    +0.000 A 
ATOM     17  C   UNL     1      43.400   4.083  12.720  0.00  0.00    +0.000 A 
ATOM     18  N   UNL     1      44.435   4.839  13.152  0.00  0.00    +0.000 NA
ENDBRANCH  12  13
BRANCH  12  20
ATOM     19  N   UNL     1      47.778   4.871  14.364  0.00  0.00    +0.000 NA
ATOM     20  C   UNL     1      47.155   5.541  13.647  0.00  0.00    +0.000 C 
ENDBRANCH  12  20
ENDBRANCH  10  12
ENDBRANCH   9  10
ENDBRANCH   2   9
ENDBRANCH   1   5
BRANCH   1  21
ATOM     21  N   UNL     1      52.141   8.571  15.956  0.00  0.00    +0.000 N 
ATOM     22  C   UNL     1      52.950   7.606  15.393  0.00  0.00    +0.000 C 
ATOM     23  O   UNL     1      53.349   7.662  14.237  0.00  0.00    +0.000 OA
ATOM     24  H   UNL     1      51.924   8.533  16.940  0.00  0.00    +0.000 HD
BRANCH  22  25
ATOM     25  C   UNL     1      53.258   6.488  16.289  0.00  0.00    +0.000 A 
ATOM     26  C   UNL     1      54.557   6.104  16.593  0.00  0.00    +0.000 A 
ATOM     27  S   UNL     1      54.636   4.830  17.724  0.00  0.00    +0.000 S 
ATOM     28  C   UNL     1      52.939   4.753  17.840  0.00  0.00    +0.000 A 
ATOM     29  N   UNL     1      52.336   3.860  18.665  0.00  0.00    +0.000 NA
ATOM     30  C   UNL     1      51.046   3.928  18.675  0.00  0.00    +0.000 A 
ATOM     31  N   UNL     1      50.284   4.806  17.930  0.00  0.00    +0.000 N 
ATOM     32  C   UNL     1      50.866   5.656  16.989  0.00  0.00    +0.000 A 
ATOM     33  O   UNL     1      50.191   6.288  16.182  0.00  0.00    +0.000 OA
ATOM     34  C   UNL     1      52.320   5.669  17.014  0.00  0.00    +0.000 A 
BRANCH  31  35
ATOM     35  C   UNL     1      48.823   4.757  17.991  0.00  0.00    +0.000 C 
BRANCH  35  36
ATOM     36  C   UNL     1      48.203   3.407  17.627  0.00  0.00    +0.000 C 
ATOM     37  F   UNL     1      46.937   3.521  17.171  0.00  0.00    +0.000 F 
ATOM     38  F   UNL     1      48.927   2.820  16.641  0.00  0.00    +0.000 F 
ATOM     39  F   UNL     1      48.197   2.558  18.676  0.00  0.00    +0.000 F 
ENDBRANCH  35  36
ENDBRANCH  31  35
ENDBRANCH  22  25
ENDBRANCH   1  21
TORSDOF 10
ENDMDL
