MODEL 1
REMARK VINA RESULT:    -9.145      0.000      0.000
REMARK INTER + INTRA:         -14.179
REMARK INTER:                 -12.887
REMARK INTRA:                  -1.292
REMARK UNBOUND:                -1.292
REMARK  Name = 
REMARK  7 active torsions:
REMARK  status: ('A' for Active; 'I' for Inactive)
REMARK    1  A    between atoms: C_2  and  C_4
REMARK    2  A    between atoms: C_7  and  O_8
REMARK    3  A    between atoms: O_8  and  C_9
REMARK    4  A    between atoms: C_9  and  C_10
REMARK    5  A    between atoms: C_10  and  C_13
REMARK    6  A    between atoms: C_17  and  C_18
REMARK    7  A    between atoms: C_18  and  C_19
REMARK                            x       y       z     vdW  Elec       q    Type
REMARK                         _______ _______ _______ _____ _____    ______ ____
ROOT
ATOM      1  C   UNL     1      43.702   4.760  12.181  0.00  0.00    +0.000 C 
ATOM      2  F   UNL     1      42.754   5.631  12.642  0.00  0.00    +0.000 F 
ATOM      3  F   UNL     1      43.493   3.599  12.872  0.00  0.00    +0.000 F 
ENDROOT
BRANCH   1   4
ATOM      4  C   UNL     1      45.104   5.316  12.398  0.00  0.00    +0.000 A 
ATOM      5  C   UNL     1      45.660   6.226  11.484  0.00  0.00    +0.000 A 
ATOM      6  C   UNL     1      46.929   6.763  11.698  0.00  0.00    +0.000 A 
ATOM      7  C   UNL     1      47.646   6.429  12.848  0.00  0.00    +0.000 A 
ATOM      8  C   UNL     1      47.105   5.549  13.795  0.00  0.00    +0.000 A 
ATOM      9  C   UNL     1      45.846   4.975  13.543  0.00  0.00    +0.000 A 
BRANCH   8  10
ATOM     10  C   UNL     1      47.806   5.304  15.111  0.00  0.00    +0.000 C 
BRANCH  10  11
ATOM     11  C   UNL     1      47.170   4.180  15.923  0.00  0.00    +0.000 C 
ATOM     12  C   UNL     1      47.207   4.438  17.449  0.00  0.00    +0.000 C 
ATOM     13  C   UNL     1      47.706   3.000  17.677  0.00  0.00    +0.000 C 
ATOM     14  F   UNL     1      48.787   2.888  18.482  0.00  0.00    +0.000 F 
ATOM     15  F   UNL     1      46.779   2.138  18.154  0.00  0.00    +0.000 F 
ATOM     16  C   UNL     1      47.995   2.895  16.167  0.00  0.00    +0.000 C 
ENDBRANCH  10  11
ENDBRANCH   8  10
ENDBRANCH   1   4
BRANCH   1  17
ATOM     17  C   UNL     1      43.437   4.492  10.693  0.00  0.00    +0.000 C 
BRANCH  17  18
ATOM     18  O   UNL     1      43.583   3.099  10.362  0.00  0.00    +0.000 OA
BRANCH  18  22
ATOM     19  C   UNL     1      46.435   2.597   7.432  0.00  0.00    +0.000 A 
ATOM     20  C   UNL     1      45.886   3.866   7.648  0.00  0.00    +0.000 A 
ATOM     21  C   UNL     1      44.918   4.030   8.642  0.00  0.00    +0.000 A 
ATOM     22  C   UNL     1      44.537   2.918   9.380  0.00  0.00    +0.000 A 
ATOM     23  N   UNL     1      45.050   1.685   9.185  0.00  0.00    +0.000 NA
ATOM     24  C   UNL     1      45.977   1.548   8.210  0.00  0.00    +0.000 A 
BRANCH  19  26
ATOM     25  N   UNL     1      47.462   3.088   5.290  0.00  0.00    +0.000 N 
ATOM     26  C   UNL     1      47.463   2.312   6.413  0.00  0.00    +0.000 C 
ATOM     27  O   UNL     1      48.314   1.448   6.589  0.00  0.00    +0.000 OA
ATOM     28  H   UNL     1      48.250   2.962   4.664  0.00  0.00    +0.000 HD
ATOM     29  H   UNL     1      46.963   3.964   5.236  0.00  0.00    +0.000 HD
ENDBRANCH  19  26
ENDBRANCH  18  22
ENDBRANCH  17  18
ENDBRANCH   1  17
TORSDOF 7
ENDMDL
MODEL 2
REMARK VINA RESULT:    -8.075      1.798      2.259
REMARK INTER + INTRA:         -12.671
REMARK INTER:                 -11.609
REMARK INTRA:                  -1.062
REMARK UNBOUND:                -1.292
REMARK  Name = 
REMARK  7 active torsions:
REMARK  status: ('A' for Active; 'I' for Inactive)
REMARK    1  A    between atoms: C_2  and  C_4
REMARK    2  A    between atoms: C_7  and  O_8
REMARK    3  A    between atoms: O_8  and  C_9
REMARK    4  A    between atoms: C_9  and  C_10
REMARK    5  A    between atoms: C_10  and  C_13
REMARK    6  A    between atoms: C_17  and  C_18
REMARK    7  A    between atoms: C_18  and  C_19
REMARK                            x       y       z     vdW  Elec       q    Type
REMARK                         _______ _______ _______ _____ _____    ______ ____
ROOT
ATOM      1  C   UNL     1      43.534   4.637  12.363  0.00  0.00    +0.000 C 
ATOM      2  F   UNL     1      42.286   5.195  12.318  0.00  0.00    +0.000 F 
ATOM      3  F   UNL     1      43.580   3.951  13.545  0.00  0.00    +0.000 F 
ENDROOT
BRANCH   1   4
ATOM      4  C   UNL     1      44.613   5.709  12.276  0.00  0.00    +0.000 A 
ATOM      5  C   UNL     1      44.303   6.997  11.811  0.00  0.00    +0.000 A 
ATOM      6  C   UNL     1      45.281   7.990  11.762  0.00  0.00    +0.000 A 
ATOM      7  C   UNL     1      46.575   7.723  12.214  0.00  0.00    +0.000 A 
ATOM      8  C   UNL     1      46.907   6.457  12.714  0.00  0.00    +0.000 A 
ATOM      9  C   UNL     1      45.925   5.449  12.711  0.00  0.00    +0.000 A 
BRANCH   8  10
ATOM     10  C   UNL     1      48.256   6.205  13.345  0.00  0.00    +0.000 C 
BRANCH  10  11
ATOM     11  C   UNL     1      48.326   6.658  14.801  0.00  0.00    +0.000 C 
ATOM     12  C   UNL     1      49.756   7.048  15.247  0.00  0.00    +0.000 C 
ATOM     13  C   UNL     1      49.576   6.222  16.533  0.00  0.00    +0.000 C 
ATOM     14  F   UNL     1      50.587   5.368  16.814  0.00  0.00    +0.000 F 
ATOM     15  F   UNL     1      49.358   6.944  17.656  0.00  0.00    +0.000 F 
ATOM     16  C   UNL     1      48.325   5.577  15.905  0.00  0.00    +0.000 C 
ENDBRANCH  10  11
ENDBRANCH   8  10
ENDBRANCH   1   4
BRANCH   1  17
ATOM     17  C   UNL     1      43.660   3.629  11.212  0.00  0.00    +0.000 C 
BRANCH  17  18
ATOM     18  O   UNL     1      43.662   4.277   9.926  0.00  0.00    +0.000 OA
BRANCH  18  22
ATOM     19  C   UNL     1      46.589   2.696   7.496  0.00  0.00    +0.000 A 
ATOM     20  C   UNL     1      45.852   1.846   8.328  0.00  0.00    +0.000 A 
ATOM     21  C   UNL     1      44.862   2.387   9.151  0.00  0.00    +0.000 A 
ATOM     22  C   UNL     1      44.649   3.758   9.110  0.00  0.00    +0.000 A 
ATOM     23  N   UNL     1      45.351   4.597   8.319  0.00  0.00    +0.000 NA
ATOM     24  C   UNL     1      46.312   4.051   7.540  0.00  0.00    +0.000 A 
BRANCH  19  26
ATOM     25  N   UNL     1      47.805   2.901   5.406  0.00  0.00    +0.000 N 
ATOM     26  C   UNL     1      47.654   2.232   6.587  0.00  0.00    +0.000 C 
ATOM     27  O   UNL     1      48.405   1.315   6.898  0.00  0.00    +0.000 OA
ATOM     28  H   UNL     1      48.618   2.650   4.856  0.00  0.00    +0.000 HD
ATOM     29  H   UNL     1      47.396   3.809   5.242  0.00  0.00    +0.000 HD
ENDBRANCH  19  26
ENDBRANCH  18  22
ENDBRANCH  17  18
ENDBRANCH   1  17
TORSDOF 7
ENDMDL
MODEL 3
REMARK VINA RESULT:    -7.980      3.290      4.604
REMARK INTER + INTRA:         -12.537
REMARK INTER:                 -11.342
REMARK INTRA:                  -1.195
REMARK UNBOUND:                -1.292
REMARK  Name = 
REMARK  7 active torsions:
REMARK  status: ('A' for Active; 'I' for Inactive)
REMARK    1  A    between atoms: C_2  and  C_4
REMARK    2  A    between atoms: C_7  and  O_8
REMARK    3  A    between atoms: O_8  and  C_9
REMARK    4  A    between atoms: C_9  and  C_10
REMARK    5  A    between atoms: C_10  and  C_13
REMARK    6  A    between atoms: C_17  and  C_18
REMARK    7  A    between atoms: C_18  and  C_19
REMARK                            x       y       z     vdW  Elec       q    Type
REMARK                         _______ _______ _______ _____ _____    ______ ____
ROOT
ATOM      1  C   UNL     1      44.318   5.177  12.151  0.00  0.00    +0.000 C 
ATOM      2  F   UNL     1      43.833   5.981  11.158  0.00  0.00    +0.000 F 
ATOM      3  F   UNL     1      43.372   5.209  13.137  0.00  0.00    +0.000 F 
ENDROOT
BRANCH   1   4
ATOM      4  C   UNL     1      45.675   5.671  12.637  0.00  0.00    +0.000 A 
ATOM      5  C   UNL     1      46.296   5.075  13.746  0.00  0.00    +0.000 A 
ATOM      6  C   UNL     1      47.553   5.503  14.173  0.00  0.00    +0.000 A 
ATOM      7  C   UNL     1      48.226   6.506  13.474  0.00  0.00    +0.000 A 
ATOM      8  C   UNL     1      47.647   7.099  12.344  0.00  0.00    +0.000 A 
ATOM      9  C   UNL     1      46.358   6.694  11.954  0.00  0.00    +0.000 A 
BRANCH   8  10
ATOM     10  C   UNL     1      48.430   8.073  11.495  0.00  0.00    +0.000 C 
BRANCH  10  11
ATOM     11  C   UNL     1      49.891   8.190  11.919  0.00  0.00    +0.000 C 
ATOM     12  C   UNL     1      50.514   9.565  11.575  0.00  0.00    +0.000 C 
ATOM     13  C   UNL     1      51.754   8.856  11.002  0.00  0.00    +0.000 C 
ATOM     14  F   UNL     1      52.139   9.275   9.774  0.00  0.00    +0.000 F 
ATOM     15  F   UNL     1      52.855   8.895  11.786  0.00  0.00    +0.000 F 
ATOM     16  C   UNL     1      50.968   7.530  11.027  0.00  0.00    +0.000 C 
ENDBRANCH  10  11
ENDBRANCH   8  10
ENDBRANCH   1   4
BRANCH   1  17
ATOM     17  C   UNL     1      44.411   3.741  11.616  0.00  0.00    +0.000 C 
BRANCH  17  18
ATOM     18  O   UNL     1      43.793   3.607  10.322  0.00  0.00    +0.000 OA
BRANCH  18  22
ATOM     19  C   UNL     1      46.586   2.681   7.439  0.00  0.00    +0.000 A 
ATOM     20  C   UNL     1      46.163   4.007   7.586  0.00  0.00    +0.000 A 
ATOM     21  C   UNL     1      45.215   4.315   8.564  0.00  0.00    +0.000 A 
ATOM     22  C   UNL     1      44.727   3.285   9.357  0.00  0.00    +0.000 A 
ATOM     23  N   UNL     1      45.118   1.999   9.229  0.00  0.00    +0.000 NA
ATOM     24  C   UNL     1      46.028   1.723   8.267  0.00  0.00    +0.000 A 
BRANCH  19  26
ATOM     25  N   UNL     1      47.757   3.039   5.344  0.00  0.00    +0.000 N 
ATOM     26  C   UNL     1      47.583   2.246   6.442  0.00  0.00    +0.000 C 
ATOM     27  O   UNL     1      48.262   1.241   6.615  0.00  0.00    +0.000 OA
ATOM     28  H   UNL     1      48.531   2.792   4.738  0.00  0.00    +0.000 HD
ATOM     29  H   UNL     1      47.421   3.990   5.304  0.00  0.00    +0.000 HD
ENDBRANCH  19  26
ENDBRANCH  18  22
ENDBRANCH  17  18
ENDBRANCH   1  17
TORSDOF 7
ENDMDL
MODEL 4
REMARK VINA RESULT:    -7.845      4.388      8.364
REMARK INTER + INTRA:         -12.347
REMARK INTER:                 -11.281
REMARK INTRA:                  -1.066
REMARK UNBOUND:                -1.292
REMARK  Name = 
REMARK  7 active torsions:
REMARK  status: ('A' for Active; 'I' for Inactive)
REMARK    1  A    between atoms: C_2  and  C_4
REMARK    2  A    between atoms: C_7  and  O_8
REMARK    3  A    between atoms: O_8  and  C_9
REMARK    4  A    between atoms: C_9  and  C_10
REMARK    5  A    between atoms: C_10  and  C_13
REMARK    6  A    between atoms: C_17  and  C_18
REMARK    7  A    between atoms: C_18  and  C_19
REMARK                            x       y       z     vdW  Elec       q    Type
REMARK                         _______ _______ _______ _____ _____    ______ ____
ROOT
ATOM      1  C   UNL     1      45.792   6.669  12.093  0.00  0.00    +0.000 C 
ATOM      2  F   UNL     1      44.920   7.718  12.187  0.00  0.00    +0.000 F 
ATOM      3  F   UNL     1      46.596   6.962  11.027  0.00  0.00    +0.000 F 
ENDROOT
BRANCH   1   4
ATOM      4  C   UNL     1      45.044   5.354  11.907  0.00  0.00    +0.000 A 
ATOM      5  C   UNL     1      44.088   4.938  12.847  0.00  0.00    +0.000 A 
ATOM      6  C   UNL     1      43.377   3.752  12.662  0.00  0.00    +0.000 A 
ATOM      7  C   UNL     1      43.583   2.984  11.514  0.00  0.00    +0.000 A 
ATOM      8  C   UNL     1      44.507   3.389  10.542  0.00  0.00    +0.000 A 
ATOM      9  C   UNL     1      45.254   4.560  10.765  0.00  0.00    +0.000 A 
BRANCH   8  10
ATOM     10  C   UNL     1      44.624   2.647   9.231  0.00  0.00    +0.000 C 
BRANCH  10  11
ATOM     11  C   UNL     1      46.049   2.625   8.685  0.00  0.00    +0.000 C 
ATOM     12  C   UNL     1      46.255   3.588   7.491  0.00  0.00    +0.000 C 
ATOM     13  C   UNL     1      46.986   2.473   6.722  0.00  0.00    +0.000 C 
ATOM     14  F   UNL     1      46.560   2.277   5.453  0.00  0.00    +0.000 F 
ATOM     15  F   UNL     1      48.331   2.599   6.663  0.00  0.00    +0.000 F 
ATOM     16  C   UNL     1      46.458   1.459   7.757  0.00  0.00    +0.000 C 
ENDBRANCH  10  11
ENDBRANCH   8  10
ENDBRANCH   1   4
BRANCH   1  17
ATOM     17  C   UNL     1      46.658   6.638  13.360  0.00  0.00    +0.000 C 
BRANCH  17  18
ATOM     18  O   UNL     1      47.404   5.412  13.473  0.00  0.00    +0.000 OA
BRANCH  18  22
ATOM     19  C   UNL     1      48.334   4.573  17.397  0.00  0.00    +0.000 A 
ATOM     20  C   UNL     1      47.454   3.734  16.704  0.00  0.00    +0.000 A 
ATOM     21  C   UNL     1      47.142   4.024  15.374  0.00  0.00    +0.000 A 
ATOM     22  C   UNL     1      47.720   5.143  14.790  0.00  0.00    +0.000 A 
ATOM     23  N   UNL     1      48.567   5.968  15.442  0.00  0.00    +0.000 NA
ATOM     24  C   UNL     1      48.845   5.673  16.733  0.00  0.00    +0.000 A 
BRANCH  19  26
ATOM     25  N   UNL     1      48.276   3.229  19.417  0.00  0.00    +0.000 N 
ATOM     26  C   UNL     1      48.734   4.359  18.801  0.00  0.00    +0.000 C 
ATOM     27  O   UNL     1      49.486   5.137  19.377  0.00  0.00    +0.000 OA
ATOM     28  H   UNL     1      48.664   3.037  20.334  0.00  0.00    +0.000 HD
ATOM     29  H   UNL     1      47.891   2.451  18.904  0.00  0.00    +0.000 HD
ENDBRANCH  19  26
ENDBRANCH  18  22
ENDBRANCH  17  18
ENDBRANCH   1  17
TORSDOF 7
ENDMDL
MODEL 5
REMARK VINA RESULT:    -7.709      2.906      5.554
REMARK INTER + INTRA:         -12.155
REMARK INTER:                 -11.218
REMARK INTRA:                  -0.937
REMARK UNBOUND:                -1.292
REMARK  Name = 
REMARK  7 active torsions:
REMARK  status: ('A' for Active; 'I' for Inactive)
REMARK    1  A    between atoms: C_2  and  C_4
REMARK    2  A    between atoms: C_7  and  O_8
REMARK    3  A    between atoms: O_8  and  C_9
REMARK    4  A    between atoms: C_9  and  C_10
REMARK    5  A    between atoms: C_10  and  C_13
REMARK    6  A    between atoms: C_17  and  C_18
REMARK    7  A    between atoms: C_18  and  C_19
REMARK                            x       y       z     vdW  Elec       q    Type
REMARK                         _______ _______ _______ _____ _____    ______ ____
ROOT
ATOM      1  C   UNL     1      44.427   4.427  12.498  0.00  0.00    +0.000 C 
ATOM      2  F   UNL     1      43.557   4.490  13.551  0.00  0.00    +0.000 F 
ATOM      3  F   UNL     1      45.162   3.292  12.703  0.00  0.00    +0.000 F 
ENDROOT
BRANCH   1   4
ATOM      4  C   UNL     1      45.299   5.675  12.437  0.00  0.00    +0.000 A 
ATOM      5  C   UNL     1      46.674   5.572  12.175  0.00  0.00    +0.000 A 
ATOM      6  C   UNL     1      47.469   6.714  12.085  0.00  0.00    +0.000 A 
ATOM      7  C   UNL     1      46.894   7.980  12.216  0.00  0.00    +0.000 A 
ATOM      8  C   UNL     1      45.519   8.117  12.446  0.00  0.00    +0.000 A 
ATOM      9  C   UNL     1      44.737   6.956  12.585  0.00  0.00    +0.000 A 
BRANCH   8  10
ATOM     10  C   UNL     1      44.866   9.480  12.435  0.00  0.00    +0.000 C 
BRANCH  10  11
ATOM     11  C   UNL     1      44.260   9.839  11.081  0.00  0.00    +0.000 C 
ATOM     12  C   UNL     1      43.442  11.153  11.113  0.00  0.00    +0.000 C 
ATOM     13  C   UNL     1      42.306  10.459  10.340  0.00  0.00    +0.000 C 
ATOM     14  F   UNL     1      41.071  10.620  10.868  0.00  0.00    +0.000 F 
ATOM     15  F   UNL     1      42.212  10.790   9.032  0.00  0.00    +0.000 F 
ATOM     16  C   UNL     1      42.976   9.103  10.636  0.00  0.00    +0.000 C 
ENDBRANCH  10  11
ENDBRANCH   8  10
ENDBRANCH   1   4
BRANCH   1  17
ATOM     17  C   UNL     1      43.617   4.254  11.205  0.00  0.00    +0.000 C 
BRANCH  17  18
ATOM     18  O   UNL     1      44.210   4.959  10.099  0.00  0.00    +0.000 OA
BRANCH  18  22
ATOM     19  C   UNL     1      46.501   2.458   7.761  0.00  0.00    +0.000 A 
ATOM     20  C   UNL     1      46.565   3.841   7.556  0.00  0.00    +0.000 A 
ATOM     21  C   UNL     1      45.785   4.684   8.351  0.00  0.00    +0.000 A 
ATOM     22  C   UNL     1      44.971   4.111   9.319  0.00  0.00    +0.000 A 
ATOM     23  N   UNL     1      44.891   2.780   9.530  0.00  0.00    +0.000 NA
ATOM     24  C   UNL     1      45.646   1.983   8.740  0.00  0.00    +0.000 A 
BRANCH  19  26
ATOM     25  N   UNL     1      48.468   1.901   6.455  0.00  0.00    +0.000 N 
ATOM     26  C   UNL     1      47.282   1.478   6.982  0.00  0.00    +0.000 C 
ATOM     27  O   UNL     1      46.906   0.319   6.854  0.00  0.00    +0.000 OA
ATOM     28  H   UNL     1      49.047   1.183   6.034  0.00  0.00    +0.000 HD
ATOM     29  H   UNL     1      48.927   2.745   6.762  0.00  0.00    +0.000 HD
ENDBRANCH  19  26
ENDBRANCH  18  22
ENDBRANCH  17  18
ENDBRANCH   1  17
TORSDOF 7
ENDMDL
MODEL 6
REMARK VINA RESULT:    -7.012      4.978      8.823
REMARK INTER + INTRA:         -11.173
REMARK INTER:                 -10.128
REMARK INTRA:                  -1.045
REMARK UNBOUND:                -1.292
REMARK  Name = 
REMARK  7 active torsions:
REMARK  status: ('A' for Active; 'I' for Inactive)
REMARK    1  A    between atoms: C_2  and  C_4
REMARK    2  A    between atoms: C_7  and  O_8
REMARK    3  A    between atoms: O_8  and  C_9
REMARK    4  A    between atoms: C_9  and  C_10
REMARK    5  A    between atoms: C_10  and  C_13
REMARK    6  A    between atoms: C_17  and  C_18
REMARK    7  A    between atoms: C_18  and  C_19
REMARK                            x       y       z     vdW  Elec       q    Type
REMARK                         _______ _______ _______ _____ _____    ______ ____
ROOT
ATOM      1  C   UNL     1      46.512   4.527  13.634  0.00  0.00    +0.000 C 
ATOM      2  F   UNL     1      47.376   3.469  13.573  0.00  0.00    +0.000 F 
ATOM      3  F   UNL     1      46.164   4.634  14.952  0.00  0.00    +0.000 F 
ENDROOT
BRANCH   1   4
ATOM      4  C   UNL     1      45.303   4.295  12.735  0.00  0.00    +0.000 A 
ATOM      5  C   UNL     1      44.096   4.970  12.976  0.00  0.00    +0.000 A 
ATOM      6  C   UNL     1      42.999   4.785  12.135  0.00  0.00    +0.000 A 
ATOM      7  C   UNL     1      43.103   3.954  11.018  0.00  0.00    +0.000 A 
ATOM      8  C   UNL     1      44.304   3.292  10.733  0.00  0.00    +0.000 A 
ATOM      9  C   UNL     1      45.388   3.446  11.617  0.00  0.00    +0.000 A 
BRANCH   8  10
ATOM     10  C   UNL     1      44.472   2.515   9.448  0.00  0.00    +0.000 C 
BRANCH  10  11
ATOM     11  C   UNL     1      45.890   2.589   8.889  0.00  0.00    +0.000 C 
ATOM     12  C   UNL     1      46.040   3.625   7.748  0.00  0.00    +0.000 C 
ATOM     13  C   UNL     1      46.812   2.588   6.914  0.00  0.00    +0.000 C 
ATOM     14  F   UNL     1      46.382   2.442   5.639  0.00  0.00    +0.000 F 
ATOM     15  F   UNL     1      48.149   2.779   6.850  0.00  0.00    +0.000 F 
ATOM     16  C   UNL     1      46.343   1.495   7.895  0.00  0.00    +0.000 C 
ENDBRANCH  10  11
ENDBRANCH   8  10
ENDBRANCH   1   4
BRANCH   1  17
ATOM     17  C   UNL     1      47.268   5.799  13.227  0.00  0.00    +0.000 C 
BRANCH  17  18
ATOM     18  O   UNL     1      48.558   5.885  13.860  0.00  0.00    +0.000 OA
BRANCH  18  22
ATOM     19  C   UNL     1      48.582   8.708  16.860  0.00  0.00    +0.000 A 
ATOM     20  C   UNL     1      48.859   7.372  17.170  0.00  0.00    +0.000 A 
ATOM     21  C   UNL     1      48.848   6.419  16.150  0.00  0.00    +0.000 A 
ATOM     22  C   UNL     1      48.560   6.840  14.859  0.00  0.00    +0.000 A 
ATOM     23  N   UNL     1      48.286   8.122  14.538  0.00  0.00    +0.000 NA
ATOM     24  C   UNL     1      48.291   9.025  15.545  0.00  0.00    +0.000 A 
BRANCH  19  26
ATOM     25  N   UNL     1      49.748  10.081  18.486  0.00  0.00    +0.000 N 
ATOM     26  C   UNL     1      48.570   9.795  17.858  0.00  0.00    +0.000 C 
ATOM     27  O   UNL     1      47.557  10.448  18.078  0.00  0.00    +0.000 OA
ATOM     28  H   UNL     1      49.748  10.909  19.071  0.00  0.00    +0.000 HD
ATOM     29  H   UNL     1      50.639   9.757  18.141  0.00  0.00    +0.000 HD
ENDBRANCH  19  26
ENDBRANCH  18  22
ENDBRANCH  17  18
ENDBRANCH   1  17
TORSDOF 7
ENDMDL
MODEL 7
REMARK VINA RESULT:    -6.914      3.935      6.632
REMARK INTER + INTRA:         -11.035
REMARK INTER:                 -10.380
REMARK INTRA:                  -0.655
REMARK UNBOUND:                -1.292
REMARK  Name = 
REMARK  7 active torsions:
REMARK  status: ('A' for Active; 'I' for Inactive)
REMARK    1  A    between atoms: C_2  and  C_4
REMARK    2  A    between atoms: C_7  and  O_8
REMARK    3  A    between atoms: O_8  and  C_9
REMARK    4  A    between atoms: C_9  and  C_10
REMARK    5  A    between atoms: C_10  and  C_13
REMARK    6  A    between atoms: C_17  and  C_18
REMARK    7  A    between atoms: C_18  and  C_19
REMARK                            x       y       z     vdW  Elec       q    Type
REMARK                         _______ _______ _______ _____ _____    ______ ____
ROOT
ATOM      1  C   UNL     1      48.033   2.924  16.824  0.00  0.00    +0.000 C 
ATOM      2  F   UNL     1      46.987   2.491  17.590  0.00  0.00    +0.000 F 
ATOM      3  F   UNL     1      48.502   1.808  16.188  0.00  0.00    +0.000 F 
ENDROOT
BRANCH   1   4
ATOM      4  C   UNL     1      49.100   3.588  17.684  0.00  0.00    +0.000 A 
ATOM      5  C   UNL     1      48.739   4.348  18.809  0.00  0.00    +0.000 A 
ATOM      6  C   UNL     1      49.715   4.929  19.618  0.00  0.00    +0.000 A 
ATOM      7  C   UNL     1      51.068   4.727  19.339  0.00  0.00    +0.000 A 
ATOM      8  C   UNL     1      51.461   3.947  18.243  0.00  0.00    +0.000 A 
ATOM      9  C   UNL     1      50.468   3.409  17.406  0.00  0.00    +0.000 A 
BRANCH   8  10
ATOM     10  C   UNL     1      52.915   3.598  18.025  0.00  0.00    +0.000 C 
BRANCH  10  11
ATOM     11  C   UNL     1      53.254   2.172  18.449  0.00  0.00    +0.000 C 
ATOM     12  C   UNL     1      54.585   1.661  17.846  0.00  0.00    +0.000 C 
ATOM     13  C   UNL     1      53.897   0.340  17.457  0.00  0.00    +0.000 C 
ATOM     14  F   UNL     1      54.097  -0.057  16.180  0.00  0.00    +0.000 F 
ATOM     15  F   UNL     1      54.199  -0.720  18.242  0.00  0.00    +0.000 F 
ATOM     16  C   UNL     1      52.535   1.005  17.735  0.00  0.00    +0.000 C 
ENDBRANCH  10  11
ENDBRANCH   8  10
ENDBRANCH   1   4
BRANCH   1  17
ATOM     17  C   UNL     1      47.493   3.895  15.764  0.00  0.00    +0.000 C 
BRANCH  17  18
ATOM     18  O   UNL     1      47.522   3.322  14.444  0.00  0.00    +0.000 OA
BRANCH  18  22
ATOM     19  C   UNL     1      44.418   4.766  12.153  0.00  0.00    +0.000 A 
ATOM     20  C   UNL     1      45.120   5.641  12.990  0.00  0.00    +0.000 A 
ATOM     21  C   UNL     1      46.171   5.145  13.765  0.00  0.00    +0.000 A 
ATOM     22  C   UNL     1      46.477   3.794  13.674  0.00  0.00    +0.000 A 
ATOM     23  N   UNL     1      45.810   2.933  12.877  0.00  0.00    +0.000 NA
ATOM     24  C   UNL     1      44.789   3.433  12.144  0.00  0.00    +0.000 A 
BRANCH  19  26
ATOM     25  N   UNL     1      42.290   5.899  11.874  0.00  0.00    +0.000 N 
ATOM     26  C   UNL     1      43.295   5.182  11.290  0.00  0.00    +0.000 C 
ATOM     27  O   UNL     1      43.288   4.938  10.090  0.00  0.00    +0.000 OA
ATOM     28  H   UNL     1      41.596   6.283  11.243  0.00  0.00    +0.000 HD
ATOM     29  H   UNL     1      42.393   6.342  12.775  0.00  0.00    +0.000 HD
ENDBRANCH  19  26
ENDBRANCH  18  22
ENDBRANCH  17  18
ENDBRANCH   1  17
TORSDOF 7
ENDMDL
MODEL 8
REMARK VINA RESULT:    -6.859      4.494      7.735
REMARK INTER + INTRA:         -10.958
REMARK INTER:                  -9.652
REMARK INTRA:                  -1.306
REMARK UNBOUND:                -1.292
REMARK  Name = 
REMARK  7 active torsions:
REMARK  status: ('A' for Active; 'I' for Inactive)
REMARK    1  A    between atoms: C_2  and  C_4
REMARK    2  A    between atoms: C_7  and  O_8
REMARK    3  A    between atoms: O_8  and  C_9
REMARK    4  A    between atoms: C_9  and  C_10
REMARK    5  A    between atoms: C_10  and  C_13
REMARK    6  A    between atoms: C_17  and  C_18
REMARK    7  A    between atoms: C_18  and  C_19
REMARK                            x       y       z     vdW  Elec       q    Type
REMARK                         _______ _______ _______ _____ _____    ______ ____
ROOT
ATOM      1  C   UNL     1      49.073   8.471  12.639  0.00  0.00    +0.000 C 
ATOM      2  F   UNL     1      49.183   9.646  13.328  0.00  0.00    +0.000 F 
ATOM      3  F   UNL     1      49.774   8.664  11.480  0.00  0.00    +0.000 F 
ENDROOT
BRANCH   1   4
ATOM      4  C   UNL     1      47.612   8.127  12.378  0.00  0.00    +0.000 A 
ATOM      5  C   UNL     1      46.587   8.955  12.863  0.00  0.00    +0.000 A 
ATOM      6  C   UNL     1      45.250   8.661  12.597  0.00  0.00    +0.000 A 
ATOM      7  C   UNL     1      44.918   7.558  11.808  0.00  0.00    +0.000 A 
ATOM      8  C   UNL     1      45.919   6.731  11.282  0.00  0.00    +0.000 A 
ATOM      9  C   UNL     1      47.261   7.008  11.600  0.00  0.00    +0.000 A 
BRANCH   8  10
ATOM     10  C   UNL     1      45.578   5.630  10.306  0.00  0.00    +0.000 C 
BRANCH  10  11
ATOM     11  C   UNL     1      45.088   4.358  10.991  0.00  0.00    +0.000 C 
ATOM     12  C   UNL     1      43.544   4.243  11.022  0.00  0.00    +0.000 C 
ATOM     13  C   UNL     1      43.607   3.852  12.509  0.00  0.00    +0.000 C 
ATOM     14  F   UNL     1      42.770   4.540  13.320  0.00  0.00    +0.000 F 
ATOM     15  F   UNL     1      43.405   2.541  12.770  0.00  0.00    +0.000 F 
ATOM     16  C   UNL     1      45.077   4.316  12.536  0.00  0.00    +0.000 C 
ENDBRANCH  10  11
ENDBRANCH   8  10
ENDBRANCH   1   4
BRANCH   1  17
ATOM     17  C   UNL     1      49.767   7.365  13.445  0.00  0.00    +0.000 C 
BRANCH  17  18
ATOM     18  O   UNL     1      49.803   7.666  14.853  0.00  0.00    +0.000 OA
BRANCH  18  22
ATOM     19  C   UNL     1      48.300   4.564  17.108  0.00  0.00    +0.000 A 
ATOM     20  C   UNL     1      49.391   5.298  17.588  0.00  0.00    +0.000 A 
ATOM     21  C   UNL     1      49.897   6.348  16.818  0.00  0.00    +0.000 A 
ATOM     22  C   UNL     1      49.293   6.622  15.599  0.00  0.00    +0.000 A 
ATOM     23  N   UNL     1      48.244   5.924  15.115  0.00  0.00    +0.000 NA
ATOM     24  C   UNL     1      47.778   4.905  15.873  0.00  0.00    +0.000 A 
BRANCH  19  26
ATOM     25  N   UNL     1      48.272   3.060  19.012  0.00  0.00    +0.000 N 
ATOM     26  C   UNL     1      47.685   3.440  17.839  0.00  0.00    +0.000 C 
ATOM     27  O   UNL     1      46.661   2.900  17.436  0.00  0.00    +0.000 OA
ATOM     28  H   UNL     1      47.764   2.374  19.559  0.00  0.00    +0.000 HD
ATOM     29  H   UNL     1      48.936   3.643  19.499  0.00  0.00    +0.000 HD
ENDBRANCH  19  26
ENDBRANCH  18  22
ENDBRANCH  17  18
ENDBRANCH   1  17
TORSDOF 7
ENDMDL
MODEL 9
REMARK VINA RESULT:    -6.602      3.757      5.650
REMARK INTER + INTRA:         -10.595
REMARK INTER:                  -8.838
REMARK INTRA:                  -1.757
REMARK UNBOUND:                -1.292
REMARK  Name = 
REMARK  7 active torsions:
REMARK  status: ('A' for Active; 'I' for Inactive)
REMARK    1  A    between atoms: C_2  and  C_4
REMARK    2  A    between atoms: C_7  and  O_8
REMARK    3  A    between atoms: O_8  and  C_9
REMARK    4  A    between atoms: C_9  and  C_10
REMARK    5  A    between atoms: C_10  and  C_13
REMARK    6  A    between atoms: C_17  and  C_18
REMARK    7  A    between atoms: C_18  and  C_19
REMARK                            x       y       z     vdW  Elec       q    Type
REMARK                         _______ _______ _______ _____ _____    ______ ____
ROOT
ATOM      1  C   UNL     1      49.855   8.222  13.109  0.00  0.00    +0.000 C 
ATOM      2  F   UNL     1      51.214   8.179  12.968  0.00  0.00    +0.000 F 
ATOM      3  F   UNL     1      49.463   9.373  12.482  0.00  0.00    +0.000 F 
ENDROOT
BRANCH   1   4
ATOM      4  C   UNL     1      49.459   8.205  14.580  0.00  0.00    +0.000 A 
ATOM      5  C   UNL     1      48.601   9.187  15.100  0.00  0.00    +0.000 A 
ATOM      6  C   UNL     1      48.210   9.154  16.438  0.00  0.00    +0.000 A 
ATOM      7  C   UNL     1      48.638   8.116  17.268  0.00  0.00    +0.000 A 
ATOM      8  C   UNL     1      49.469   7.103  16.771  0.00  0.00    +0.000 A 
ATOM      9  C   UNL     1      49.898   7.176  15.433  0.00  0.00    +0.000 A 
BRANCH   8  10
ATOM     10  C   UNL     1      49.811   5.899  17.618  0.00  0.00    +0.000 C 
BRANCH  10  11
ATOM     11  C   UNL     1      48.618   4.976  17.847  0.00  0.00    +0.000 C 
ATOM     12  C   UNL     1      49.033   3.520  18.172  0.00  0.00    +0.000 C 
ATOM     13  C   UNL     1      47.993   3.003  17.161  0.00  0.00    +0.000 C 
ATOM     14  F   UNL     1      48.456   2.087  16.279  0.00  0.00    +0.000 F 
ATOM     15  F   UNL     1      46.870   2.481  17.705  0.00  0.00    +0.000 F 
ATOM     16  C   UNL     1      47.861   4.437  16.612  0.00  0.00    +0.000 C 
ENDBRANCH  10  11
ENDBRANCH   8  10
ENDBRANCH   1   4
BRANCH   1  17
ATOM     17  C   UNL     1      49.248   7.030  12.358  0.00  0.00    +0.000 C 
BRANCH  17  18
ATOM     18  O   UNL     1      48.067   7.400  11.623  0.00  0.00    +0.000 OA
BRANCH  18  22
ATOM     19  C   UNL     1      44.910   4.943  12.605  0.00  0.00    +0.000 A 
ATOM     20  C   UNL     1      45.999   5.046  13.478  0.00  0.00    +0.000 A 
ATOM     21  C   UNL     1      47.067   5.880  13.139  0.00  0.00    +0.000 A 
ATOM     22  C   UNL     1      47.004   6.577  11.940  0.00  0.00    +0.000 A 
ATOM     23  N   UNL     1      45.966   6.489  11.082  0.00  0.00    +0.000 NA
ATOM     24  C   UNL     1      44.948   5.666  11.426  0.00  0.00    +0.000 A 
BRANCH  19  26
ATOM     25  N   UNL     1      43.858   2.757  12.636  0.00  0.00    +0.000 N 
ATOM     26  C   UNL     1      43.730   4.097  12.865  0.00  0.00    +0.000 C 
ATOM     27  O   UNL     1      42.692   4.568  13.314  0.00  0.00    +0.000 OA
ATOM     28  H   UNL     1      43.083   2.179  12.939  0.00  0.00    +0.000 HD
ATOM     29  H   UNL     1      44.756   2.309  12.530  0.00  0.00    +0.000 HD
ENDBRANCH  19  26
ENDBRANCH  18  22
ENDBRANCH  17  18
ENDBRANCH   1  17
TORSDOF 7
ENDMDL
