MODEL 1
REMARK VINA RESULT:    -7.113      0.000      0.000
REMARK INTER + INTRA:          -9.680
REMARK INTER:                  -9.192
REMARK INTRA:                  -0.488
REMARK UNBOUND:                -0.488
REMARK  Name = 
REMARK  6 active torsions:
REMARK  status: ('A' for Active; 'I' for Inactive)
REMARK    1  A    between atoms: C_1  and  O_2
REMARK    2  A    between atoms: O_2  and  C_3
REMARK    3  A    between atoms: C_6  and  O_7
REMARK    4  A    between atoms: O_7  and  C_8
REMARK    5  A    between atoms: C_8  and  C_9
REMARK    6  A    between atoms: C_13  and  C_14
REMARK                            x       y       z     vdW  Elec       q    Type
REMARK                         _______ _______ _______ _____ _____    ______ ____
ROOT
ATOM      1  O   UNL     1      43.827   3.774   9.758  0.00  0.00    +0.000 OA
ENDROOT
BRANCH   1   5
ATOM      2  C   UNL     1      46.818   2.066   7.414  0.00  0.00    +0.000 A 
ATOM      3  C   UNL     1      46.018   1.286   8.251  0.00  0.00    +0.000 A 
ATOM      4  C   UNL     1      45.001   1.881   9.008  0.00  0.00    +0.000 A 
ATOM      5  C   UNL     1      44.789   3.259   8.933  0.00  0.00    +0.000 A 
ATOM      6  C   UNL     1      45.555   4.025   8.056  0.00  0.00    +0.000 A 
ATOM      7  C   UNL     1      46.572   3.434   7.312  0.00  0.00    +0.000 A 
BRANCH   2   9
ATOM      8  C   UNL     1      48.037   2.260   5.391  0.00  0.00    +0.000 C 
ATOM      9  O   UNL     1      47.862   1.629   6.651  0.00  0.00    +0.000 OA
ENDBRANCH   2   9
ENDBRANCH   1   5
BRANCH   1  10
ATOM     10  C   UNL     1      43.916   3.305  11.110  0.00  0.00    +0.000 C 
BRANCH  10  11
ATOM     11  C   UNL     1      44.868   4.171  11.891  0.00  0.00    +0.000 A 
ATOM     12  C   UNL     1      44.953   5.532  11.607  0.00  0.00    +0.000 A 
ATOM     13  C   UNL     1      45.819   6.323  12.353  0.00  0.00    +0.000 A 
ATOM     14  C   UNL     1      46.569   5.736  13.365  0.00  0.00    +0.000 A 
ATOM     15  C   UNL     1      46.419   4.374  13.596  0.00  0.00    +0.000 A 
ATOM     16  N   UNL     1      45.578   3.584  12.886  0.00  0.00    +0.000 NA
BRANCH  15  17
ATOM     17  C   UNL     1      47.172   3.720  14.627  0.00  0.00    +0.000 C 
ATOM     18  N   UNL     1      47.751   3.206  15.491  0.00  0.00    +0.000 NA
ENDBRANCH  15  17
ENDBRANCH  10  11
ENDBRANCH   1  10
TORSDOF 5
ENDMDL
MODEL 2
REMARK VINA RESULT:    -6.803      1.384      2.159
REMARK INTER + INTRA:          -9.280
REMARK INTER:                  -8.746
REMARK INTRA:                  -0.534
REMARK UNBOUND:                -0.488
REMARK  Name = 
REMARK  6 active torsions:
REMARK  status: ('A' for Active; 'I' for Inactive)
REMARK    1  A    between atoms: C_1  and  O_2
REMARK    2  A    between atoms: O_2  and  C_3
REMARK    3  A    between atoms: C_6  and  O_7
REMARK    4  A    between atoms: O_7  and  C_8
REMARK    5  A    between atoms: C_8  and  C_9
REMARK    6  A    between atoms: C_13  and  C_14
REMARK                            x       y       z     vdW  Elec       q    Type
REMARK                         _______ _______ _______ _____ _____    ______ ____
ROOT
ATOM      1  O   UNL     1      43.819   3.858   9.859  0.00  0.00    +0.000 OA
ENDROOT
BRANCH   1   5
ATOM      2  C   UNL     1      46.706   2.064   7.451  0.00  0.00    +0.000 A 
ATOM      3  C   UNL     1      45.917   1.310   8.321  0.00  0.00    +0.000 A 
ATOM      4  C   UNL     1      44.934   1.934   9.099  0.00  0.00    +0.000 A 
ATOM      5  C   UNL     1      44.746   3.314   9.014  0.00  0.00    +0.000 A 
ATOM      6  C   UNL     1      45.500   4.055   8.104  0.00  0.00    +0.000 A 
ATOM      7  C   UNL     1      46.483   3.436   7.338  0.00  0.00    +0.000 A 
BRANCH   2   9
ATOM      8  C   UNL     1      47.972   2.312   5.463  0.00  0.00    +0.000 C 
ATOM      9  O   UNL     1      47.719   1.597   6.664  0.00  0.00    +0.000 OA
ENDBRANCH   2   9
ENDBRANCH   1   5
BRANCH   1  10
ATOM     10  C   UNL     1      43.826   3.280  11.171  0.00  0.00    +0.000 C 
BRANCH  10  11
ATOM     11  C   UNL     1      44.819   4.002  12.044  0.00  0.00    +0.000 A 
ATOM     12  C   UNL     1      45.768   3.272  12.756  0.00  0.00    +0.000 A 
ATOM     13  C   UNL     1      46.693   3.953  13.538  0.00  0.00    +0.000 A 
ATOM     14  C   UNL     1      46.650   5.342  13.582  0.00  0.00    +0.000 A 
ATOM     15  C   UNL     1      45.682   5.998  12.832  0.00  0.00    +0.000 A 
ATOM     16  N   UNL     1      44.773   5.356  12.058  0.00  0.00    +0.000 NA
BRANCH  15  17
ATOM     17  C   UNL     1      45.594   7.430  12.845  0.00  0.00    +0.000 C 
ATOM     18  N   UNL     1      45.481   8.584  12.864  0.00  0.00    +0.000 NA
ENDBRANCH  15  17
ENDBRANCH  10  11
ENDBRANCH   1  10
TORSDOF 5
ENDMDL
MODEL 3
REMARK VINA RESULT:    -6.189      1.251      1.485
REMARK INTER + INTRA:          -8.486
REMARK INTER:                  -8.113
REMARK INTRA:                  -0.373
REMARK UNBOUND:                -0.488
REMARK  Name = 
REMARK  6 active torsions:
REMARK  status: ('A' for Active; 'I' for Inactive)
REMARK    1  A    between atoms: C_1  and  O_2
REMARK    2  A    between atoms: O_2  and  C_3
REMARK    3  A    between atoms: C_6  and  O_7
REMARK    4  A    between atoms: O_7  and  C_8
REMARK    5  A    between atoms: C_8  and  C_9
REMARK    6  A    between atoms: C_13  and  C_14
REMARK                            x       y       z     vdW  Elec       q    Type
REMARK                         _______ _______ _______ _____ _____    ______ ____
ROOT
ATOM      1  O   UNL     1      44.443   4.544  11.133  0.00  0.00    +0.000 OA
ENDROOT
BRANCH   1   5
ATOM      2  C   UNL     1      46.021   2.621   7.791  0.00  0.00    +0.000 A 
ATOM      3  C   UNL     1      45.401   1.903   8.817  0.00  0.00    +0.000 A 
ATOM      4  C   UNL     1      44.854   2.576   9.916  0.00  0.00    +0.000 A 
ATOM      5  C   UNL     1      44.934   3.967   9.994  0.00  0.00    +0.000 A 
ATOM      6  C   UNL     1      45.506   4.683   8.943  0.00  0.00    +0.000 A 
ATOM      7  C   UNL     1      46.057   4.013   7.856  0.00  0.00    +0.000 A 
BRANCH   2   9
ATOM      8  C   UNL     1      48.033   2.259   6.592  0.00  0.00    +0.000 C 
ATOM      9  O   UNL     1      46.625   2.097   6.685  0.00  0.00    +0.000 OA
ENDBRANCH   2   9
ENDBRANCH   1   5
BRANCH   1  10
ATOM     10  C   UNL     1      44.778   3.830  12.331  0.00  0.00    +0.000 C 
BRANCH  10  11
ATOM     11  C   UNL     1      45.863   4.561  13.076  0.00  0.00    +0.000 A 
ATOM     12  C   UNL     1      46.442   5.696  12.513  0.00  0.00    +0.000 A 
ATOM     13  C   UNL     1      47.425   6.374  13.223  0.00  0.00    +0.000 A 
ATOM     14  C   UNL     1      47.798   5.905  14.478  0.00  0.00    +0.000 A 
ATOM     15  C   UNL     1      47.164   4.775  14.977  0.00  0.00    +0.000 A 
ATOM     16  N   UNL     1      46.200   4.100  14.306  0.00  0.00    +0.000 NA
BRANCH  15  17
ATOM     17  C   UNL     1      47.514   4.250  16.266  0.00  0.00    +0.000 C 
ATOM     18  N   UNL     1      47.756   3.835  17.322  0.00  0.00    +0.000 NA
ENDBRANCH  15  17
ENDBRANCH  10  11
ENDBRANCH   1  10
TORSDOF 5
ENDMDL
MODEL 4
REMARK VINA RESULT:    -5.933      2.701      6.170
REMARK INTER + INTRA:          -8.156
REMARK INTER:                  -7.955
REMARK INTRA:                  -0.200
REMARK UNBOUND:                -0.488
REMARK  Name = 
REMARK  6 active torsions:
REMARK  status: ('A' for Active; 'I' for Inactive)
REMARK    1  A    between atoms: C_1  and  O_2
REMARK    2  A    between atoms: O_2  and  C_3
REMARK    3  A    between atoms: C_6  and  O_7
REMARK    4  A    between atoms: O_7  and  C_8
REMARK    5  A    between atoms: C_8  and  C_9
REMARK    6  A    between atoms: C_13  and  C_14
REMARK                            x       y       z     vdW  Elec       q    Type
REMARK                         _______ _______ _______ _____ _____    ______ ____
ROOT
ATOM      1  O   UNL     1      43.852   4.802  11.435  0.00  0.00    +0.000 OA
ENDROOT
BRANCH   1   5
ATOM      2  C   UNL     1      47.053   6.565  13.436  0.00  0.00    +0.000 A 
ATOM      3  C   UNL     1      46.196   7.319  12.631  0.00  0.00    +0.000 A 
ATOM      4  C   UNL     1      45.111   6.706  11.992  0.00  0.00    +0.000 A 
ATOM      5  C   UNL     1      44.887   5.338  12.151  0.00  0.00    +0.000 A 
ATOM      6  C   UNL     1      45.713   4.601  12.998  0.00  0.00    +0.000 A 
ATOM      7  C   UNL     1      46.797   5.208  13.625  0.00  0.00    +0.000 A 
BRANCH   2   9
ATOM      8  C   UNL     1      48.532   6.330  15.273  0.00  0.00    +0.000 C 
ATOM      9  O   UNL     1      48.163   7.019  14.087  0.00  0.00    +0.000 OA
ENDBRANCH   2   9
ENDBRANCH   1   5
BRANCH   1  10
ATOM     10  C   UNL     1      44.046   3.425  11.085  0.00  0.00    +0.000 C 
BRANCH  10  11
ATOM     11  C   UNL     1      44.834   3.329   9.805  0.00  0.00    +0.000 A 
ATOM     12  C   UNL     1      45.124   4.486   9.086  0.00  0.00    +0.000 A 
ATOM     13  C   UNL     1      45.872   4.384   7.919  0.00  0.00    +0.000 A 
ATOM     14  C   UNL     1      46.315   3.133   7.507  0.00  0.00    +0.000 A 
ATOM     15  C   UNL     1      45.996   2.028   8.286  0.00  0.00    +0.000 A 
ATOM     16  N   UNL     1      45.273   2.103   9.429  0.00  0.00    +0.000 NA
BRANCH  15  17
ATOM     17  C   UNL     1      46.428   0.715   7.902  0.00  0.00    +0.000 C 
ATOM     18  N   UNL     1      46.812  -0.344   7.621  0.00  0.00    +0.000 NA
ENDBRANCH  15  17
ENDBRANCH  10  11
ENDBRANCH   1  10
TORSDOF 5
ENDMDL
MODEL 5
REMARK VINA RESULT:    -5.795      2.337      3.299
REMARK INTER + INTRA:          -7.977
REMARK INTER:                  -7.594
REMARK INTRA:                  -0.383
REMARK UNBOUND:                -0.488
REMARK  Name = 
REMARK  6 active torsions:
REMARK  status: ('A' for Active; 'I' for Inactive)
REMARK    1  A    between atoms: C_1  and  O_2
REMARK    2  A    between atoms: O_2  and  C_3
REMARK    3  A    between atoms: C_6  and  O_7
REMARK    4  A    between atoms: O_7  and  C_8
REMARK    5  A    between atoms: C_8  and  C_9
REMARK    6  A    between atoms: C_13  and  C_14
REMARK                            x       y       z     vdW  Elec       q    Type
REMARK                         _______ _______ _______ _____ _____    ______ ____
ROOT
ATOM      1  O   UNL     1      44.192   4.574  11.747  0.00  0.00    +0.000 OA
ENDROOT
BRANCH   1   5
ATOM      2  C   UNL     1      45.618   3.046   8.143  0.00  0.00    +0.000 A 
ATOM      3  C   UNL     1      44.890   2.251   9.031  0.00  0.00    +0.000 A 
ATOM      4  C   UNL     1      44.399   2.797  10.223  0.00  0.00    +0.000 A 
ATOM      5  C   UNL     1      44.641   4.137  10.532  0.00  0.00    +0.000 A 
ATOM      6  C   UNL     1      45.322   4.939   9.617  0.00  0.00    +0.000 A 
ATOM      7  C   UNL     1      45.818   4.394   8.438  0.00  0.00    +0.000 A 
BRANCH   2   9
ATOM      8  C   UNL     1      47.604   2.656   6.910  0.00  0.00    +0.000 C 
ATOM      9  O   UNL     1      46.185   2.641   6.969  0.00  0.00    +0.000 OA
ENDBRANCH   2   9
ENDBRANCH   1   5
BRANCH   1  10
ATOM     10  C   UNL     1      45.165   4.465  12.794  0.00  0.00    +0.000 C 
BRANCH  10  11
ATOM     11  C   UNL     1      45.901   5.770  12.948  0.00  0.00    +0.000 A 
ATOM     12  C   UNL     1      47.237   5.765  13.345  0.00  0.00    +0.000 A 
ATOM     13  C   UNL     1      47.909   6.975  13.459  0.00  0.00    +0.000 A 
ATOM     14  C   UNL     1      47.235   8.155  13.167  0.00  0.00    +0.000 A 
ATOM     15  C   UNL     1      45.908   8.076  12.764  0.00  0.00    +0.000 A 
ATOM     16  N   UNL     1      45.232   6.908  12.640  0.00  0.00    +0.000 NA
BRANCH  15  17
ATOM     17  C   UNL     1      45.167   9.264  12.453  0.00  0.00    +0.000 C 
ATOM     18  N   UNL     1      44.598  10.249  12.223  0.00  0.00    +0.000 NA
ENDBRANCH  15  17
ENDBRANCH  10  11
ENDBRANCH   1  10
TORSDOF 5
ENDMDL
MODEL 6
REMARK VINA RESULT:    -5.646      3.079      6.174
REMARK INTER + INTRA:          -7.785
REMARK INTER:                  -7.274
REMARK INTRA:                  -0.510
REMARK UNBOUND:                -0.488
REMARK  Name = 
REMARK  6 active torsions:
REMARK  status: ('A' for Active; 'I' for Inactive)
REMARK    1  A    between atoms: C_1  and  O_2
REMARK    2  A    between atoms: O_2  and  C_3
REMARK    3  A    between atoms: C_6  and  O_7
REMARK    4  A    between atoms: O_7  and  C_8
REMARK    5  A    between atoms: C_8  and  C_9
REMARK    6  A    between atoms: C_13  and  C_14
REMARK                            x       y       z     vdW  Elec       q    Type
REMARK                         _______ _______ _______ _____ _____    ______ ____
ROOT
ATOM      1  O   UNL     1      43.905   5.738  12.472  0.00  0.00    +0.000 OA
ENDROOT
BRANCH   1   5
ATOM      2  C   UNL     1      47.845   6.230  13.731  0.00  0.00    +0.000 A 
ATOM      3  C   UNL     1      47.142   5.052  13.991  0.00  0.00    +0.000 A 
ATOM      4  C   UNL     1      45.828   4.901  13.533  0.00  0.00    +0.000 A 
ATOM      5  C   UNL     1      45.213   5.932  12.820  0.00  0.00    +0.000 A 
ATOM      6  C   UNL     1      45.938   7.084  12.518  0.00  0.00    +0.000 A 
ATOM      7  C   UNL     1      47.240   7.237  12.982  0.00  0.00    +0.000 A 
BRANCH   2   9
ATOM      8  C   UNL     1      49.587   7.833  13.853  0.00  0.00    +0.000 C 
ATOM      9  O   UNL     1      49.112   6.527  14.145  0.00  0.00    +0.000 OA
ENDBRANCH   2   9
ENDBRANCH   1   5
BRANCH   1  10
ATOM     10  C   UNL     1      43.662   5.839  11.063  0.00  0.00    +0.000 C 
BRANCH  10  11
ATOM     11  C   UNL     1      44.108   4.577  10.374  0.00  0.00    +0.000 A 
ATOM     12  C   UNL     1      43.729   3.340  10.891  0.00  0.00    +0.000 A 
ATOM     13  C   UNL     1      44.127   2.184  10.231  0.00  0.00    +0.000 A 
ATOM     14  C   UNL     1      44.886   2.294   9.071  0.00  0.00    +0.000 A 
ATOM     15  C   UNL     1      45.212   3.564   8.612  0.00  0.00    +0.000 A 
ATOM     16  N   UNL     1      44.831   4.705   9.235  0.00  0.00    +0.000 NA
BRANCH  15  17
ATOM     17  C   UNL     1      45.994   3.732   7.421  0.00  0.00    +0.000 C 
ATOM     18  N   UNL     1      46.655   3.836   6.473  0.00  0.00    +0.000 NA
ENDBRANCH  15  17
ENDBRANCH  10  11
ENDBRANCH   1  10
TORSDOF 5
ENDMDL
MODEL 7
REMARK VINA RESULT:    -5.565      2.614      4.739
REMARK INTER + INTRA:          -7.680
REMARK INTER:                  -7.375
REMARK INTRA:                  -0.304
REMARK UNBOUND:                -0.488
REMARK  Name = 
REMARK  6 active torsions:
REMARK  status: ('A' for Active; 'I' for Inactive)
REMARK    1  A    between atoms: C_1  and  O_2
REMARK    2  A    between atoms: O_2  and  C_3
REMARK    3  A    between atoms: C_6  and  O_7
REMARK    4  A    between atoms: O_7  and  C_8
REMARK    5  A    between atoms: C_8  and  C_9
REMARK    6  A    between atoms: C_13  and  C_14
REMARK                            x       y       z     vdW  Elec       q    Type
REMARK                         _______ _______ _______ _____ _____    ______ ____
ROOT
ATOM      1  O   UNL     1      46.254   4.427  14.063  0.00  0.00    +0.000 OA
ENDROOT
BRANCH   1   5
ATOM      2  C   UNL     1      44.604   4.360  10.238  0.00  0.00    +0.000 A 
ATOM      3  C   UNL     1      44.479   3.270  11.102  0.00  0.00    +0.000 A 
ATOM      4  C   UNL     1      45.019   3.329  12.392  0.00  0.00    +0.000 A 
ATOM      5  C   UNL     1      45.691   4.476  12.817  0.00  0.00    +0.000 A 
ATOM      6  C   UNL     1      45.767   5.581  11.970  0.00  0.00    +0.000 A 
ATOM      7  C   UNL     1      45.238   5.518  10.685  0.00  0.00    +0.000 A 
BRANCH   2   9
ATOM      8  C   UNL     1      44.880   3.669   7.988  0.00  0.00    +0.000 C 
ATOM      9  O   UNL     1      44.161   4.429   8.949  0.00  0.00    +0.000 OA
ENDBRANCH   2   9
ENDBRANCH   1   5
BRANCH   1  10
ATOM     10  C   UNL     1      47.115   3.299  14.263  0.00  0.00    +0.000 C 
BRANCH  10  11
ATOM     11  C   UNL     1      47.731   3.361  15.636  0.00  0.00    +0.000 A 
ATOM     12  C   UNL     1      47.164   4.182  16.608  0.00  0.00    +0.000 A 
ATOM     13  C   UNL     1      47.730   4.211  17.877  0.00  0.00    +0.000 A 
ATOM     14  C   UNL     1      48.838   3.415  18.143  0.00  0.00    +0.000 A 
ATOM     15  C   UNL     1      49.336   2.613  17.123  0.00  0.00    +0.000 A 
ATOM     16  N   UNL     1      48.800   2.564  15.880  0.00  0.00    +0.000 NA
BRANCH  15  17
ATOM     17  C   UNL     1      50.480   1.775  17.346  0.00  0.00    +0.000 C 
ATOM     18  N   UNL     1      51.413   1.099  17.483  0.00  0.00    +0.000 NA
ENDBRANCH  15  17
ENDBRANCH  10  11
ENDBRANCH   1  10
TORSDOF 5
ENDMDL
MODEL 8
REMARK VINA RESULT:    -5.469      2.357      4.220
REMARK INTER + INTRA:          -7.555
REMARK INTER:                  -7.240
REMARK INTRA:                  -0.315
REMARK UNBOUND:                -0.488
REMARK  Name = 
REMARK  6 active torsions:
REMARK  status: ('A' for Active; 'I' for Inactive)
REMARK    1  A    between atoms: C_1  and  O_2
REMARK    2  A    between atoms: O_2  and  C_3
REMARK    3  A    between atoms: C_6  and  O_7
REMARK    4  A    between atoms: O_7  and  C_8
REMARK    5  A    between atoms: C_8  and  C_9
REMARK    6  A    between atoms: C_13  and  C_14
REMARK                            x       y       z     vdW  Elec       q    Type
REMARK                         _______ _______ _______ _____ _____    ______ ____
ROOT
ATOM      1  O   UNL     1      46.115   6.531  12.877  0.00  0.00    +0.000 OA
ENDROOT
BRANCH   1   5
ATOM      2  C   UNL     1      44.404   3.418  10.700  0.00  0.00    +0.000 A 
ATOM      3  C   UNL     1      44.307   3.469  12.092  0.00  0.00    +0.000 A 
ATOM      4  C   UNL     1      44.867   4.541  12.798  0.00  0.00    +0.000 A 
ATOM      5  C   UNL     1      45.531   5.559  12.112  0.00  0.00    +0.000 A 
ATOM      6  C   UNL     1      45.579   5.531  10.719  0.00  0.00    +0.000 A 
ATOM      7  C   UNL     1      45.031   4.461  10.019  0.00  0.00    +0.000 A 
BRANCH   2   9
ATOM      8  C   UNL     1      44.836   1.937   8.901  0.00  0.00    +0.000 C 
ATOM      9  O   UNL     1      43.939   2.422   9.890  0.00  0.00    +0.000 OA
ENDBRANCH   2   9
ENDBRANCH   1   5
BRANCH   1  10
ATOM     10  C   UNL     1      47.547   6.476  12.885  0.00  0.00    +0.000 C 
BRANCH  10  11
ATOM     11  C   UNL     1      48.042   6.209  14.282  0.00  0.00    +0.000 A 
ATOM     12  C   UNL     1      48.998   7.050  14.847  0.00  0.00    +0.000 A 
ATOM     13  C   UNL     1      49.428   6.805  16.145  0.00  0.00    +0.000 A 
ATOM     14  C   UNL     1      48.886   5.734  16.846  0.00  0.00    +0.000 A 
ATOM     15  C   UNL     1      47.927   4.949  16.219  0.00  0.00    +0.000 A 
ATOM     16  N   UNL     1      47.489   5.171  14.956  0.00  0.00    +0.000 NA
BRANCH  15  17
ATOM     17  C   UNL     1      47.340   3.831  16.899  0.00  0.00    +0.000 C 
ATOM     18  N   UNL     1      46.835   2.924  17.416  0.00  0.00    +0.000 NA
ENDBRANCH  15  17
ENDBRANCH  10  11
ENDBRANCH   1  10
TORSDOF 5
ENDMDL
MODEL 9
REMARK VINA RESULT:    -5.298      3.958      7.961
REMARK INTER + INTRA:          -7.334
REMARK INTER:                  -7.010
REMARK INTRA:                  -0.324
REMARK UNBOUND:                -0.488
REMARK  Name = 
REMARK  6 active torsions:
REMARK  status: ('A' for Active; 'I' for Inactive)
REMARK    1  A    between atoms: C_1  and  O_2
REMARK    2  A    between atoms: O_2  and  C_3
REMARK    3  A    between atoms: C_6  and  O_7
REMARK    4  A    between atoms: O_7  and  C_8
REMARK    5  A    between atoms: C_8  and  C_9
REMARK    6  A    between atoms: C_13  and  C_14
REMARK                            x       y       z     vdW  Elec       q    Type
REMARK                         _______ _______ _______ _____ _____    ______ ____
ROOT
ATOM      1  O   UNL     1      46.690   3.626  14.752  0.00  0.00    +0.000 OA
ENDROOT
BRANCH   1   5
ATOM      2  C   UNL     1      48.855   4.718  18.140  0.00  0.00    +0.000 A 
ATOM      3  C   UNL     1      48.666   5.609  17.081  0.00  0.00    +0.000 A 
ATOM      4  C   UNL     1      47.910   5.226  15.966  0.00  0.00    +0.000 A 
ATOM      5  C   UNL     1      47.350   3.949  15.905  0.00  0.00    +0.000 A 
ATOM      6  C   UNL     1      47.498   3.083  16.988  0.00  0.00    +0.000 A 
ATOM      7  C   UNL     1      48.256   3.460  18.091  0.00  0.00    +0.000 A 
BRANCH   2   9
ATOM      8  C   UNL     1      48.926   4.771  20.508  0.00  0.00    +0.000 C 
ATOM      9  O   UNL     1      49.593   4.941  19.266  0.00  0.00    +0.000 OA
ENDBRANCH   2   9
ENDBRANCH   1   5
BRANCH   1  10
ATOM     10  C   UNL     1      46.569   4.719  13.832  0.00  0.00    +0.000 C 
BRANCH  10  11
ATOM     11  C   UNL     1      45.361   4.519  12.955  0.00  0.00    +0.000 A 
ATOM     12  C   UNL     1      44.193   5.232  13.219  0.00  0.00    +0.000 A 
ATOM     13  C   UNL     1      43.094   5.055  12.388  0.00  0.00    +0.000 A 
ATOM     14  C   UNL     1      43.193   4.180  11.312  0.00  0.00    +0.000 A 
ATOM     15  C   UNL     1      44.397   3.516  11.107  0.00  0.00    +0.000 A 
ATOM     16  N   UNL     1      45.483   3.676  11.901  0.00  0.00    +0.000 NA
BRANCH  15  17
ATOM     17  C   UNL     1      44.549   2.601  10.013  0.00  0.00    +0.000 C 
ATOM     18  N   UNL     1      44.645   1.886   9.104  0.00  0.00    +0.000 NA
ENDBRANCH  15  17
ENDBRANCH  10  11
ENDBRANCH   1  10
TORSDOF 5
ENDMDL
