MODEL 1
REMARK VINA RESULT:    -8.942      0.000      0.000
REMARK INTER + INTRA:         -12.649
REMARK INTER:                 -12.078
REMARK INTRA:                  -0.570
REMARK UNBOUND:                -0.570
REMARK  Name = 
REMARK  6 active torsions:
REMARK  status: ('A' for Active; 'I' for Inactive)
REMARK    1  A    between atoms: C_2  and  C_25
REMARK    2  A    between atoms: N_3  and  C_4
REMARK    3  A    between atoms: C_4  and  C_5
REMARK    4  A    between atoms: C_8  and  C_9
REMARK    5  A    between atoms: C_9  and  N_10
REMARK    6  A    between atoms: C_11  and  C_13
REMARK                            x       y       z     vdW  Elec       q    Type
REMARK                         _______ _______ _______ _____ _____    ______ ____
ROOT
ATOM      1  C   UNL     1      43.656   4.455  11.743  0.00  0.00    +0.000 C 
ATOM      2  C   UNL     1      44.432   3.214  12.219  0.00  0.00    +0.000 C 
ATOM      3  C   UNL     1      45.937   3.447  12.356  0.00  0.00    +0.000 C 
ATOM      4  C   UNL     1      46.298   4.682  13.200  0.00  0.00    +0.000 C 
ATOM      5  C   UNL     1      45.548   5.913  12.668  0.00  0.00    +0.000 C 
ATOM      6  C   UNL     1      44.037   5.693  12.573  0.00  0.00    +0.000 C 
ENDROOT
BRANCH   1   7
ATOM      7  C   UNL     1      43.836   4.729  10.238  0.00  0.00    +0.000 C 
BRANCH   7  10
ATOM      8  O   UNL     1      45.941   5.062   8.355  0.00  0.00    +0.000 OA
ATOM      9  C   UNL     1      45.576   3.930   8.661  0.00  0.00    +0.000 C 
ATOM     10  N   UNL     1      44.565   3.679   9.561  0.00  0.00    +0.000 N 
ATOM     11  H   UNL     1      44.347   2.700   9.731  0.00  0.00    +0.000 HD
BRANCH   9  12
ATOM     12  C   UNL     1      46.190   2.734   8.120  0.00  0.00    +0.000 A 
ATOM     13  N   UNL     1      45.906   1.491   8.478  0.00  0.00    +0.000 NA
ATOM     14  C   UNL     1      46.737   0.697   7.727  0.00  0.00    +0.000 A 
ATOM     15  C   UNL     1      47.543   1.459   6.915  0.00  0.00    +0.000 A 
ATOM     16  N   UNL     1      47.172   2.750   7.160  0.00  0.00    +0.000 N 
ATOM     17  H   UNL     1      47.549   3.592   6.746  0.00  0.00    +0.000 HD
ENDBRANCH   9  12
ENDBRANCH   7  10
ENDBRANCH   1   7
BRANCH   4  18
ATOM     18  C   UNL     1      46.033   4.497  14.702  0.00  0.00    +0.000 C 
BRANCH  18  19
ATOM     19  N   UNL     1      47.214   4.677  15.514  0.00  0.00    +0.000 N 
ATOM     20  C   UNL     1      47.417   4.061  16.719  0.00  0.00    +0.000 C 
ATOM     21  O   UNL     1      46.548   3.409  17.290  0.00  0.00    +0.000 OA
ATOM     22  H   UNL     1      47.994   5.128  15.055  0.00  0.00    +0.000 HD
BRANCH  20  23
ATOM     23  C   UNL     1      48.747   4.262  17.309  0.00  0.00    +0.000 A 
ATOM     24  C   UNL     1      49.042   5.432  17.992  0.00  0.00    +0.000 A 
ATOM     25  S   UNL     1      50.638   5.481  18.598  0.00  0.00    +0.000 S 
ATOM     26  C   UNL     1      50.970   3.915  18.018  0.00  0.00    +0.000 A 
ATOM     27  N   UNL     1      52.176   3.325  18.236  0.00  0.00    +0.000 NA
ATOM     28  C   UNL     1      52.275   2.121  17.782  0.00  0.00    +0.000 A 
ATOM     29  N   UNL     1      51.280   1.456  17.115  0.00  0.00    +0.000 N 
ATOM     30  C   UNL     1      50.077   2.038  16.803  0.00  0.00    +0.000 A 
ATOM     31  O   UNL     1      49.266   1.463  16.083  0.00  0.00    +0.000 OA
ATOM     32  C   UNL     1      49.893   3.376  17.339  0.00  0.00    +0.000 A 
ATOM     33  H   UNL     1      51.426   0.524  16.756  0.00  0.00    +0.000 HD
ENDBRANCH  20  23
ENDBRANCH  18  19
ENDBRANCH   4  18
TORSDOF 6
ENDMDL
MODEL 2
REMARK VINA RESULT:    -8.076      2.145      2.665
REMARK INTER + INTRA:         -11.480
REMARK INTER:                 -10.941
REMARK INTRA:                  -0.538
REMARK UNBOUND:                -0.570
REMARK  Name = 
REMARK  6 active torsions:
REMARK  status: ('A' for Active; 'I' for Inactive)
REMARK    1  A    between atoms: C_2  and  C_25
REMARK    2  A    between atoms: N_3  and  C_4
REMARK    3  A    between atoms: C_4  and  C_5
REMARK    4  A    between atoms: C_8  and  C_9
REMARK    5  A    between atoms: C_9  and  N_10
REMARK    6  A    between atoms: C_11  and  C_13
REMARK                            x       y       z     vdW  Elec       q    Type
REMARK                         _______ _______ _______ _____ _____    ______ ____
ROOT
ATOM      1  C   UNL     1      43.567   6.011  11.943  0.00  0.00    +0.000 C 
ATOM      2  C   UNL     1      44.215   5.434  13.214  0.00  0.00    +0.000 C 
ATOM      3  C   UNL     1      45.615   4.862  12.984  0.00  0.00    +0.000 C 
ATOM      4  C   UNL     1      46.570   5.834  12.268  0.00  0.00    +0.000 C 
ATOM      5  C   UNL     1      45.916   6.352  10.978  0.00  0.00    +0.000 C 
ATOM      6  C   UNL     1      44.534   6.963  11.217  0.00  0.00    +0.000 C 
ENDROOT
BRANCH   1   7
ATOM      7  C   UNL     1      43.055   4.917  10.986  0.00  0.00    +0.000 C 
BRANCH   7  10
ATOM      8  O   UNL     1      43.859   2.293  10.243  0.00  0.00    +0.000 OA
ATOM      9  C   UNL     1      44.353   3.262   9.672  0.00  0.00    +0.000 C 
ATOM     10  N   UNL     1      44.022   4.564   9.970  0.00  0.00    +0.000 N 
ATOM     11  H   UNL     1      44.501   5.284   9.435  0.00  0.00    +0.000 HD
BRANCH   9  12
ATOM     12  C   UNL     1      45.324   3.132   8.604  0.00  0.00    +0.000 A 
ATOM     13  N   UNL     1      45.655   4.082   7.743  0.00  0.00    +0.000 NA
ATOM     14  C   UNL     1      46.584   3.510   6.909  0.00  0.00    +0.000 A 
ATOM     15  C   UNL     1      46.813   2.199   7.254  0.00  0.00    +0.000 A 
ATOM     16  N   UNL     1      46.020   1.977   8.344  0.00  0.00    +0.000 N 
ATOM     17  H   UNL     1      45.920   1.122   8.873  0.00  0.00    +0.000 HD
ENDBRANCH   9  12
ENDBRANCH   7  10
ENDBRANCH   1   7
BRANCH   4  18
ATOM     18  C   UNL     1      47.025   7.007  13.150  0.00  0.00    +0.000 C 
BRANCH  18  19
ATOM     19  N   UNL     1      47.506   6.591  14.447  0.00  0.00    +0.000 N 
ATOM     20  C   UNL     1      48.809   6.693  14.852  0.00  0.00    +0.000 C 
ATOM     21  O   UNL     1      49.719   7.016  14.094  0.00  0.00    +0.000 OA
ATOM     22  H   UNL     1      46.790   6.402  15.137  0.00  0.00    +0.000 HD
BRANCH  20  23
ATOM     23  C   UNL     1      49.056   6.353  16.259  0.00  0.00    +0.000 A 
ATOM     24  C   UNL     1      49.666   7.266  17.105  0.00  0.00    +0.000 A 
ATOM     25  S   UNL     1      49.871   6.685  18.698  0.00  0.00    +0.000 S 
ATOM     26  C   UNL     1      49.099   5.214  18.324  0.00  0.00    +0.000 A 
ATOM     27  N   UNL     1      48.908   4.259  19.274  0.00  0.00    +0.000 NA
ATOM     28  C   UNL     1      48.269   3.215  18.864  0.00  0.00    +0.000 A 
ATOM     29  N   UNL     1      47.816   3.031  17.585  0.00  0.00    +0.000 N 
ATOM     30  C   UNL     1      48.055   3.931  16.576  0.00  0.00    +0.000 A 
ATOM     31  O   UNL     1      47.758   3.669  15.414  0.00  0.00    +0.000 OA
ATOM     32  C   UNL     1      48.724   5.151  16.995  0.00  0.00    +0.000 A 
ATOM     33  H   UNL     1      47.347   2.179  17.315  0.00  0.00    +0.000 HD
ENDBRANCH  20  23
ENDBRANCH  18  19
ENDBRANCH   4  18
TORSDOF 6
ENDMDL
MODEL 3
REMARK VINA RESULT:    -7.641      2.672      3.601
REMARK INTER + INTRA:         -10.892
REMARK INTER:                 -10.606
REMARK INTRA:                  -0.287
REMARK UNBOUND:                -0.570
REMARK  Name = 
REMARK  6 active torsions:
REMARK  status: ('A' for Active; 'I' for Inactive)
REMARK    1  A    between atoms: C_2  and  C_25
REMARK    2  A    between atoms: N_3  and  C_4
REMARK    3  A    between atoms: C_4  and  C_5
REMARK    4  A    between atoms: C_8  and  C_9
REMARK    5  A    between atoms: C_9  and  N_10
REMARK    6  A    between atoms: C_11  and  C_13
REMARK                            x       y       z     vdW  Elec       q    Type
REMARK                         _______ _______ _______ _____ _____    ______ ____
ROOT
ATOM      1  C   UNL     1      43.839   6.211  11.967  0.00  0.00    +0.000 C 
ATOM      2  C   UNL     1      44.300   5.460  13.229  0.00  0.00    +0.000 C 
ATOM      3  C   UNL     1      45.602   4.681  13.038  0.00  0.00    +0.000 C 
ATOM      4  C   UNL     1      46.746   5.524  12.447  0.00  0.00    +0.000 C 
ATOM      5  C   UNL     1      46.271   6.219  11.162  0.00  0.00    +0.000 C 
ATOM      6  C   UNL     1      44.992   7.033  11.365  0.00  0.00    +0.000 C 
ENDROOT
BRANCH   1   7
ATOM      7  C   UNL     1      43.223   5.276  10.909  0.00  0.00    +0.000 C 
BRANCH   7  10
ATOM      8  O   UNL     1      43.807   2.588  10.189  0.00  0.00    +0.000 OA
ATOM      9  C   UNL     1      44.405   3.507   9.635  0.00  0.00    +0.000 C 
ATOM     10  N   UNL     1      44.186   4.835   9.924  0.00  0.00    +0.000 N 
ATOM     11  H   UNL     1      44.744   5.507   9.405  0.00  0.00    +0.000 HD
BRANCH   9  12
ATOM     12  C   UNL     1      45.394   3.287   8.598  0.00  0.00    +0.000 A 
ATOM     13  N   UNL     1      45.842   4.204   7.754  0.00  0.00    +0.000 NA
ATOM     14  C   UNL     1      46.739   3.547   6.947  0.00  0.00    +0.000 A 
ATOM     15  C   UNL     1      46.829   2.219   7.291  0.00  0.00    +0.000 A 
ATOM     16  N   UNL     1      45.983   2.071   8.354  0.00  0.00    +0.000 N 
ATOM     17  H   UNL     1      45.784   1.228   8.874  0.00  0.00    +0.000 HD
ENDBRANCH   9  12
ENDBRANCH   7  10
ENDBRANCH   1   7
BRANCH   4  18
ATOM     18  C   UNL     1      47.324   6.551  13.433  0.00  0.00    +0.000 C 
BRANCH  18  19
ATOM     19  N   UNL     1      47.508   6.020  14.764  0.00  0.00    +0.000 N 
ATOM     20  C   UNL     1      48.650   6.178  15.501  0.00  0.00    +0.000 C 
ATOM     21  O   UNL     1      49.680   6.664  15.041  0.00  0.00    +0.000 OA
ATOM     22  H   UNL     1      46.668   5.692  15.222  0.00  0.00    +0.000 HD
BRANCH  20  23
ATOM     23  C   UNL     1      48.575   5.691  16.884  0.00  0.00    +0.000 A 
ATOM     24  C   UNL     1      48.750   4.344  17.165  0.00  0.00    +0.000 A 
ATOM     25  S   UNL     1      48.621   3.974  18.826  0.00  0.00    +0.000 S 
ATOM     26  C   UNL     1      48.383   5.609  19.234  0.00  0.00    +0.000 A 
ATOM     27  N   UNL     1      48.236   5.997  20.530  0.00  0.00    +0.000 NA
ATOM     28  C   UNL     1      48.110   7.271  20.697  0.00  0.00    +0.000 A 
ATOM     29  N   UNL     1      48.101   8.194  19.685  0.00  0.00    +0.000 N 
ATOM     30  C   UNL     1      48.166   7.842  18.359  0.00  0.00    +0.000 A 
ATOM     31  O   UNL     1      48.014   8.681  17.476  0.00  0.00    +0.000 OA
ATOM     32  C   UNL     1      48.364   6.423  18.116  0.00  0.00    +0.000 A 
ATOM     33  H   UNL     1      47.969   9.176  19.875  0.00  0.00    +0.000 HD
ENDBRANCH  20  23
ENDBRANCH  18  19
ENDBRANCH   4  18
TORSDOF 6
ENDMDL
MODEL 4
REMARK VINA RESULT:    -7.526      2.723      3.392
REMARK INTER + INTRA:         -10.737
REMARK INTER:                  -9.927
REMARK INTRA:                  -0.810
REMARK UNBOUND:                -0.570
REMARK  Name = 
REMARK  6 active torsions:
REMARK  status: ('A' for Active; 'I' for Inactive)
REMARK    1  A    between atoms: C_2  and  C_25
REMARK    2  A    between atoms: N_3  and  C_4
REMARK    3  A    between atoms: C_4  and  C_5
REMARK    4  A    between atoms: C_8  and  C_9
REMARK    5  A    between atoms: C_9  and  N_10
REMARK    6  A    between atoms: C_11  and  C_13
REMARK                            x       y       z     vdW  Elec       q    Type
REMARK                         _______ _______ _______ _____ _____    ______ ____
ROOT
ATOM      1  C   UNL     1      43.616   5.007  12.278  0.00  0.00    +0.000 C 
ATOM      2  C   UNL     1      44.039   3.584  12.683  0.00  0.00    +0.000 C 
ATOM      3  C   UNL     1      45.520   3.289  12.433  0.00  0.00    +0.000 C 
ATOM      4  C   UNL     1      46.469   4.340  13.033  0.00  0.00    +0.000 C 
ATOM      5  C   UNL     1      46.052   5.744  12.569  0.00  0.00    +0.000 C 
ATOM      6  C   UNL     1      44.582   6.054  12.859  0.00  0.00    +0.000 C 
ENDROOT
BRANCH   1   7
ATOM      7  C   UNL     1      43.480   5.175  10.752  0.00  0.00    +0.000 C 
BRANCH   7  10
ATOM      8  O   UNL     1      45.682   5.466   8.977  0.00  0.00    +0.000 OA
ATOM      9  C   UNL     1      45.204   4.352   9.171  0.00  0.00    +0.000 C 
ATOM     10  N   UNL     1      44.138   4.122  10.011  0.00  0.00    +0.000 N 
ATOM     11  H   UNL     1      43.825   3.158  10.088  0.00  0.00    +0.000 HD
BRANCH   9  12
ATOM     12  C   UNL     1      45.729   3.153   8.548  0.00  0.00    +0.000 A 
ATOM     13  N   UNL     1      45.457   1.910   8.915  0.00  0.00    +0.000 NA
ATOM     14  C   UNL     1      46.185   1.113   8.067  0.00  0.00    +0.000 A 
ATOM     15  C   UNL     1      46.917   1.872   7.185  0.00  0.00    +0.000 A 
ATOM     16  N   UNL     1      46.604   3.167   7.489  0.00  0.00    +0.000 N 
ATOM     17  H   UNL     1      46.953   4.008   7.051  0.00  0.00    +0.000 HD
ENDBRANCH   9  12
ENDBRANCH   7  10
ENDBRANCH   1   7
BRANCH   4  18
ATOM     18  C   UNL     1      46.557   4.284  14.566  0.00  0.00    +0.000 C 
BRANCH  18  19
ATOM     19  N   UNL     1      47.250   5.415  15.138  0.00  0.00    +0.000 N 
ATOM     20  C   UNL     1      48.269   5.311  16.046  0.00  0.00    +0.000 C 
ATOM     21  O   UNL     1      48.593   4.248  16.567  0.00  0.00    +0.000 OA
ATOM     22  H   UNL     1      47.087   6.302  14.681  0.00  0.00    +0.000 HD
BRANCH  20  23
ATOM     23  C   UNL     1      48.935   6.575  16.386  0.00  0.00    +0.000 A 
ATOM     24  C   UNL     1      49.009   6.997  17.705  0.00  0.00    +0.000 A 
ATOM     25  S   UNL     1      49.816   8.489  17.897  0.00  0.00    +0.000 S 
ATOM     26  C   UNL     1      50.144   8.594  16.230  0.00  0.00    +0.000 A 
ATOM     27  N   UNL     1      50.852   9.637  15.717  0.00  0.00    +0.000 NA
ATOM     28  C   UNL     1      51.067   9.565  14.445  0.00  0.00    +0.000 A 
ATOM     29  N   UNL     1      50.625   8.552  13.636  0.00  0.00    +0.000 N 
ATOM     30  C   UNL     1      49.842   7.523  14.095  0.00  0.00    +0.000 A 
ATOM     31  O   UNL     1      49.347   6.712  13.317  0.00  0.00    +0.000 OA
ATOM     32  C   UNL     1      49.614   7.526  15.530  0.00  0.00    +0.000 A 
ATOM     33  H   UNL     1      50.800   8.566  12.642  0.00  0.00    +0.000 HD
ENDBRANCH  20  23
ENDBRANCH  18  19
ENDBRANCH   4  18
TORSDOF 6
ENDMDL
MODEL 5
REMARK VINA RESULT:    -7.440      3.786      4.649
REMARK INTER + INTRA:         -10.620
REMARK INTER:                  -9.809
REMARK INTRA:                  -0.811
REMARK UNBOUND:                -0.570
REMARK  Name = 
REMARK  6 active torsions:
REMARK  status: ('A' for Active; 'I' for Inactive)
REMARK    1  A    between atoms: C_2  and  C_25
REMARK    2  A    between atoms: N_3  and  C_4
REMARK    3  A    between atoms: C_4  and  C_5
REMARK    4  A    between atoms: C_8  and  C_9
REMARK    5  A    between atoms: C_9  and  N_10
REMARK    6  A    between atoms: C_11  and  C_13
REMARK                            x       y       z     vdW  Elec       q    Type
REMARK                         _______ _______ _______ _____ _____    ______ ____
ROOT
ATOM      1  C   UNL     1      44.302   3.866  12.307  0.00  0.00    +0.000 C 
ATOM      2  C   UNL     1      45.718   4.358  11.956  0.00  0.00    +0.000 C 
ATOM      3  C   UNL     1      45.732   5.590  11.049  0.00  0.00    +0.000 C 
ATOM      4  C   UNL     1      44.856   6.746  11.562  0.00  0.00    +0.000 C 
ATOM      5  C   UNL     1      43.437   6.234  11.853  0.00  0.00    +0.000 C 
ATOM      6  C   UNL     1      43.422   5.028  12.795  0.00  0.00    +0.000 C 
ENDROOT
BRANCH   1   7
ATOM      7  C   UNL     1      43.626   3.120  11.140  0.00  0.00    +0.000 C 
BRANCH   7  10
ATOM      8  O   UNL     1      44.256   3.908   8.482  0.00  0.00    +0.000 OA
ATOM      9  C   UNL     1      44.823   2.937   8.976  0.00  0.00    +0.000 C 
ATOM     10  N   UNL     1      44.577   2.487  10.254  0.00  0.00    +0.000 N 
ATOM     11  H   UNL     1      45.103   1.670  10.552  0.00  0.00    +0.000 HD
BRANCH   9  12
ATOM     12  C   UNL     1      45.832   2.173   8.269  0.00  0.00    +0.000 A 
ATOM     13  N   UNL     1      45.997   0.861   8.341  0.00  0.00    +0.000 NA
ATOM     14  C   UNL     1      47.071   0.585   7.531  0.00  0.00    +0.000 A 
ATOM     15  C   UNL     1      47.574   1.736   6.972  0.00  0.00    +0.000 A 
ATOM     16  N   UNL     1      46.766   2.735   7.434  0.00  0.00    +0.000 N 
ATOM     17  H   UNL     1      46.830   3.725   7.237  0.00  0.00    +0.000 HD
ENDBRANCH   9  12
ENDBRANCH   7  10
ENDBRANCH   1   7
BRANCH   4  18
ATOM     18  C   UNL     1      45.436   7.455  12.795  0.00  0.00    +0.000 C 
BRANCH  18  19
ATOM     19  N   UNL     1      46.857   7.698  12.695  0.00  0.00    +0.000 N 
ATOM     20  C   UNL     1      47.409   8.922  12.433  0.00  0.00    +0.000 C 
ATOM     21  O   UNL     1      46.740   9.902  12.115  0.00  0.00    +0.000 OA
ATOM     22  H   UNL     1      47.451   6.953  13.034  0.00  0.00    +0.000 HD
BRANCH  20  23
ATOM     23  C   UNL     1      48.873   8.981  12.524  0.00  0.00    +0.000 A 
ATOM     24  C   UNL     1      49.610   9.646  11.556  0.00  0.00    +0.000 A 
ATOM     25  S   UNL     1      51.295   9.599  11.832  0.00  0.00    +0.000 S 
ATOM     26  C   UNL     1      51.092   8.736  13.286  0.00  0.00    +0.000 A 
ATOM     27  N   UNL     1      52.160   8.397  14.057  0.00  0.00    +0.000 NA
ATOM     28  C   UNL     1      51.858   7.786  15.154  0.00  0.00    +0.000 A 
ATOM     29  N   UNL     1      50.584   7.468  15.543  0.00  0.00    +0.000 N 
ATOM     30  C   UNL     1      49.484   7.719  14.760  0.00  0.00    +0.000 A 
ATOM     31  O   UNL     1      48.376   7.294  15.075  0.00  0.00    +0.000 OA
ATOM     32  C   UNL     1      49.762   8.455  13.539  0.00  0.00    +0.000 A 
ATOM     33  H   UNL     1      50.411   6.962  16.399  0.00  0.00    +0.000 HD
ENDBRANCH  20  23
ENDBRANCH  18  19
ENDBRANCH   4  18
TORSDOF 6
ENDMDL
MODEL 6
REMARK VINA RESULT:    -7.217      4.854      5.547
REMARK INTER + INTRA:         -10.319
REMARK INTER:                  -9.505
REMARK INTRA:                  -0.814
REMARK UNBOUND:                -0.570
REMARK  Name = 
REMARK  6 active torsions:
REMARK  status: ('A' for Active; 'I' for Inactive)
REMARK    1  A    between atoms: C_2  and  C_25
REMARK    2  A    between atoms: N_3  and  C_4
REMARK    3  A    between atoms: C_4  and  C_5
REMARK    4  A    between atoms: C_8  and  C_9
REMARK    5  A    between atoms: C_9  and  N_10
REMARK    6  A    between atoms: C_11  and  C_13
REMARK                            x       y       z     vdW  Elec       q    Type
REMARK                         _______ _______ _______ _____ _____    ______ ____
ROOT
ATOM      1  C   UNL     1      44.555   4.152  12.531  0.00  0.00    +0.000 C 
ATOM      2  C   UNL     1      45.768   4.948  12.017  0.00  0.00    +0.000 C 
ATOM      3  C   UNL     1      45.445   5.861  10.832  0.00  0.00    +0.000 C 
ATOM      4  C   UNL     1      44.238   6.785  11.074  0.00  0.00    +0.000 C 
ATOM      5  C   UNL     1      43.031   5.955  11.536  0.00  0.00    +0.000 C 
ATOM      6  C   UNL     1      43.344   5.075  12.748  0.00  0.00    +0.000 C 
ENDROOT
BRANCH   1   7
ATOM      7  C   UNL     1      44.186   2.971  11.613  0.00  0.00    +0.000 C 
BRANCH   7  10
ATOM      8  O   UNL     1      43.742   1.515   9.212  0.00  0.00    +0.000 OA
ATOM      9  C   UNL     1      44.822   2.071   9.392  0.00  0.00    +0.000 C 
ATOM     10  N   UNL     1      45.121   2.794  10.525  0.00  0.00    +0.000 N 
ATOM     11  H   UNL     1      46.050   3.205  10.564  0.00  0.00    +0.000 HD
BRANCH   9  12
ATOM     12  C   UNL     1      45.893   2.042   8.415  0.00  0.00    +0.000 A 
ATOM     13  N   UNL     1      46.561   0.963   8.036  0.00  0.00    +0.000 NA
ATOM     14  C   UNL     1      47.484   1.409   7.122  0.00  0.00    +0.000 A 
ATOM     15  C   UNL     1      47.387   2.770   6.951  0.00  0.00    +0.000 A 
ATOM     16  N   UNL     1      46.360   3.157   7.764  0.00  0.00    +0.000 N 
ATOM     17  H   UNL     1      45.999   4.090   7.904  0.00  0.00    +0.000 HD
ENDBRANCH   9  12
ENDBRANCH   7  10
ENDBRANCH   1   7
BRANCH   4  18
ATOM     18  C   UNL     1      44.525   7.920  12.069  0.00  0.00    +0.000 C 
BRANCH  18  19
ATOM     19  N   UNL     1      45.731   8.654  11.763  0.00  0.00    +0.000 N 
ATOM     20  C   UNL     1      46.794   8.773  12.617  0.00  0.00    +0.000 C 
ATOM     21  O   UNL     1      46.761   8.387  13.782  0.00  0.00    +0.000 OA
ATOM     22  H   UNL     1      45.848   8.914  10.793  0.00  0.00    +0.000 HD
BRANCH  20  23
ATOM     23  C   UNL     1      47.978   9.434  12.054  0.00  0.00    +0.000 A 
ATOM     24  C   UNL     1      47.908  10.749  11.620  0.00  0.00    +0.000 A 
ATOM     25  S   UNL     1      49.384  11.337  10.993  0.00  0.00    +0.000 S 
ATOM     26  C   UNL     1      50.181   9.872  11.333  0.00  0.00    +0.000 A 
ATOM     27  N   UNL     1      51.507   9.715  11.070  0.00  0.00    +0.000 NA
ATOM     28  C   UNL     1      51.991   8.570  11.421  0.00  0.00    +0.000 A 
ATOM     29  N   UNL     1      51.267   7.561  11.999  0.00  0.00    +0.000 N 
ATOM     30  C   UNL     1      49.913   7.646  12.210  0.00  0.00    +0.000 A 
ATOM     31  O   UNL     1      49.274   6.672  12.598  0.00  0.00    +0.000 OA
ATOM     32  C   UNL     1      49.326   8.934  11.883  0.00  0.00    +0.000 A 
ATOM     33  H   UNL     1      51.695   6.676  12.225  0.00  0.00    +0.000 HD
ENDBRANCH  20  23
ENDBRANCH  18  19
ENDBRANCH   4  18
TORSDOF 6
ENDMDL
MODEL 7
REMARK VINA RESULT:    -7.217      3.586      4.458
REMARK INTER + INTRA:         -10.319
REMARK INTER:                  -9.189
REMARK INTRA:                  -1.130
REMARK UNBOUND:                -0.570
REMARK  Name = 
REMARK  6 active torsions:
REMARK  status: ('A' for Active; 'I' for Inactive)
REMARK    1  A    between atoms: C_2  and  C_25
REMARK    2  A    between atoms: N_3  and  C_4
REMARK    3  A    between atoms: C_4  and  C_5
REMARK    4  A    between atoms: C_8  and  C_9
REMARK    5  A    between atoms: C_9  and  N_10
REMARK    6  A    between atoms: C_11  and  C_13
REMARK                            x       y       z     vdW  Elec       q    Type
REMARK                         _______ _______ _______ _____ _____    ______ ____
ROOT
ATOM      1  C   UNL     1      44.071   4.656  11.325  0.00  0.00    +0.000 C 
ATOM      2  C   UNL     1      45.581   4.640  11.621  0.00  0.00    +0.000 C 
ATOM      3  C   UNL     1      46.297   5.935  11.232  0.00  0.00    +0.000 C 
ATOM      4  C   UNL     1      45.635   7.202  11.801  0.00  0.00    +0.000 C 
ATOM      5  C   UNL     1      44.141   7.215  11.445  0.00  0.00    +0.000 C 
ATOM      6  C   UNL     1      43.417   5.937  11.874  0.00  0.00    +0.000 C 
ENDROOT
BRANCH   1   7
ATOM      7  C   UNL     1      43.756   4.480   9.827  0.00  0.00    +0.000 C 
BRANCH   7  10
ATOM      8  O   UNL     1      45.929   4.894   8.040  0.00  0.00    +0.000 OA
ATOM      9  C   UNL     1      45.605   3.749   8.346  0.00  0.00    +0.000 C 
ATOM     10  N   UNL     1      44.566   3.459   9.201  0.00  0.00    +0.000 N 
ATOM     11  H   UNL     1      44.389   2.474   9.375  0.00  0.00    +0.000 HD
BRANCH   9  12
ATOM     12  C   UNL     1      46.302   2.579   7.851  0.00  0.00    +0.000 A 
ATOM     13  N   UNL     1      47.228   2.576   6.904  0.00  0.00    +0.000 NA
ATOM     14  C   UNL     1      47.587   1.259   6.750  0.00  0.00    +0.000 A 
ATOM     15  C   UNL     1      46.868   0.452   7.599  0.00  0.00    +0.000 A 
ATOM     16  N   UNL     1      46.069   1.304   8.306  0.00  0.00    +0.000 N 
ATOM     17  H   UNL     1      45.397   1.071   9.025  0.00  0.00    +0.000 HD
ENDBRANCH   9  12
ENDBRANCH   7  10
ENDBRANCH   1   7
BRANCH   4  18
ATOM     18  C   UNL     1      45.829   7.368  13.316  0.00  0.00    +0.000 C 
BRANCH  18  19
ATOM     19  N   UNL     1      47.185   7.706  13.683  0.00  0.00    +0.000 N 
ATOM     20  C   UNL     1      48.108   6.800  14.130  0.00  0.00    +0.000 C 
ATOM     21  O   UNL     1      47.824   5.636  14.398  0.00  0.00    +0.000 OA
ATOM     22  H   UNL     1      47.496   8.626  13.399  0.00  0.00    +0.000 HD
BRANCH  20  23
ATOM     23  C   UNL     1      49.468   7.325  14.304  0.00  0.00    +0.000 A 
ATOM     24  C   UNL     1      50.138   7.153  15.506  0.00  0.00    +0.000 A 
ATOM     25  S   UNL     1      51.703   7.838  15.515  0.00  0.00    +0.000 S 
ATOM     26  C   UNL     1      51.559   8.337  13.894  0.00  0.00    +0.000 A 
ATOM     27  N   UNL     1      52.583   8.967  13.258  0.00  0.00    +0.000 NA
ATOM     28  C   UNL     1      52.354   9.248  12.019  0.00  0.00    +0.000 A 
ATOM     29  N   UNL     1      51.187   8.968  11.359  0.00  0.00    +0.000 N 
ATOM     30  C   UNL     1      50.100   8.405  11.980  0.00  0.00    +0.000 A 
ATOM     31  O   UNL     1      49.025   8.299  11.396  0.00  0.00    +0.000 OA
ATOM     32  C   UNL     1      50.322   8.020  13.363  0.00  0.00    +0.000 A 
ATOM     33  H   UNL     1      51.055   9.238  10.396  0.00  0.00    +0.000 HD
ENDBRANCH  20  23
ENDBRANCH  18  19
ENDBRANCH   4  18
TORSDOF 6
ENDMDL
MODEL 8
REMARK VINA RESULT:    -7.110      1.622      2.443
REMARK INTER + INTRA:         -10.175
REMARK INTER:                  -9.426
REMARK INTRA:                  -0.749
REMARK UNBOUND:                -0.570
REMARK  Name = 
REMARK  6 active torsions:
REMARK  status: ('A' for Active; 'I' for Inactive)
REMARK    1  A    between atoms: C_2  and  C_25
REMARK    2  A    between atoms: N_3  and  C_4
REMARK    3  A    between atoms: C_4  and  C_5
REMARK    4  A    between atoms: C_8  and  C_9
REMARK    5  A    between atoms: C_9  and  N_10
REMARK    6  A    between atoms: C_11  and  C_13
REMARK                            x       y       z     vdW  Elec       q    Type
REMARK                         _______ _______ _______ _____ _____    ______ ____
ROOT
ATOM      1  C   UNL     1      44.200   4.372  12.162  0.00  0.00    +0.000 C 
ATOM      2  C   UNL     1      45.090   3.200  12.612  0.00  0.00    +0.000 C 
ATOM      3  C   UNL     1      46.562   3.578  12.785  0.00  0.00    +0.000 C 
ATOM      4  C   UNL     1      46.782   4.813  13.677  0.00  0.00    +0.000 C 
ATOM      5  C   UNL     1      45.920   5.980  13.172  0.00  0.00    +0.000 C 
ATOM      6  C   UNL     1      44.440   5.612  13.040  0.00  0.00    +0.000 C 
ENDROOT
BRANCH   1   7
ATOM      7  C   UNL     1      44.376   4.715  10.670  0.00  0.00    +0.000 C 
BRANCH   7  10
ATOM      8  O   UNL     1      45.686   4.939   8.157  0.00  0.00    +0.000 OA
ATOM      9  C   UNL     1      45.609   3.842   8.704  0.00  0.00    +0.000 C 
ATOM     10  N   UNL     1      44.992   3.644   9.919  0.00  0.00    +0.000 N 
ATOM     11  H   UNL     1      44.985   2.690  10.270  0.00  0.00    +0.000 HD
BRANCH   9  12
ATOM     12  C   UNL     1      46.183   2.639   8.135  0.00  0.00    +0.000 A 
ATOM     13  N   UNL     1      45.911   1.400   8.515  0.00  0.00    +0.000 NA
ATOM     14  C   UNL     1      46.693   0.596   7.722  0.00  0.00    +0.000 A 
ATOM     15  C   UNL     1      47.456   1.349   6.861  0.00  0.00    +0.000 A 
ATOM     16  N   UNL     1      47.109   2.644   7.120  0.00  0.00    +0.000 N 
ATOM     17  H   UNL     1      47.467   3.481   6.682  0.00  0.00    +0.000 HD
ENDBRANCH   9  12
ENDBRANCH   7  10
ENDBRANCH   1   7
BRANCH   4  18
ATOM     18  C   UNL     1      46.513   4.549  15.166  0.00  0.00    +0.000 C 
BRANCH  18  19
ATOM     19  N   UNL     1      47.676   4.753  15.999  0.00  0.00    +0.000 N 
ATOM     20  C   UNL     1      48.087   3.879  16.969  0.00  0.00    +0.000 C 
ATOM     21  O   UNL     1      47.422   2.909  17.319  0.00  0.00    +0.000 OA
ATOM     22  H   UNL     1      48.306   5.484  15.696  0.00  0.00    +0.000 HD
BRANCH  20  23
ATOM     23  C   UNL     1      49.376   4.201  17.596  0.00  0.00    +0.000 A 
ATOM     24  C   UNL     1      50.452   3.336  17.472  0.00  0.00    +0.000 A 
ATOM     25  S   UNL     1      51.858   3.881  18.274  0.00  0.00    +0.000 S 
ATOM     26  C   UNL     1      51.092   5.320  18.765  0.00  0.00    +0.000 A 
ATOM     27  N   UNL     1      51.763   6.268  19.473  0.00  0.00    +0.000 NA
ATOM     28  C   UNL     1      51.074   7.327  19.739  0.00  0.00    +0.000 A 
ATOM     29  N   UNL     1      49.768   7.520  19.373  0.00  0.00    +0.000 N 
ATOM     30  C   UNL     1      49.029   6.561  18.727  0.00  0.00    +0.000 A 
ATOM     31  O   UNL     1      47.825   6.712  18.541  0.00  0.00    +0.000 OA
ATOM     32  C   UNL     1      49.772   5.368  18.356  0.00  0.00    +0.000 A 
ATOM     33  H   UNL     1      49.272   8.359  19.635  0.00  0.00    +0.000 HD
ENDBRANCH  20  23
ENDBRANCH  18  19
ENDBRANCH   4  18
TORSDOF 6
ENDMDL
MODEL 9
REMARK VINA RESULT:    -7.080      1.964      2.542
REMARK INTER + INTRA:         -10.134
REMARK INTER:                  -9.463
REMARK INTRA:                  -0.671
REMARK UNBOUND:                -0.570
REMARK  Name = 
REMARK  6 active torsions:
REMARK  status: ('A' for Active; 'I' for Inactive)
REMARK    1  A    between atoms: C_2  and  C_25
REMARK    2  A    between atoms: N_3  and  C_4
REMARK    3  A    between atoms: C_4  and  C_5
REMARK    4  A    between atoms: C_8  and  C_9
REMARK    5  A    between atoms: C_9  and  N_10
REMARK    6  A    between atoms: C_11  and  C_13
REMARK                            x       y       z     vdW  Elec       q    Type
REMARK                         _______ _______ _______ _____ _____    ______ ____
ROOT
ATOM      1  C   UNL     1      45.448   7.074  12.701  0.00  0.00    +0.000 C 
ATOM      2  C   UNL     1      46.126   5.802  13.237  0.00  0.00    +0.000 C 
ATOM      3  C   UNL     1      47.652   5.829  13.133  0.00  0.00    +0.000 C 
ATOM      4  C   UNL     1      48.291   7.092  13.736  0.00  0.00    +0.000 C 
ATOM      5  C   UNL     1      47.628   8.344  13.143  0.00  0.00    +0.000 C 
ATOM      6  C   UNL     1      46.105   8.336  13.287  0.00  0.00    +0.000 C 
ENDROOT
BRANCH   1   7
ATOM      7  C   UNL     1      45.427   7.134  11.161  0.00  0.00    +0.000 C 
BRANCH   7  10
ATOM      8  O   UNL     1      43.219   5.445  10.560  0.00  0.00    +0.000 OA
ATOM      9  C   UNL     1      44.359   5.072  10.291  0.00  0.00    +0.000 C 
ATOM     10  N   UNL     1      45.482   5.824  10.550  0.00  0.00    +0.000 N 
ATOM     11  H   UNL     1      46.372   5.409  10.288  0.00  0.00    +0.000 HD
BRANCH   9  12
ATOM     12  C   UNL     1      44.637   3.802   9.651  0.00  0.00    +0.000 A 
ATOM     13  N   UNL     1      44.039   2.652   9.925  0.00  0.00    +0.000 NA
ATOM     14  C   UNL     1      44.632   1.728   9.100  0.00  0.00    +0.000 A 
ATOM     15  C   UNL     1      45.606   2.313   8.327  0.00  0.00    +0.000 A 
ATOM     16  N   UNL     1      45.587   3.634   8.673  0.00  0.00    +0.000 N 
ATOM     17  H   UNL     1      46.169   4.378   8.312  0.00  0.00    +0.000 HD
ENDBRANCH   9  12
ENDBRANCH   7  10
ENDBRANCH   1   7
BRANCH   4  18
ATOM     18  C   UNL     1      48.240   7.132  15.271  0.00  0.00    +0.000 C 
BRANCH  18  19
ATOM     19  N   UNL     1      49.377   6.495  15.895  0.00  0.00    +0.000 N 
ATOM     20  C   UNL     1      49.298   5.705  17.010  0.00  0.00    +0.000 C 
ATOM     21  O   UNL     1      48.270   5.581  17.668  0.00  0.00    +0.000 OA
ATOM     22  H   UNL     1      50.228   6.490  15.347  0.00  0.00    +0.000 HD
BRANCH  20  23
ATOM     23  C   UNL     1      50.548   5.035  17.392  0.00  0.00    +0.000 A 
ATOM     24  C   UNL     1      51.616   5.770  17.883  0.00  0.00    +0.000 A 
ATOM     25  S   UNL     1      52.979   4.815  18.266  0.00  0.00    +0.000 S 
ATOM     26  C   UNL     1      52.167   3.380  17.841  0.00  0.00    +0.000 A 
ATOM     27  N   UNL     1      52.769   2.167  17.969  0.00  0.00    +0.000 NA
ATOM     28  C   UNL     1      52.022   1.161  17.655  0.00  0.00    +0.000 A 
ATOM     29  N   UNL     1      50.731   1.259  17.209  0.00  0.00    +0.000 N 
ATOM     30  C   UNL     1      50.110   2.464  16.989  0.00  0.00    +0.000 A 
ATOM     31  O   UNL     1      49.006   2.515  16.456  0.00  0.00    +0.000 OA
ATOM     32  C   UNL     1      50.888   3.628  17.379  0.00  0.00    +0.000 A 
ATOM     33  H   UNL     1      50.205   0.437  16.950  0.00  0.00    +0.000 HD
ENDBRANCH  20  23
ENDBRANCH  18  19
ENDBRANCH   4  18
TORSDOF 6
ENDMDL
