MODEL 1
REMARK VINA RESULT:    -8.393      0.000      0.000
REMARK INTER + INTRA:         -12.702
REMARK INTER:                 -11.583
REMARK INTRA:                  -1.119
REMARK UNBOUND:                -1.119
REMARK  Name = 
REMARK  7 active torsions:
REMARK  status: ('A' for Active; 'I' for Inactive)
REMARK    1  A    between atoms: C_2  and  C_20
REMARK    2  A    between atoms: N_3  and  C_4
REMARK    3  A    between atoms: C_4  and  C_5
REMARK    4  A    between atoms: C_8  and  C_9
REMARK    5  A    between atoms: C_9  and  O_10
REMARK    6  A    between atoms: C_9  and  C_11
REMARK    7  A    between atoms: C_11  and  C_12
REMARK                            x       y       z     vdW  Elec       q    Type
REMARK                         _______ _______ _______ _____ _____    ______ ____
ROOT
ATOM      1  C   UNL     1      46.817   7.704  13.223  0.00  0.00    +0.000 C 
ENDROOT
BRANCH   1   2
ATOM      2  C   UNL     1      46.206   6.646  12.352  0.00  0.00    +0.000 A 
ATOM      3  C   UNL     1      46.480   6.623  10.987  0.00  0.00    +0.000 A 
ATOM      4  N   UNL     1      46.014   5.660  10.153  0.00  0.00    +0.000 NA
ATOM      5  C   UNL     1      45.272   4.686  10.745  0.00  0.00    +0.000 A 
ATOM      6  C   UNL     1      45.000   4.713  12.111  0.00  0.00    +0.000 A 
ATOM      7  N   UNL     1      45.457   5.678  12.941  0.00  0.00    +0.000 NA
BRANCH   5   8
ATOM      8  C   UNL     1      44.751   3.552   9.892  0.00  0.00    +0.000 C 
BRANCH   8   9
ATOM      9  O   UNL     1      43.411   3.229  10.264  0.00  0.00    +0.000 OA
ATOM     10  H   UNL     1      43.429   3.110  11.233  0.00  0.00    +0.000 HD
ENDBRANCH   8   9
BRANCH   8  11
ATOM     11  C   UNL     1      44.790   3.891   8.393  0.00  0.00    +0.000 C 
BRANCH  11  12
ATOM     12  C   UNL     1      45.544   2.847   7.542  0.00  0.00    +0.000 C 
ATOM     13  C   UNL     1      46.014   1.646   8.376  0.00  0.00    +0.000 C 
ATOM     14  C   UNL     1      46.918   0.727   7.566  0.00  0.00    +0.000 C 
ATOM     15  O   UNL     1      48.020   1.448   7.024  0.00  0.00    +0.000 OA
ATOM     16  C   UNL     1      47.595   2.468   6.122  0.00  0.00    +0.000 C 
ATOM     17  C   UNL     1      46.747   3.504   6.848  0.00  0.00    +0.000 C 
ENDBRANCH  11  12
ENDBRANCH   8  11
ENDBRANCH   5   8
ENDBRANCH   1   2
BRANCH   1  20
ATOM     18  O   UNL     1      49.378   6.661  13.647  0.00  0.00    +0.000 OA
ATOM     19  C   UNL     1      48.593   6.697  14.590  0.00  0.00    +0.000 C 
ATOM     20  N   UNL     1      47.304   7.142  14.451  0.00  0.00    +0.000 N 
ATOM     21  H   UNL     1      46.695   7.237  15.258  0.00  0.00    +0.000 HD
BRANCH  19  22
ATOM     22  C   UNL     1      48.962   6.249  15.928  0.00  0.00    +0.000 A 
ATOM     23  C   UNL     1      49.844   6.973  16.718  0.00  0.00    +0.000 A 
ATOM     24  S   UNL     1      50.108   6.254  18.247  0.00  0.00    +0.000 S 
ATOM     25  C   UNL     1      49.035   4.979  17.898  0.00  0.00    +0.000 A 
ATOM     26  N   UNL     1      48.783   3.990  18.798  0.00  0.00    +0.000 NA
ATOM     27  C   UNL     1      47.927   3.111  18.396  0.00  0.00    +0.000 A 
ATOM     28  N   UNL     1      47.292   3.124  17.181  0.00  0.00    +0.000 N 
ATOM     29  C   UNL     1      47.554   4.060  16.218  0.00  0.00    +0.000 A 
ATOM     30  O   UNL     1      47.056   3.959  15.111  0.00  0.00    +0.000 OA
ATOM     31  C   UNL     1      48.493   5.090  16.630  0.00  0.00    +0.000 A 
ATOM     32  H   UNL     1      46.659   2.388  16.909  0.00  0.00    +0.000 HD
ENDBRANCH  19  22
ENDBRANCH   1  20
TORSDOF 7
ENDMDL
MODEL 2
REMARK VINA RESULT:    -8.042      2.249      3.816
REMARK INTER + INTRA:         -12.217
REMARK INTER:                 -11.160
REMARK INTRA:                  -1.056
REMARK UNBOUND:                -1.119
REMARK  Name = 
REMARK  7 active torsions:
REMARK  status: ('A' for Active; 'I' for Inactive)
REMARK    1  A    between atoms: C_2  and  C_20
REMARK    2  A    between atoms: N_3  and  C_4
REMARK    3  A    between atoms: C_4  and  C_5
REMARK    4  A    between atoms: C_8  and  C_9
REMARK    5  A    between atoms: C_9  and  O_10
REMARK    6  A    between atoms: C_9  and  C_11
REMARK    7  A    between atoms: C_11  and  C_12
REMARK                            x       y       z     vdW  Elec       q    Type
REMARK                         _______ _______ _______ _____ _____    ______ ____
ROOT
ATOM      1  C   UNL     1      46.969   4.878  14.699  0.00  0.00    +0.000 C 
ENDROOT
BRANCH   1   2
ATOM      2  C   UNL     1      46.270   4.644  13.391  0.00  0.00    +0.000 A 
ATOM      3  C   UNL     1      46.186   5.669  12.454  0.00  0.00    +0.000 A 
ATOM      4  N   UNL     1      45.626   5.510  11.228  0.00  0.00    +0.000 NA
ATOM      5  C   UNL     1      45.168   4.259  10.956  0.00  0.00    +0.000 A 
ATOM      6  C   UNL     1      45.253   3.236  11.898  0.00  0.00    +0.000 A 
ATOM      7  N   UNL     1      45.804   3.398  13.123  0.00  0.00    +0.000 NA
BRANCH   5   8
ATOM      8  C   UNL     1      44.568   3.986   9.595  0.00  0.00    +0.000 C 
BRANCH   8   9
ATOM      9  O   UNL     1      43.366   4.738   9.426  0.00  0.00    +0.000 OA
ATOM     10  H   UNL     1      43.333   5.355  10.182  0.00  0.00    +0.000 HD
ENDBRANCH   8   9
BRANCH   8  11
ATOM     11  C   UNL     1      45.541   4.328   8.456  0.00  0.00    +0.000 C 
BRANCH  11  12
ATOM     12  C   UNL     1      45.949   3.107   7.603  0.00  0.00    +0.000 C 
ATOM     13  C   UNL     1      46.076   1.827   8.443  0.00  0.00    +0.000 C 
ATOM     14  C   UNL     1      46.664   0.684   7.629  0.00  0.00    +0.000 C 
ATOM     15  O   UNL     1      47.913   1.058   7.056  0.00  0.00    +0.000 OA
ATOM     16  C   UNL     1      47.777   2.151   6.150  0.00  0.00    +0.000 C 
ATOM     17  C   UNL     1      47.273   3.390   6.879  0.00  0.00    +0.000 C 
ENDBRANCH  11  12
ENDBRANCH   8  11
ENDBRANCH   5   8
ENDBRANCH   1   2
BRANCH   1  20
ATOM     18  O   UNL     1      49.281   5.627  16.084  0.00  0.00    +0.000 OA
ATOM     19  C   UNL     1      48.691   6.474  15.421  0.00  0.00    +0.000 C 
ATOM     20  N   UNL     1      47.522   6.200  14.759  0.00  0.00    +0.000 N 
ATOM     21  H   UNL     1      47.092   6.892  14.153  0.00  0.00    +0.000 HD
BRANCH  19  22
ATOM     22  C   UNL     1      49.174   7.846  15.302  0.00  0.00    +0.000 A 
ATOM     23  C   UNL     1      49.243   8.689  16.402  0.00  0.00    +0.000 A 
ATOM     24  S   UNL     1      49.854  10.238  16.012  0.00  0.00    +0.000 S 
ATOM     25  C   UNL     1      50.063   9.809  14.377  0.00  0.00    +0.000 A 
ATOM     26  N   UNL     1      50.566  10.685  13.467  0.00  0.00    +0.000 NA
ATOM     27  C   UNL     1      50.689  10.202  12.275  0.00  0.00    +0.000 A 
ATOM     28  N   UNL     1      50.362   8.924  11.903  0.00  0.00    +0.000 N 
ATOM     29  C   UNL     1      49.796   8.023  12.764  0.00  0.00    +0.000 A 
ATOM     30  O   UNL     1      49.411   6.943  12.356  0.00  0.00    +0.000 OA
ATOM     31  C   UNL     1      49.660   8.509  14.127  0.00  0.00    +0.000 A 
ATOM     32  H   UNL     1      50.446   8.616  10.947  0.00  0.00    +0.000 HD
ENDBRANCH  19  22
ENDBRANCH   1  20
TORSDOF 7
ENDMDL
MODEL 3
REMARK VINA RESULT:    -7.495      1.674      1.969
REMARK INTER + INTRA:         -11.462
REMARK INTER:                 -10.472
REMARK INTRA:                  -0.990
REMARK UNBOUND:                -1.119
REMARK  Name = 
REMARK  7 active torsions:
REMARK  status: ('A' for Active; 'I' for Inactive)
REMARK    1  A    between atoms: C_2  and  C_20
REMARK    2  A    between atoms: N_3  and  C_4
REMARK    3  A    between atoms: C_4  and  C_5
REMARK    4  A    between atoms: C_8  and  C_9
REMARK    5  A    between atoms: C_9  and  O_10
REMARK    6  A    between atoms: C_9  and  C_11
REMARK    7  A    between atoms: C_11  and  C_12
REMARK                            x       y       z     vdW  Elec       q    Type
REMARK                         _______ _______ _______ _____ _____    ______ ____
ROOT
ATOM      1  C   UNL     1      48.309   6.616  13.844  0.00  0.00    +0.000 C 
ENDROOT
BRANCH   1   2
ATOM      2  C   UNL     1      47.197   5.872  13.164  0.00  0.00    +0.000 A 
ATOM      3  C   UNL     1      46.571   6.420  12.049  0.00  0.00    +0.000 A 
ATOM      4  N   UNL     1      45.604   5.776  11.348  0.00  0.00    +0.000 NA
ATOM      5  C   UNL     1      45.297   4.528  11.794  0.00  0.00    +0.000 A 
ATOM      6  C   UNL     1      45.925   3.983  12.912  0.00  0.00    +0.000 A 
ATOM      7  N   UNL     1      46.883   4.630  13.615  0.00  0.00    +0.000 NA
BRANCH   5   8
ATOM      8  C   UNL     1      44.259   3.725  11.043  0.00  0.00    +0.000 C 
BRANCH   8   9
ATOM      9  O   UNL     1      43.008   3.770  11.729  0.00  0.00    +0.000 OA
ATOM     10  H   UNL     1      42.458   4.406  11.233  0.00  0.00    +0.000 HD
ENDBRANCH   8   9
BRANCH   8  11
ATOM     11  C   UNL     1      44.064   4.232   9.605  0.00  0.00    +0.000 C 
BRANCH  11  12
ATOM     12  C   UNL     1      44.748   3.350   8.539  0.00  0.00    +0.000 C 
ATOM     13  C   UNL     1      45.261   2.025   9.122  0.00  0.00    +0.000 C 
ATOM     14  C   UNL     1      46.098   1.258   8.108  0.00  0.00    +0.000 C 
ATOM     15  O   UNL     1      47.169   2.063   7.623  0.00  0.00    +0.000 OA
ATOM     16  C   UNL     1      46.696   3.222   6.939  0.00  0.00    +0.000 C 
ATOM     17  C   UNL     1      45.909   4.117   7.888  0.00  0.00    +0.000 C 
ENDBRANCH  11  12
ENDBRANCH   8  11
ENDBRANCH   5   8
ENDBRANCH   1   2
BRANCH   1  20
ATOM     18  O   UNL     1      49.892   7.987  15.700  0.00  0.00    +0.000 OA
ATOM     19  C   UNL     1      48.953   7.311  16.111  0.00  0.00    +0.000 C 
ATOM     20  N   UNL     1      48.165   6.568  15.271  0.00  0.00    +0.000 N 
ATOM     21  H   UNL     1      47.347   6.078  15.621  0.00  0.00    +0.000 HD
BRANCH  19  22
ATOM     22  C   UNL     1      48.614   7.229  17.527  0.00  0.00    +0.000 A 
ATOM     23  C   UNL     1      48.083   8.314  18.210  0.00  0.00    +0.000 A 
ATOM     24  S   UNL     1      47.758   7.968  19.853  0.00  0.00    +0.000 S 
ATOM     25  C   UNL     1      48.293   6.361  19.681  0.00  0.00    +0.000 A 
ATOM     26  N   UNL     1      48.278   5.487  20.724  0.00  0.00    +0.000 NA
ATOM     27  C   UNL     1      48.689   4.299  20.428  0.00  0.00    +0.000 A 
ATOM     28  N   UNL     1      49.111   3.895  19.188  0.00  0.00    +0.000 N 
ATOM     29  C   UNL     1      49.204   4.748  18.122  0.00  0.00    +0.000 A 
ATOM     30  O   UNL     1      49.700   4.372  17.076  0.00  0.00    +0.000 OA
ATOM     31  C   UNL     1      48.727   6.093  18.395  0.00  0.00    +0.000 A 
ATOM     32  H   UNL     1      49.457   2.961  19.027  0.00  0.00    +0.000 HD
ENDBRANCH  19  22
ENDBRANCH   1  20
TORSDOF 7
ENDMDL
MODEL 4
REMARK VINA RESULT:    -7.354      2.142      2.848
REMARK INTER + INTRA:         -11.267
REMARK INTER:                 -10.284
REMARK INTRA:                  -0.983
REMARK UNBOUND:                -1.119
REMARK  Name = 
REMARK  7 active torsions:
REMARK  status: ('A' for Active; 'I' for Inactive)
REMARK    1  A    between atoms: C_2  and  C_20
REMARK    2  A    between atoms: N_3  and  C_4
REMARK    3  A    between atoms: C_4  and  C_5
REMARK    4  A    between atoms: C_8  and  C_9
REMARK    5  A    between atoms: C_9  and  O_10
REMARK    6  A    between atoms: C_9  and  C_11
REMARK    7  A    between atoms: C_11  and  C_12
REMARK                            x       y       z     vdW  Elec       q    Type
REMARK                         _______ _______ _______ _____ _____    ______ ____
ROOT
ATOM      1  C   UNL     1      47.679   6.907  13.634  0.00  0.00    +0.000 C 
ENDROOT
BRANCH   1   2
ATOM      2  C   UNL     1      46.723   5.936  13.003  0.00  0.00    +0.000 A 
ATOM      3  C   UNL     1      45.897   6.348  11.962  0.00  0.00    +0.000 A 
ATOM      4  N   UNL     1      45.057   5.510  11.305  0.00  0.00    +0.000 NA
ATOM      5  C   UNL     1      45.091   4.213  11.714  0.00  0.00    +0.000 A 
ATOM      6  C   UNL     1      45.919   3.805  12.757  0.00  0.00    +0.000 A 
ATOM      7  N   UNL     1      46.750   4.643  13.418  0.00  0.00    +0.000 NA
BRANCH   5   8
ATOM      8  C   UNL     1      44.216   3.205  11.004  0.00  0.00    +0.000 C 
BRANCH   8   9
ATOM      9  O   UNL     1      42.860   3.343  11.428  0.00  0.00    +0.000 OA
ATOM     10  H   UNL     1      42.370   3.656  10.644  0.00  0.00    +0.000 HD
ENDBRANCH   8   9
BRANCH   8  11
ATOM     11  C   UNL     1      44.285   3.355   9.476  0.00  0.00    +0.000 C 
BRANCH  11  12
ATOM     12  C   UNL     1      45.604   2.839   8.862  0.00  0.00    +0.000 C 
ATOM     13  C   UNL     1      46.005   3.624   7.604  0.00  0.00    +0.000 C 
ATOM     14  C   UNL     1      47.195   2.982   6.904  0.00  0.00    +0.000 C 
ATOM     15  O   UNL     1      46.931   1.615   6.604  0.00  0.00    +0.000 OA
ATOM     16  C   UNL     1      46.711   0.844   7.784  0.00  0.00    +0.000 C 
ATOM     17  C   UNL     1      45.479   1.345   8.528  0.00  0.00    +0.000 C 
ENDBRANCH  11  12
ENDBRANCH   8  11
ENDBRANCH   5   8
ENDBRANCH   1   2
BRANCH   1  20
ATOM     18  O   UNL     1      50.042   6.677  15.114  0.00  0.00    +0.000 OA
ATOM     19  C   UNL     1      48.968   6.645  15.709  0.00  0.00    +0.000 C 
ATOM     20  N   UNL     1      47.766   6.697  15.051  0.00  0.00    +0.000 N 
ATOM     21  H   UNL     1      46.892   6.748  15.565  0.00  0.00    +0.000 HD
BRANCH  19  22
ATOM     22  C   UNL     1      48.885   6.529  17.161  0.00  0.00    +0.000 A 
ATOM     23  C   UNL     1      49.273   5.371  17.819  0.00  0.00    +0.000 A 
ATOM     24  S   UNL     1      49.096   5.482  19.516  0.00  0.00    +0.000 S 
ATOM     25  C   UNL     1      48.523   7.082  19.410  0.00  0.00    +0.000 A 
ATOM     26  N   UNL     1      48.182   7.795  20.518  0.00  0.00    +0.000 NA
ATOM     27  C   UNL     1      47.791   9.001  20.275  0.00  0.00    +0.000 A 
ATOM     28  N   UNL     1      47.711   9.570  19.030  0.00  0.00    +0.000 N 
ATOM     29  C   UNL     1      47.983   8.879  17.881  0.00  0.00    +0.000 A 
ATOM     30  O   UNL     1      47.779   9.390  16.795  0.00  0.00    +0.000 OA
ATOM     31  C   UNL     1      48.454   7.522  18.100  0.00  0.00    +0.000 A 
ATOM     32  H   UNL     1      47.362  10.507  18.900  0.00  0.00    +0.000 HD
ENDBRANCH  19  22
ENDBRANCH   1  20
TORSDOF 7
ENDMDL
MODEL 5
REMARK VINA RESULT:    -6.906      3.221      4.223
REMARK INTER + INTRA:         -10.649
REMARK INTER:                  -9.654
REMARK INTRA:                  -0.994
REMARK UNBOUND:                -1.119
REMARK  Name = 
REMARK  7 active torsions:
REMARK  status: ('A' for Active; 'I' for Inactive)
REMARK    1  A    between atoms: C_2  and  C_20
REMARK    2  A    between atoms: N_3  and  C_4
REMARK    3  A    between atoms: C_4  and  C_5
REMARK    4  A    between atoms: C_8  and  C_9
REMARK    5  A    between atoms: C_9  and  O_10
REMARK    6  A    between atoms: C_9  and  C_11
REMARK    7  A    between atoms: C_11  and  C_12
REMARK                            x       y       z     vdW  Elec       q    Type
REMARK                         _______ _______ _______ _____ _____    ______ ____
ROOT
ATOM      1  C   UNL     1      46.889   7.603  13.429  0.00  0.00    +0.000 C 
ENDROOT
BRANCH   1   2
ATOM      2  C   UNL     1      46.254   6.526  12.599  0.00  0.00    +0.000 A 
ATOM      3  C   UNL     1      46.209   6.649  11.213  0.00  0.00    +0.000 A 
ATOM      4  N   UNL     1      45.708   5.686  10.398  0.00  0.00    +0.000 NA
ATOM      5  C   UNL     1      45.270   4.562  11.027  0.00  0.00    +0.000 A 
ATOM      6  C   UNL     1      45.316   4.444  12.414  0.00  0.00    +0.000 A 
ATOM      7  N   UNL     1      45.808   5.408  13.226  0.00  0.00    +0.000 NA
BRANCH   5   8
ATOM      8  C   UNL     1      44.736   3.424  10.187  0.00  0.00    +0.000 C 
BRANCH   8   9
ATOM      9  O   UNL     1      43.454   3.017  10.665  0.00  0.00    +0.000 OA
ATOM     10  H   UNL     1      43.571   2.843  11.619  0.00  0.00    +0.000 HD
ENDBRANCH   8   9
BRANCH   8  11
ATOM     11  C   UNL     1      44.623   3.804   8.702  0.00  0.00    +0.000 C 
BRANCH  11  12
ATOM     12  C   UNL     1      45.440   2.887   7.765  0.00  0.00    +0.000 C 
ATOM     13  C   UNL     1      45.887   1.594   8.462  0.00  0.00    +0.000 C 
ATOM     14  C   UNL     1      46.848   0.797   7.591  0.00  0.00    +0.000 C 
ATOM     15  O   UNL     1      47.965   1.595   7.207  0.00  0.00    +0.000 OA
ATOM     16  C   UNL     1      47.570   2.719   6.423  0.00  0.00    +0.000 C 
ATOM     17  C   UNL     1      46.666   3.642   7.230  0.00  0.00    +0.000 C 
ENDBRANCH  11  12
ENDBRANCH   8  11
ENDBRANCH   5   8
ENDBRANCH   1   2
BRANCH   1  20
ATOM     18  O   UNL     1      47.964  10.145  12.969  0.00  0.00    +0.000 OA
ATOM     19  C   UNL     1      48.687   9.163  12.823  0.00  0.00    +0.000 C 
ATOM     20  N   UNL     1      48.222   7.883  12.976  0.00  0.00    +0.000 N 
ATOM     21  H   UNL     1      48.853   7.089  12.928  0.00  0.00    +0.000 HD
BRANCH  19  22
ATOM     22  C   UNL     1      50.094   9.281  12.456  0.00  0.00    +0.000 A 
ATOM     23  C   UNL     1      50.494   9.997  11.336  0.00  0.00    +0.000 A 
ATOM     24  S   UNL     1      52.191  10.000  11.123  0.00  0.00    +0.000 S 
ATOM     25  C   UNL     1      52.428   9.071  12.530  0.00  0.00    +0.000 A 
ATOM     26  N   UNL     1      53.672   8.711  12.948  0.00  0.00    +0.000 NA
ATOM     27  C   UNL     1      53.688   8.030  14.046  0.00  0.00    +0.000 A 
ATOM     28  N   UNL     1      52.581   7.677  14.773  0.00  0.00    +0.000 N 
ATOM     29  C   UNL     1      51.306   7.961  14.366  0.00  0.00    +0.000 A 
ATOM     30  O   UNL     1      50.352   7.520  14.981  0.00  0.00    +0.000 OA
ATOM     31  C   UNL     1      51.232   8.750  13.148  0.00  0.00    +0.000 A 
ATOM     32  H   UNL     1      52.655   7.112  15.605  0.00  0.00    +0.000 HD
ENDBRANCH  19  22
ENDBRANCH   1  20
TORSDOF 7
ENDMDL
MODEL 6
REMARK VINA RESULT:    -6.898      3.767      8.415
REMARK INTER + INTRA:         -10.638
REMARK INTER:                  -9.662
REMARK INTRA:                  -0.976
REMARK UNBOUND:                -1.119
REMARK  Name = 
REMARK  7 active torsions:
REMARK  status: ('A' for Active; 'I' for Inactive)
REMARK    1  A    between atoms: C_2  and  C_20
REMARK    2  A    between atoms: N_3  and  C_4
REMARK    3  A    between atoms: C_4  and  C_5
REMARK    4  A    between atoms: C_8  and  C_9
REMARK    5  A    between atoms: C_9  and  O_10
REMARK    6  A    between atoms: C_9  and  C_11
REMARK    7  A    between atoms: C_11  and  C_12
REMARK                            x       y       z     vdW  Elec       q    Type
REMARK                         _______ _______ _______ _____ _____    ______ ____
ROOT
ATOM      1  C   UNL     1      48.228   7.637  14.470  0.00  0.00    +0.000 C 
ENDROOT
BRANCH   1   2
ATOM      2  C   UNL     1      48.751   6.552  15.365  0.00  0.00    +0.000 A 
ATOM      3  C   UNL     1      50.031   6.649  15.904  0.00  0.00    +0.000 A 
ATOM      4  N   UNL     1      50.543   5.738  16.770  0.00  0.00    +0.000 NA
ATOM      5  C   UNL     1      49.705   4.720  17.106  0.00  0.00    +0.000 A 
ATOM      6  C   UNL     1      48.425   4.627  16.564  0.00  0.00    +0.000 A 
ATOM      7  N   UNL     1      47.919   5.531  15.694  0.00  0.00    +0.000 NA
BRANCH   5   8
ATOM      8  C   UNL     1      50.184   3.686  18.099  0.00  0.00    +0.000 C 
BRANCH   8   9
ATOM      9  O   UNL     1      49.131   3.343  19.001  0.00  0.00    +0.000 OA
ATOM     10  H   UNL     1      49.452   2.564  19.496  0.00  0.00    +0.000 HD
ENDBRANCH   8   9
BRANCH   8  11
ATOM     11  C   UNL     1      50.690   2.411  17.407  0.00  0.00    +0.000 C 
BRANCH  11  12
ATOM     12  C   UNL     1      52.203   2.165  17.592  0.00  0.00    +0.000 C 
ATOM     13  C   UNL     1      52.528   0.682  17.820  0.00  0.00    +0.000 C 
ATOM     14  C   UNL     1      53.991   0.484  18.192  0.00  0.00    +0.000 C 
ATOM     15  O   UNL     1      54.338   1.273  19.326  0.00  0.00    +0.000 OA
ATOM     16  C   UNL     1      54.187   2.668  19.068  0.00  0.00    +0.000 C 
ATOM     17  C   UNL     1      52.732   3.002  18.767  0.00  0.00    +0.000 C 
ENDBRANCH  11  12
ENDBRANCH   8  11
ENDBRANCH   5   8
ENDBRANCH   1   2
BRANCH   1  20
ATOM     18  O   UNL     1      47.879   6.785  11.828  0.00  0.00    +0.000 OA
ATOM     19  C   UNL     1      46.906   6.798  12.577  0.00  0.00    +0.000 C 
ATOM     20  N   UNL     1      46.983   7.253  13.868  0.00  0.00    +0.000 N 
ATOM     21  H   UNL     1      46.187   7.183  14.494  0.00  0.00    +0.000 HD
BRANCH  19  22
ATOM     22  C   UNL     1      45.586   6.351  12.146  0.00  0.00    +0.000 A 
ATOM     23  C   UNL     1      44.669   7.229  11.587  0.00  0.00    +0.000 A 
ATOM     24  S   UNL     1      43.202   6.466  11.151  0.00  0.00    +0.000 S 
ATOM     25  C   UNL     1      43.768   4.948  11.674  0.00  0.00    +0.000 A 
ATOM     26  N   UNL     1      43.001   3.828  11.580  0.00  0.00    +0.000 NA
ATOM     27  C   UNL     1      43.580   2.750  11.993  0.00  0.00    +0.000 A 
ATOM     28  N   UNL     1      44.856   2.680  12.489  0.00  0.00    +0.000 N 
ATOM     29  C   UNL     1      45.646   3.784  12.662  0.00  0.00    +0.000 A 
ATOM     30  O   UNL     1      46.724   3.686  13.219  0.00  0.00    +0.000 OA
ATOM     31  C   UNL     1      45.050   5.021  12.187  0.00  0.00    +0.000 A 
ATOM     32  H   UNL     1      45.242   1.813  12.831  0.00  0.00    +0.000 HD
ENDBRANCH  19  22
ENDBRANCH   1  20
TORSDOF 7
ENDMDL
MODEL 7
REMARK VINA RESULT:    -6.841      1.931      3.262
REMARK INTER + INTRA:         -10.560
REMARK INTER:                  -9.846
REMARK INTRA:                  -0.714
REMARK UNBOUND:                -1.119
REMARK  Name = 
REMARK  7 active torsions:
REMARK  status: ('A' for Active; 'I' for Inactive)
REMARK    1  A    between atoms: C_2  and  C_20
REMARK    2  A    between atoms: N_3  and  C_4
REMARK    3  A    between atoms: C_4  and  C_5
REMARK    4  A    between atoms: C_8  and  C_9
REMARK    5  A    between atoms: C_9  and  O_10
REMARK    6  A    between atoms: C_9  and  C_11
REMARK    7  A    between atoms: C_11  and  C_12
REMARK                            x       y       z     vdW  Elec       q    Type
REMARK                         _______ _______ _______ _____ _____    ______ ____
ROOT
ATOM      1  C   UNL     1      46.280   4.220  15.009  0.00  0.00    +0.000 C 
ENDROOT
BRANCH   1   2
ATOM      2  C   UNL     1      45.855   4.435  13.586  0.00  0.00    +0.000 A 
ATOM      3  C   UNL     1      46.464   5.423  12.818  0.00  0.00    +0.000 A 
ATOM      4  N   UNL     1      46.175   5.630  11.509  0.00  0.00    +0.000 NA
ATOM      5  C   UNL     1      45.257   4.780  10.974  0.00  0.00    +0.000 A 
ATOM      6  C   UNL     1      44.649   3.792  11.747  0.00  0.00    +0.000 A 
ATOM      7  N   UNL     1      44.932   3.592  13.055  0.00  0.00    +0.000 NA
BRANCH   5   8
ATOM      8  C   UNL     1      44.910   4.915   9.509  0.00  0.00    +0.000 C 
BRANCH   8   9
ATOM      9  O   UNL     1      45.948   5.610   8.818  0.00  0.00    +0.000 OA
ATOM     10  H   UNL     1      45.494   6.186   8.173  0.00  0.00    +0.000 HD
ENDBRANCH   8   9
BRANCH   8  11
ATOM     11  C   UNL     1      44.684   3.550   8.840  0.00  0.00    +0.000 C 
BRANCH  11  12
ATOM     12  C   UNL     1      45.961   2.951   8.211  0.00  0.00    +0.000 C 
ATOM     13  C   UNL     1      46.117   3.338   6.733  0.00  0.00    +0.000 C 
ATOM     14  C   UNL     1      47.268   2.586   6.080  0.00  0.00    +0.000 C 
ATOM     15  O   UNL     1      47.108   1.179   6.236  0.00  0.00    +0.000 OA
ATOM     16  C   UNL     1      47.120   0.792   7.609  0.00  0.00    +0.000 C 
ATOM     17  C   UNL     1      45.948   1.422   8.351  0.00  0.00    +0.000 C 
ENDBRANCH  11  12
ENDBRANCH   8  11
ENDBRANCH   5   8
ENDBRANCH   1   2
BRANCH   1  20
ATOM     18  O   UNL     1      47.306   4.932  17.513  0.00  0.00    +0.000 OA
ATOM     19  C   UNL     1      48.016   5.078  16.522  0.00  0.00    +0.000 C 
ATOM     20  N   UNL     1      47.568   4.804  15.255  0.00  0.00    +0.000 N 
ATOM     21  H   UNL     1      48.194   4.857  14.458  0.00  0.00    +0.000 HD
BRANCH  19  22
ATOM     22  C   UNL     1      49.384   5.574  16.611  0.00  0.00    +0.000 A 
ATOM     23  C   UNL     1      50.336   4.940  17.397  0.00  0.00    +0.000 A 
ATOM     24  S   UNL     1      51.866   5.701  17.327  0.00  0.00    +0.000 S 
ATOM     25  C   UNL     1      51.299   6.873  16.230  0.00  0.00    +0.000 A 
ATOM     26  N   UNL     1      52.112   7.849  15.743  0.00  0.00    +0.000 NA
ATOM     27  C   UNL     1      51.541   8.646  14.901  0.00  0.00    +0.000 A 
ATOM     28  N   UNL     1      50.236   8.560  14.493  0.00  0.00    +0.000 N 
ATOM     29  C   UNL     1      49.360   7.637  14.998  0.00  0.00    +0.000 A 
ATOM     30  O   UNL     1      48.181   7.680  14.696  0.00  0.00    +0.000 OA
ATOM     31  C   UNL     1      49.959   6.698  15.931  0.00  0.00    +0.000 A 
ATOM     32  H   UNL     1      49.836   9.235  13.859  0.00  0.00    +0.000 HD
ENDBRANCH  19  22
ENDBRANCH   1  20
TORSDOF 7
ENDMDL
MODEL 8
REMARK VINA RESULT:    -6.831      3.636      7.961
REMARK INTER + INTRA:         -10.545
REMARK INTER:                  -9.842
REMARK INTRA:                  -0.703
REMARK UNBOUND:                -1.119
REMARK  Name = 
REMARK  7 active torsions:
REMARK  status: ('A' for Active; 'I' for Inactive)
REMARK    1  A    between atoms: C_2  and  C_20
REMARK    2  A    between atoms: N_3  and  C_4
REMARK    3  A    between atoms: C_4  and  C_5
REMARK    4  A    between atoms: C_8  and  C_9
REMARK    5  A    between atoms: C_9  and  O_10
REMARK    6  A    between atoms: C_9  and  C_11
REMARK    7  A    between atoms: C_11  and  C_12
REMARK                            x       y       z     vdW  Elec       q    Type
REMARK                         _______ _______ _______ _____ _____    ______ ____
ROOT
ATOM      1  C   UNL     1      48.206   7.939  12.230  0.00  0.00    +0.000 C 
ENDROOT
BRANCH   1   2
ATOM      2  C   UNL     1      48.831   7.579  13.546  0.00  0.00    +0.000 A 
ATOM      3  C   UNL     1      48.247   6.607  14.353  0.00  0.00    +0.000 A 
ATOM      4  N   UNL     1      48.791   6.187  15.522  0.00  0.00    +0.000 NA
ATOM      5  C   UNL     1      49.978   6.764  15.852  0.00  0.00    +0.000 A 
ATOM      6  C   UNL     1      50.559   7.737  15.042  0.00  0.00    +0.000 A 
ATOM      7  N   UNL     1      50.012   8.161  13.880  0.00  0.00    +0.000 NA
BRANCH   5   8
ATOM      8  C   UNL     1      50.673   6.320  17.119  0.00  0.00    +0.000 C 
BRANCH   8   9
ATOM      9  O   UNL     1      51.255   7.442  17.782  0.00  0.00    +0.000 OA
ATOM     10  H   UNL     1      52.089   7.115  18.171  0.00  0.00    +0.000 HD
ENDBRANCH   8   9
BRANCH   8  11
ATOM     11  C   UNL     1      49.714   5.606  18.084  0.00  0.00    +0.000 C 
BRANCH  11  12
ATOM     12  C   UNL     1      49.800   4.066  18.016  0.00  0.00    +0.000 C 
ATOM     13  C   UNL     1      51.185   3.580  17.565  0.00  0.00    +0.000 C 
ATOM     14  C   UNL     1      51.195   2.078  17.317  0.00  0.00    +0.000 C 
ATOM     15  O   UNL     1      50.184   1.712  16.382  0.00  0.00    +0.000 OA
ATOM     16  C   UNL     1      48.877   2.018  16.866  0.00  0.00    +0.000 C 
ATOM     17  C   UNL     1      48.721   3.520  17.069  0.00  0.00    +0.000 C 
ENDBRANCH  11  12
ENDBRANCH   8  11
ENDBRANCH   5   8
ENDBRANCH   1   2
BRANCH   1  20
ATOM     18  O   UNL     1      45.474   7.906  11.627  0.00  0.00    +0.000 OA
ATOM     19  C   UNL     1      46.147   6.912  11.370  0.00  0.00    +0.000 C 
ATOM     20  N   UNL     1      47.478   6.829  11.684  0.00  0.00    +0.000 N 
ATOM     21  H   UNL     1      48.034   6.030  11.394  0.00  0.00    +0.000 HD
BRANCH  19  22
ATOM     22  C   UNL     1      45.578   5.732  10.729  0.00  0.00    +0.000 A 
ATOM     23  C   UNL     1      45.781   5.468   9.382  0.00  0.00    +0.000 A 
ATOM     24  S   UNL     1      45.026   4.023   8.868  0.00  0.00    +0.000 S 
ATOM     25  C   UNL     1      44.436   3.705  10.433  0.00  0.00    +0.000 A 
ATOM     26  N   UNL     1      43.696   2.597  10.708  0.00  0.00    +0.000 NA
ATOM     27  C   UNL     1      43.345   2.484  11.946  0.00  0.00    +0.000 A 
ATOM     28  N   UNL     1      43.665   3.370  12.941  0.00  0.00    +0.000 N 
ATOM     29  C   UNL     1      44.353   4.530  12.708  0.00  0.00    +0.000 A 
ATOM     30  O   UNL     1      44.506   5.343  13.601  0.00  0.00    +0.000 OA
ATOM     31  C   UNL     1      44.795   4.693  11.333  0.00  0.00    +0.000 A 
ATOM     32  H   UNL     1      43.330   3.247  13.884  0.00  0.00    +0.000 HD
ENDBRANCH  19  22
ENDBRANCH   1  20
TORSDOF 7
ENDMDL
MODEL 9
REMARK VINA RESULT:    -6.679      3.106      3.435
REMARK INTER + INTRA:         -10.335
REMARK INTER:                  -9.320
REMARK INTRA:                  -1.015
REMARK UNBOUND:                -1.119
REMARK  Name = 
REMARK  7 active torsions:
REMARK  status: ('A' for Active; 'I' for Inactive)
REMARK    1  A    between atoms: C_2  and  C_20
REMARK    2  A    between atoms: N_3  and  C_4
REMARK    3  A    between atoms: C_4  and  C_5
REMARK    4  A    between atoms: C_8  and  C_9
REMARK    5  A    between atoms: C_9  and  O_10
REMARK    6  A    between atoms: C_9  and  C_11
REMARK    7  A    between atoms: C_11  and  C_12
REMARK                            x       y       z     vdW  Elec       q    Type
REMARK                         _______ _______ _______ _____ _____    ______ ____
ROOT
ATOM      1  C   UNL     1      46.013   8.027  13.239  0.00  0.00    +0.000 C 
ENDROOT
BRANCH   1   2
ATOM      2  C   UNL     1      45.742   6.833  12.371  0.00  0.00    +0.000 A 
ATOM      3  C   UNL     1      44.845   5.856  12.792  0.00  0.00    +0.000 A 
ATOM      4  N   UNL     1      44.504   4.785  12.032  0.00  0.00    +0.000 NA
ATOM      5  C   UNL     1      45.083   4.736  10.801  0.00  0.00    +0.000 A 
ATOM      6  C   UNL     1      45.981   5.717  10.386  0.00  0.00    +0.000 A 
ATOM      7  N   UNL     1      46.326   6.780  11.147  0.00  0.00    +0.000 NA
BRANCH   5   8
ATOM      8  C   UNL     1      44.724   3.597   9.875  0.00  0.00    +0.000 C 
BRANCH   8   9
ATOM      9  O   UNL     1      43.378   3.179  10.105  0.00  0.00    +0.000 OA
ATOM     10  H   UNL     1      43.331   2.953  11.054  0.00  0.00    +0.000 HD
ENDBRANCH   8   9
BRANCH   8  11
ATOM     11  C   UNL     1      44.887   3.981   8.396  0.00  0.00    +0.000 C 
BRANCH  11  12
ATOM     12  C   UNL     1      45.581   2.894   7.547  0.00  0.00    +0.000 C 
ATOM     13  C   UNL     1      46.019   1.688   8.392  0.00  0.00    +0.000 C 
ATOM     14  C   UNL     1      46.869   0.721   7.580  0.00  0.00    +0.000 C 
ATOM     15  O   UNL     1      47.988   1.388   7.005  0.00  0.00    +0.000 OA
ATOM     16  C   UNL     1      47.587   2.411   6.094  0.00  0.00    +0.000 C 
ATOM     17  C   UNL     1      46.795   3.491   6.821  0.00  0.00    +0.000 C 
ENDBRANCH  11  12
ENDBRANCH   8  11
ENDBRANCH   5   8
ENDBRANCH   1   2
BRANCH   1  20
ATOM     18  O   UNL     1      47.997   9.875  12.548  0.00  0.00    +0.000 OA
ATOM     19  C   UNL     1      48.267   8.997  13.363  0.00  0.00    +0.000 C 
ATOM     20  N   UNL     1      47.368   8.023  13.713  0.00  0.00    +0.000 N 
ATOM     21  H   UNL     1      47.583   7.353  14.445  0.00  0.00    +0.000 HD
BRANCH  19  22
ATOM     22  C   UNL     1      49.572   8.908  14.008  0.00  0.00    +0.000 A 
ATOM     23  C   UNL     1      50.725   8.649  13.280  0.00  0.00    +0.000 A 
ATOM     24  S   UNL     1      52.129   8.607  14.256  0.00  0.00    +0.000 S 
ATOM     25  C   UNL     1      51.234   8.959  15.661  0.00  0.00    +0.000 A 
ATOM     26  N   UNL     1      51.831   9.077  16.878  0.00  0.00    +0.000 NA
ATOM     27  C   UNL     1      51.023   9.372  17.841  0.00  0.00    +0.000 A 
ATOM     28  N   UNL     1      49.672   9.566  17.707  0.00  0.00    +0.000 N 
ATOM     29  C   UNL     1      49.014   9.400  16.519  0.00  0.00    +0.000 A 
ATOM     30  O   UNL     1      47.799   9.463  16.476  0.00  0.00    +0.000 OA
ATOM     31  C   UNL     1      49.883   9.093  15.396  0.00  0.00    +0.000 A 
ATOM     32  H   UNL     1      49.086   9.759  18.504  0.00  0.00    +0.000 HD
ENDBRANCH  19  22
ENDBRANCH   1  20
TORSDOF 7
ENDMDL
