MODEL 1
REMARK VINA RESULT:    -7.388      0.000      0.000
REMARK INTER + INTRA:         -10.369
REMARK INTER:                  -9.548
REMARK INTRA:                  -0.821
REMARK UNBOUND:                -0.821
REMARK  Name = 
REMARK  5 active torsions:
REMARK  status: ('A' for Active; 'I' for Inactive)
REMARK    1  A    between atoms: C_2  and  C_18
REMARK    2  A    between atoms: N_3  and  C_4
REMARK    3  A    between atoms: C_4  and  C_5
REMARK    4  A    between atoms: C_8  and  C_9
REMARK    5  A    between atoms: C_9  and  C_10
REMARK                            x       y       z     vdW  Elec       q    Type
REMARK                         _______ _______ _______ _____ _____    ______ ____
ROOT
ATOM      1  O   UNL     1      49.582   6.704  14.714  0.00  0.00    +0.000 OA
ATOM      2  C   UNL     1      48.459   6.253  14.928  0.00  0.00    +0.000 C 
ATOM      3  N   UNL     1      48.091   5.802  16.169  0.00  0.00    +0.000 N 
ATOM      4  H   UNL     1      47.232   5.269  16.280  0.00  0.00    +0.000 HD
ENDROOT
BRANCH   2   5
ATOM      5  C   UNL     1      47.441   6.209  13.870  0.00  0.00    +0.000 A 
ATOM      6  C   UNL     1      47.090   7.378  13.207  0.00  0.00    +0.000 A 
ATOM      7  S   UNL     1      45.905   7.156  12.003  0.00  0.00    +0.000 S 
ATOM      8  C   UNL     1      45.851   5.481  12.290  0.00  0.00    +0.000 A 
ATOM      9  N   UNL     1      45.050   4.670  11.546  0.00  0.00    +0.000 NA
ATOM     10  C   UNL     1      45.141   3.417  11.841  0.00  0.00    +0.000 A 
ATOM     11  N   UNL     1      45.947   2.902  12.822  0.00  0.00    +0.000 N 
ATOM     12  C   UNL     1      46.719   3.689  13.643  0.00  0.00    +0.000 A 
ATOM     13  O   UNL     1      47.341   3.211  14.586  0.00  0.00    +0.000 OA
ATOM     14  C   UNL     1      46.695   5.102  13.318  0.00  0.00    +0.000 A 
ATOM     15  H   UNL     1      45.947   1.913  13.024  0.00  0.00    +0.000 HD
ENDBRANCH   2   5
BRANCH   3  16
ATOM     16  C   UNL     1      49.017   5.768  17.285  0.00  0.00    +0.000 C 
BRANCH  16  17
ATOM     17  C   UNL     1      49.776   4.474  17.377  0.00  0.00    +0.000 A 
ATOM     18  C   UNL     1      51.105   4.464  17.792  0.00  0.00    +0.000 A 
ATOM     19  N   UNL     1      51.856   3.337  17.849  0.00  0.00    +0.000 NA
ATOM     20  C   UNL     1      51.246   2.189  17.457  0.00  0.00    +0.000 A 
ATOM     21  C   UNL     1      49.905   2.195  17.088  0.00  0.00    +0.000 A 
ATOM     22  N   UNL     1      49.154   3.322  17.021  0.00  0.00    +0.000 NA
BRANCH  20  23
ATOM     23  C   UNL     1      52.070   0.933  17.461  0.00  0.00    +0.000 C 
BRANCH  23  24
ATOM     24  C   UNL     1      53.568   1.014  17.842  0.00  0.00    +0.000 C 
ATOM     25  C   UNL     1      54.607   0.917  16.727  0.00  0.00    +0.000 C 
ATOM     26  C   UNL     1      54.880  -0.509  16.280  0.00  0.00    +0.000 C 
ATOM     27  C   UNL     1      55.055  -1.460  17.454  0.00  0.00    +0.000 C 
ATOM     28  C   UNL     1      54.139  -1.193  18.641  0.00  0.00    +0.000 C 
ATOM     29  O   UNL     1      53.936   0.180  18.944  0.00  0.00    +0.000 OA
ENDBRANCH  23  24
ENDBRANCH  20  23
ENDBRANCH  16  17
ENDBRANCH   3  16
TORSDOF 5
ENDMDL
MODEL 2
REMARK VINA RESULT:    -7.162      3.189      8.645
REMARK INTER + INTRA:         -10.077
REMARK INTER:                  -9.237
REMARK INTRA:                  -0.840
REMARK UNBOUND:                -0.821
REMARK  Name = 
REMARK  5 active torsions:
REMARK  status: ('A' for Active; 'I' for Inactive)
REMARK    1  A    between atoms: C_2  and  C_18
REMARK    2  A    between atoms: N_3  and  C_4
REMARK    3  A    between atoms: C_4  and  C_5
REMARK    4  A    between atoms: C_8  and  C_9
REMARK    5  A    between atoms: C_9  and  C_10
REMARK                            x       y       z     vdW  Elec       q    Type
REMARK                         _______ _______ _______ _____ _____    ______ ____
ROOT
ATOM      1  O   UNL     1      49.691   5.541  19.217  0.00  0.00    +0.000 OA
ATOM      2  C   UNL     1      50.443   5.156  18.326  0.00  0.00    +0.000 C 
ATOM      3  N   UNL     1      50.246   5.511  17.017  0.00  0.00    +0.000 N 
ATOM      4  H   UNL     1      50.763   5.039  16.280  0.00  0.00    +0.000 HD
ENDROOT
BRANCH   2   5
ATOM      5  C   UNL     1      51.617   4.324  18.624  0.00  0.00    +0.000 A 
ATOM      6  C   UNL     1      52.605   4.811  19.470  0.00  0.00    +0.000 A 
ATOM      7  S   UNL     1      53.891   3.721  19.723  0.00  0.00    +0.000 S 
ATOM      8  C   UNL     1      53.152   2.539  18.748  0.00  0.00    +0.000 A 
ATOM      9  N   UNL     1      53.724   1.317  18.577  0.00  0.00    +0.000 NA
ATOM     10  C   UNL     1      53.034   0.503  17.850  0.00  0.00    +0.000 A 
ATOM     11  N   UNL     1      51.832   0.806  17.265  0.00  0.00    +0.000 N 
ATOM     12  C   UNL     1      51.252   2.049  17.354  0.00  0.00    +0.000 A 
ATOM     13  O   UNL     1      50.235   2.325  16.724  0.00  0.00    +0.000 OA
ATOM     14  C   UNL     1      51.960   2.985  18.205  0.00  0.00    +0.000 A 
ATOM     15  H   UNL     1      51.359   0.134  16.680  0.00  0.00    +0.000 HD
ENDBRANCH   2   5
BRANCH   3  16
ATOM     16  C   UNL     1      49.107   6.305  16.595  0.00  0.00    +0.000 C 
BRANCH  16  17
ATOM     17  C   UNL     1      48.251   5.606  15.577  0.00  0.00    +0.000 A 
ATOM     18  C   UNL     1      47.522   4.472  15.927  0.00  0.00    +0.000 A 
ATOM     19  N   UNL     1      46.771   3.771  15.043  0.00  0.00    +0.000 NA
ATOM     20  C   UNL     1      46.774   4.223  13.762  0.00  0.00    +0.000 A 
ATOM     21  C   UNL     1      47.464   5.382  13.426  0.00  0.00    +0.000 A 
ATOM     22  N   UNL     1      48.224   6.080  14.306  0.00  0.00    +0.000 NA
BRANCH  20  23
ATOM     23  C   UNL     1      45.991   3.434  12.751  0.00  0.00    +0.000 C 
BRANCH  23  24
ATOM     24  C   UNL     1      44.675   4.024  12.190  0.00  0.00    +0.000 C 
ATOM     25  C   UNL     1      43.740   3.100  11.411  0.00  0.00    +0.000 C 
ATOM     26  C   UNL     1      44.166   2.887   9.968  0.00  0.00    +0.000 C 
ATOM     27  C   UNL     1      44.561   4.186   9.283  0.00  0.00    +0.000 C 
ATOM     28  C   UNL     1      45.311   5.177  10.164  0.00  0.00    +0.000 C 
ATOM     29  O   UNL     1      44.839   5.267  11.501  0.00  0.00    +0.000 OA
ENDBRANCH  23  24
ENDBRANCH  20  23
ENDBRANCH  16  17
ENDBRANCH   3  16
TORSDOF 5
ENDMDL
MODEL 3
REMARK VINA RESULT:    -6.924      1.742      2.371
REMARK INTER + INTRA:          -9.768
REMARK INTER:                  -9.434
REMARK INTRA:                  -0.334
REMARK UNBOUND:                -0.821
REMARK  Name = 
REMARK  5 active torsions:
REMARK  status: ('A' for Active; 'I' for Inactive)
REMARK    1  A    between atoms: C_2  and  C_18
REMARK    2  A    between atoms: N_3  and  C_4
REMARK    3  A    between atoms: C_4  and  C_5
REMARK    4  A    between atoms: C_8  and  C_9
REMARK    5  A    between atoms: C_9  and  C_10
REMARK                            x       y       z     vdW  Elec       q    Type
REMARK                         _______ _______ _______ _____ _____    ______ ____
ROOT
ATOM      1  O   UNL     1      47.364   3.112  14.129  0.00  0.00    +0.000 OA
ATOM      2  C   UNL     1      46.876   4.146  14.578  0.00  0.00    +0.000 C 
ATOM      3  N   UNL     1      46.751   4.354  15.927  0.00  0.00    +0.000 N 
ATOM      4  H   UNL     1      46.184   5.125  16.271  0.00  0.00    +0.000 HD
ENDROOT
BRANCH   2   5
ATOM      5  C   UNL     1      46.434   5.230  13.690  0.00  0.00    +0.000 A 
ATOM      6  C   UNL     1      47.297   6.284  13.414  0.00  0.00    +0.000 A 
ATOM      7  S   UNL     1      46.640   7.451  12.360  0.00  0.00    +0.000 S 
ATOM      8  C   UNL     1      45.196   6.568  12.196  0.00  0.00    +0.000 A 
ATOM      9  N   UNL     1      44.201   7.002  11.377  0.00  0.00    +0.000 NA
ATOM     10  C   UNL     1      43.181   6.213  11.313  0.00  0.00    +0.000 A 
ATOM     11  N   UNL     1      43.059   5.038  12.007  0.00  0.00    +0.000 N 
ATOM     12  C   UNL     1      44.008   4.596  12.899  0.00  0.00    +0.000 A 
ATOM     13  O   UNL     1      43.818   3.601  13.591  0.00  0.00    +0.000 OA
ATOM     14  C   UNL     1      45.199   5.419  12.967  0.00  0.00    +0.000 A 
ATOM     15  H   UNL     1      42.219   4.482  11.938  0.00  0.00    +0.000 HD
ENDBRANCH   2   5
BRANCH   3  16
ATOM     16  C   UNL     1      47.125   3.347  16.902  0.00  0.00    +0.000 C 
BRANCH  16  17
ATOM     17  C   UNL     1      48.599   3.337  17.198  0.00  0.00    +0.000 A 
ATOM     18  C   UNL     1      49.190   4.402  17.873  0.00  0.00    +0.000 A 
ATOM     19  N   UNL     1      50.519   4.475  18.126  0.00  0.00    +0.000 NA
ATOM     20  C   UNL     1      51.274   3.445  17.664  0.00  0.00    +0.000 A 
ATOM     21  C   UNL     1      50.676   2.361  17.032  0.00  0.00    +0.000 A 
ATOM     22  N   UNL     1      49.347   2.290  16.769  0.00  0.00    +0.000 NA
BRANCH  20  23
ATOM     23  C   UNL     1      52.758   3.523  17.886  0.00  0.00    +0.000 C 
BRANCH  23  24
ATOM     24  C   UNL     1      53.445   2.463  18.780  0.00  0.00    +0.000 C 
ATOM     25  C   UNL     1      54.961   2.536  18.958  0.00  0.00    +0.000 C 
ATOM     26  C   UNL     1      55.734   1.939  17.794  0.00  0.00    +0.000 C 
ATOM     27  C   UNL     1      55.167   0.600  17.347  0.00  0.00    +0.000 C 
ATOM     28  C   UNL     1      53.648   0.498  17.389  0.00  0.00    +0.000 C 
ATOM     29  O   UNL     1      53.036   1.120  18.511  0.00  0.00    +0.000 OA
ENDBRANCH  23  24
ENDBRANCH  20  23
ENDBRANCH  16  17
ENDBRANCH   3  16
TORSDOF 5
ENDMDL
MODEL 4
REMARK VINA RESULT:    -6.570      2.909      3.919
REMARK INTER + INTRA:          -9.311
REMARK INTER:                  -8.510
REMARK INTRA:                  -0.801
REMARK UNBOUND:                -0.821
REMARK  Name = 
REMARK  5 active torsions:
REMARK  status: ('A' for Active; 'I' for Inactive)
REMARK    1  A    between atoms: C_2  and  C_18
REMARK    2  A    between atoms: N_3  and  C_4
REMARK    3  A    between atoms: C_4  and  C_5
REMARK    4  A    between atoms: C_8  and  C_9
REMARK    5  A    between atoms: C_9  and  C_10
REMARK                            x       y       z     vdW  Elec       q    Type
REMARK                         _______ _______ _______ _____ _____    ______ ____
ROOT
ATOM      1  O   UNL     1      47.356   3.143  14.046  0.00  0.00    +0.000 OA
ATOM      2  C   UNL     1      46.877   4.180  14.498  0.00  0.00    +0.000 C 
ATOM      3  N   UNL     1      46.795   4.404  15.847  0.00  0.00    +0.000 N 
ATOM      4  H   UNL     1      46.235   5.176  16.200  0.00  0.00    +0.000 HD
ENDROOT
BRANCH   2   5
ATOM      5  C   UNL     1      46.401   5.250  13.611  0.00  0.00    +0.000 A 
ATOM      6  C   UNL     1      47.244   6.311  13.303  0.00  0.00    +0.000 A 
ATOM      7  S   UNL     1      46.548   7.461  12.256  0.00  0.00    +0.000 S 
ATOM      8  C   UNL     1      45.110   6.561  12.138  0.00  0.00    +0.000 A 
ATOM      9  N   UNL     1      44.089   6.977  11.340  0.00  0.00    +0.000 NA
ATOM     10  C   UNL     1      43.076   6.176  11.310  0.00  0.00    +0.000 A 
ATOM     11  N   UNL     1      42.985   5.006  12.018  0.00  0.00    +0.000 N 
ATOM     12  C   UNL     1      43.961   4.583  12.889  0.00  0.00    +0.000 A 
ATOM     13  O   UNL     1      43.801   3.593  13.596  0.00  0.00    +0.000 OA
ATOM     14  C   UNL     1      45.145   5.419  12.919  0.00  0.00    +0.000 A 
ATOM     15  H   UNL     1      42.150   4.442  11.976  0.00  0.00    +0.000 HD
ENDBRANCH   2   5
BRANCH   3  16
ATOM     16  C   UNL     1      47.206   3.411  16.822  0.00  0.00    +0.000 C 
BRANCH  16  17
ATOM     17  C   UNL     1      48.627   3.592  17.278  0.00  0.00    +0.000 A 
ATOM     18  C   UNL     1      49.000   4.729  17.990  0.00  0.00    +0.000 A 
ATOM     19  N   UNL     1      50.273   4.972  18.386  0.00  0.00    +0.000 NA
ATOM     20  C   UNL     1      51.198   4.043  18.034  0.00  0.00    +0.000 A 
ATOM     21  C   UNL     1      50.815   2.886  17.364  0.00  0.00    +0.000 A 
ATOM     22  N   UNL     1      49.544   2.644  16.958  0.00  0.00    +0.000 NA
BRANCH  20  23
ATOM     23  C   UNL     1      52.626   4.312  18.415  0.00  0.00    +0.000 C 
BRANCH  23  24
ATOM     24  C   UNL     1      53.607   4.845  17.343  0.00  0.00    +0.000 C 
ATOM     25  C   UNL     1      55.048   5.134  17.757  0.00  0.00    +0.000 C 
ATOM     26  C   UNL     1      55.217   6.470  18.461  0.00  0.00    +0.000 C 
ATOM     27  C   UNL     1      54.476   7.595  17.754  0.00  0.00    +0.000 C 
ATOM     28  C   UNL     1      53.127   7.206  17.165  0.00  0.00    +0.000 C 
ATOM     29  O   UNL     1      53.085   5.921  16.559  0.00  0.00    +0.000 OA
ENDBRANCH  23  24
ENDBRANCH  20  23
ENDBRANCH  16  17
ENDBRANCH   3  16
TORSDOF 5
ENDMDL
MODEL 5
REMARK VINA RESULT:    -6.567      4.751      5.824
REMARK INTER + INTRA:          -9.308
REMARK INTER:                  -8.496
REMARK INTRA:                  -0.812
REMARK UNBOUND:                -0.821
REMARK  Name = 
REMARK  5 active torsions:
REMARK  status: ('A' for Active; 'I' for Inactive)
REMARK    1  A    between atoms: C_2  and  C_18
REMARK    2  A    between atoms: N_3  and  C_4
REMARK    3  A    between atoms: C_4  and  C_5
REMARK    4  A    between atoms: C_8  and  C_9
REMARK    5  A    between atoms: C_9  and  C_10
REMARK                            x       y       z     vdW  Elec       q    Type
REMARK                         _______ _______ _______ _____ _____    ______ ____
ROOT
ATOM      1  O   UNL     1      45.571   7.898  11.778  0.00  0.00    +0.000 OA
ATOM      2  C   UNL     1      46.237   6.911  11.477  0.00  0.00    +0.000 C 
ATOM      3  N   UNL     1      47.576   6.834  11.759  0.00  0.00    +0.000 N 
ATOM      4  H   UNL     1      48.140   6.099  11.343  0.00  0.00    +0.000 HD
ENDROOT
BRANCH   2   5
ATOM      5  C   UNL     1      45.621   5.745  10.830  0.00  0.00    +0.000 A 
ATOM      6  C   UNL     1      45.847   5.512   9.479  0.00  0.00    +0.000 A 
ATOM      7  S   UNL     1      45.074   4.114   8.883  0.00  0.00    +0.000 S 
ATOM      8  C   UNL     1      44.446   3.743  10.420  0.00  0.00    +0.000 A 
ATOM      9  N   UNL     1      43.708   2.617  10.619  0.00  0.00    +0.000 NA
ATOM     10  C   UNL     1      43.333   2.436  11.841  0.00  0.00    +0.000 A 
ATOM     11  N   UNL     1      43.616   3.286  12.878  0.00  0.00    +0.000 N 
ATOM     12  C   UNL     1      44.298   4.468  12.710  0.00  0.00    +0.000 A 
ATOM     13  O   UNL     1      44.434   5.263  13.635  0.00  0.00    +0.000 OA
ATOM     14  C   UNL     1      44.789   4.693  11.365  0.00  0.00    +0.000 A 
ATOM     15  H   UNL     1      43.264   3.103  13.806  0.00  0.00    +0.000 HD
ENDBRANCH   2   5
BRANCH   3  16
ATOM     16  C   UNL     1      48.301   7.933  12.369  0.00  0.00    +0.000 C 
BRANCH  16  17
ATOM     17  C   UNL     1      48.467   7.771  13.854  0.00  0.00    +0.000 A 
ATOM     18  C   UNL     1      48.135   8.812  14.718  0.00  0.00    +0.000 A 
ATOM     19  N   UNL     1      48.308   8.745  16.061  0.00  0.00    +0.000 NA
ATOM     20  C   UNL     1      48.850   7.595  16.539  0.00  0.00    +0.000 A 
ATOM     21  C   UNL     1      49.136   6.540  15.679  0.00  0.00    +0.000 A 
ATOM     22  N   UNL     1      48.973   6.608  14.334  0.00  0.00    +0.000 NA
BRANCH  20  23
ATOM     23  C   UNL     1      49.100   7.513  18.018  0.00  0.00    +0.000 C 
BRANCH  23  24
ATOM     24  C   UNL     1      47.995   6.945  18.940  0.00  0.00    +0.000 C 
ATOM     25  C   UNL     1      48.165   7.089  20.451  0.00  0.00    +0.000 C 
ATOM     26  C   UNL     1      49.092   6.048  21.056  0.00  0.00    +0.000 C 
ATOM     27  C   UNL     1      48.807   4.647  20.536  0.00  0.00    +0.000 C 
ATOM     28  C   UNL     1      48.429   4.572  19.063  0.00  0.00    +0.000 C 
ATOM     29  O   UNL     1      47.582   5.617  18.607  0.00  0.00    +0.000 OA
ENDBRANCH  23  24
ENDBRANCH  20  23
ENDBRANCH  16  17
ENDBRANCH   3  16
TORSDOF 5
ENDMDL
MODEL 6
REMARK VINA RESULT:    -6.551      3.551      4.741
REMARK INTER + INTRA:          -9.287
REMARK INTER:                  -8.706
REMARK INTRA:                  -0.581
REMARK UNBOUND:                -0.821
REMARK  Name = 
REMARK  5 active torsions:
REMARK  status: ('A' for Active; 'I' for Inactive)
REMARK    1  A    between atoms: C_2  and  C_18
REMARK    2  A    between atoms: N_3  and  C_4
REMARK    3  A    between atoms: C_4  and  C_5
REMARK    4  A    between atoms: C_8  and  C_9
REMARK    5  A    between atoms: C_9  and  C_10
REMARK                            x       y       z     vdW  Elec       q    Type
REMARK                         _______ _______ _______ _____ _____    ______ ____
ROOT
ATOM      1  O   UNL     1      47.687   7.125  11.799  0.00  0.00    +0.000 OA
ATOM      2  C   UNL     1      46.670   7.248  12.476  0.00  0.00    +0.000 C 
ATOM      3  N   UNL     1      46.640   8.044  13.591  0.00  0.00    +0.000 N 
ATOM      4  H   UNL     1      45.854   7.989  14.233  0.00  0.00    +0.000 HD
ENDROOT
BRANCH   2   5
ATOM      5  C   UNL     1      45.419   6.574  12.101  0.00  0.00    +0.000 A 
ATOM      6  C   UNL     1      44.404   7.302  11.491  0.00  0.00    +0.000 A 
ATOM      7  S   UNL     1      43.026   6.374  11.111  0.00  0.00    +0.000 S 
ATOM      8  C   UNL     1      43.752   4.955  11.704  0.00  0.00    +0.000 A 
ATOM      9  N   UNL     1      43.107   3.759  11.634  0.00  0.00    +0.000 NA
ATOM     10  C   UNL     1      43.791   2.759  12.080  0.00  0.00    +0.000 A 
ATOM     11  N   UNL     1      45.055   2.849  12.604  0.00  0.00    +0.000 N 
ATOM     12  C   UNL     1      45.716   4.044  12.758  0.00  0.00    +0.000 A 
ATOM     13  O   UNL     1      46.796   4.107  13.336  0.00  0.00    +0.000 OA
ATOM     14  C   UNL     1      45.013   5.194  12.223  0.00  0.00    +0.000 A 
ATOM     15  H   UNL     1      45.522   2.031  12.966  0.00  0.00    +0.000 HD
ENDBRANCH   2   5
BRANCH   3  16
ATOM     16  C   UNL     1      47.819   8.737  14.076  0.00  0.00    +0.000 C 
BRANCH  16  17
ATOM     17  C   UNL     1      48.512   8.002  15.190  0.00  0.00    +0.000 A 
ATOM     18  C   UNL     1      49.197   6.817  14.933  0.00  0.00    +0.000 A 
ATOM     19  N   UNL     1      49.800   6.085  15.901  0.00  0.00    +0.000 NA
ATOM     20  C   UNL     1      49.690   6.559  17.169  0.00  0.00    +0.000 A 
ATOM     21  C   UNL     1      49.046   7.767  17.416  0.00  0.00    +0.000 A 
ATOM     22  N   UNL     1      48.433   8.497  16.451  0.00  0.00    +0.000 NA
BRANCH  20  23
ATOM     23  C   UNL     1      50.305   5.740  18.268  0.00  0.00    +0.000 C 
BRANCH  23  24
ATOM     24  C   UNL     1      49.510   4.552  18.860  0.00  0.00    +0.000 C 
ATOM     25  C   UNL     1      49.582   3.203  18.148  0.00  0.00    +0.000 C 
ATOM     26  C   UNL     1      48.668   3.110  16.938  0.00  0.00    +0.000 C 
ATOM     27  C   UNL     1      47.275   3.652  17.222  0.00  0.00    +0.000 C 
ATOM     28  C   UNL     1      47.234   4.882  18.119  0.00  0.00    +0.000 C 
ATOM     29  O   UNL     1      48.156   4.868  19.199  0.00  0.00    +0.000 OA
ENDBRANCH  23  24
ENDBRANCH  20  23
ENDBRANCH  16  17
ENDBRANCH   3  16
TORSDOF 5
ENDMDL
MODEL 7
REMARK VINA RESULT:    -6.435      3.274      8.799
REMARK INTER + INTRA:          -9.137
REMARK INTER:                  -8.388
REMARK INTRA:                  -0.749
REMARK UNBOUND:                -0.821
REMARK  Name = 
REMARK  5 active torsions:
REMARK  status: ('A' for Active; 'I' for Inactive)
REMARK    1  A    between atoms: C_2  and  C_18
REMARK    2  A    between atoms: N_3  and  C_4
REMARK    3  A    between atoms: C_4  and  C_5
REMARK    4  A    between atoms: C_8  and  C_9
REMARK    5  A    between atoms: C_9  and  C_10
REMARK                            x       y       z     vdW  Elec       q    Type
REMARK                         _______ _______ _______ _____ _____    ______ ____
ROOT
ATOM      1  O   UNL     1      50.173   1.642  16.402  0.00  0.00    +0.000 OA
ATOM      2  C   UNL     1      50.284   2.663  17.076  0.00  0.00    +0.000 C 
ATOM      3  N   UNL     1      49.196   3.428  17.407  0.00  0.00    +0.000 N 
ATOM      4  H   UNL     1      49.329   4.354  17.802  0.00  0.00    +0.000 HD
ENDROOT
BRANCH   2   5
ATOM      5  C   UNL     1      51.589   3.097  17.592  0.00  0.00    +0.000 A 
ATOM      6  C   UNL     1      52.428   2.172  18.201  0.00  0.00    +0.000 A 
ATOM      7  S   UNL     1      53.906   2.831  18.734  0.00  0.00    +0.000 S 
ATOM      8  C   UNL     1      53.501   4.367  18.129  0.00  0.00    +0.000 A 
ATOM      9  N   UNL     1      54.375   5.407  18.219  0.00  0.00    +0.000 NA
ATOM     10  C   UNL     1      53.957   6.502  17.679  0.00  0.00    +0.000 A 
ATOM     11  N   UNL     1      52.738   6.658  17.072  0.00  0.00    +0.000 N 
ATOM     12  C   UNL     1      51.798   5.656  17.019  0.00  0.00    +0.000 A 
ATOM     13  O   UNL     1      50.673   5.860  16.572  0.00  0.00    +0.000 OA
ATOM     14  C   UNL     1      52.238   4.387  17.563  0.00  0.00    +0.000 A 
ATOM     15  H   UNL     1      52.458   7.552  16.698  0.00  0.00    +0.000 HD
ENDBRANCH   2   5
BRANCH   3  16
ATOM     16  C   UNL     1      47.861   3.117  16.933  0.00  0.00    +0.000 C 
BRANCH  16  17
ATOM     17  C   UNL     1      47.534   3.783  15.625  0.00  0.00    +0.000 A 
ATOM     18  C   UNL     1      47.456   5.171  15.542  0.00  0.00    +0.000 A 
ATOM     19  N   UNL     1      47.119   5.828  14.405  0.00  0.00    +0.000 NA
ATOM     20  C   UNL     1      46.835   5.053  13.326  0.00  0.00    +0.000 A 
ATOM     21  C   UNL     1      46.960   3.670  13.400  0.00  0.00    +0.000 A 
ATOM     22  N   UNL     1      47.287   3.010  14.538  0.00  0.00    +0.000 NA
BRANCH  20  23
ATOM     23  C   UNL     1      46.409   5.753  12.067  0.00  0.00    +0.000 C 
BRANCH  23  24
ATOM     24  C   UNL     1      44.900   5.871  11.743  0.00  0.00    +0.000 C 
ATOM     25  C   UNL     1      43.894   5.591  12.858  0.00  0.00    +0.000 C 
ATOM     26  C   UNL     1      43.647   4.110  13.089  0.00  0.00    +0.000 C 
ATOM     27  C   UNL     1      43.449   3.346  11.789  0.00  0.00    +0.000 C 
ATOM     28  C   UNL     1      44.328   3.803  10.633  0.00  0.00    +0.000 C 
ATOM     29  O   UNL     1      44.509   5.209  10.537  0.00  0.00    +0.000 OA
ENDBRANCH  23  24
ENDBRANCH  20  23
ENDBRANCH  16  17
ENDBRANCH   3  16
TORSDOF 5
ENDMDL
MODEL 8
REMARK VINA RESULT:    -6.387      3.796      5.079
REMARK INTER + INTRA:          -9.074
REMARK INTER:                  -8.577
REMARK INTRA:                  -0.498
REMARK UNBOUND:                -0.821
REMARK  Name = 
REMARK  5 active torsions:
REMARK  status: ('A' for Active; 'I' for Inactive)
REMARK    1  A    between atoms: C_2  and  C_18
REMARK    2  A    between atoms: N_3  and  C_4
REMARK    3  A    between atoms: C_4  and  C_5
REMARK    4  A    between atoms: C_8  and  C_9
REMARK    5  A    between atoms: C_9  and  C_10
REMARK                            x       y       z     vdW  Elec       q    Type
REMARK                         _______ _______ _______ _____ _____    ______ ____
ROOT
ATOM      1  O   UNL     1      47.736   7.083  11.634  0.00  0.00    +0.000 OA
ATOM      2  C   UNL     1      46.934   6.689  12.477  0.00  0.00    +0.000 C 
ATOM      3  N   UNL     1      47.228   6.715  13.816  0.00  0.00    +0.000 N 
ATOM      4  H   UNL     1      46.633   6.220  14.475  0.00  0.00    +0.000 HD
ENDROOT
BRANCH   2   5
ATOM      5  C   UNL     1      45.602   6.203  12.094  0.00  0.00    +0.000 A 
ATOM      6  C   UNL     1      44.701   7.075  11.495  0.00  0.00    +0.000 A 
ATOM      7  S   UNL     1      43.207   6.355  11.102  0.00  0.00    +0.000 S 
ATOM      8  C   UNL     1      43.725   4.840  11.673  0.00  0.00    +0.000 A 
ATOM      9  N   UNL     1      42.919   3.747  11.587  0.00  0.00    +0.000 NA
ATOM     10  C   UNL     1      43.456   2.654  12.017  0.00  0.00    +0.000 A 
ATOM     11  N   UNL     1      44.718   2.558  12.541  0.00  0.00    +0.000 N 
ATOM     12  C   UNL     1      45.540   3.647  12.712  0.00  0.00    +0.000 A 
ATOM     13  O   UNL     1      46.618   3.549  13.291  0.00  0.00    +0.000 OA
ATOM     14  C   UNL     1      45.006   4.891  12.195  0.00  0.00    +0.000 A 
ATOM     15  H   UNL     1      45.066   1.678  12.891  0.00  0.00    +0.000 HD
ENDBRANCH   2   5
BRANCH   3  16
ATOM     16  C   UNL     1      48.520   7.146  14.314  0.00  0.00    +0.000 C 
BRANCH  16  17
ATOM     17  C   UNL     1      48.961   6.384  15.533  0.00  0.00    +0.000 A 
ATOM     18  C   UNL     1      48.044   5.637  16.268  0.00  0.00    +0.000 A 
ATOM     19  N   UNL     1      48.369   4.969  17.401  0.00  0.00    +0.000 NA
ATOM     20  C   UNL     1      49.660   5.077  17.811  0.00  0.00    +0.000 A 
ATOM     21  C   UNL     1      50.583   5.784  17.051  0.00  0.00    +0.000 A 
ATOM     22  N   UNL     1      50.259   6.462  15.921  0.00  0.00    +0.000 NA
BRANCH  20  23
ATOM     23  C   UNL     1      50.036   4.388  19.093  0.00  0.00    +0.000 C 
BRANCH  23  24
ATOM     24  C   UNL     1      49.825   5.127  20.436  0.00  0.00    +0.000 C 
ATOM     25  C   UNL     1      48.477   4.985  21.139  0.00  0.00    +0.000 C 
ATOM     26  C   UNL     1      47.399   5.889  20.564  0.00  0.00    +0.000 C 
ATOM     27  C   UNL     1      47.896   7.308  20.333  0.00  0.00    +0.000 C 
ATOM     28  C   UNL     1      49.331   7.413  19.832  0.00  0.00    +0.000 C 
ATOM     29  O   UNL     1      50.241   6.495  20.421  0.00  0.00    +0.000 OA
ENDBRANCH  23  24
ENDBRANCH  20  23
ENDBRANCH  16  17
ENDBRANCH   3  16
TORSDOF 5
ENDMDL
MODEL 9
REMARK VINA RESULT:    -6.034      4.434      6.439
REMARK INTER + INTRA:          -8.618
REMARK INTER:                  -7.731
REMARK INTRA:                  -0.887
REMARK UNBOUND:                -0.821
REMARK  Name = 
REMARK  5 active torsions:
REMARK  status: ('A' for Active; 'I' for Inactive)
REMARK    1  A    between atoms: C_2  and  C_18
REMARK    2  A    between atoms: N_3  and  C_4
REMARK    3  A    between atoms: C_4  and  C_5
REMARK    4  A    between atoms: C_8  and  C_9
REMARK    5  A    between atoms: C_9  and  C_10
REMARK                            x       y       z     vdW  Elec       q    Type
REMARK                         _______ _______ _______ _____ _____    ______ ____
ROOT
ATOM      1  O   UNL     1      47.523   3.265  13.639  0.00  0.00    +0.000 OA
ATOM      2  C   UNL     1      46.770   4.142  14.054  0.00  0.00    +0.000 C 
ATOM      3  N   UNL     1      46.729   4.485  15.381  0.00  0.00    +0.000 N 
ATOM      4  H   UNL     1      45.978   5.075  15.729  0.00  0.00    +0.000 HD
ENDROOT
BRANCH   2   5
ATOM      5  C   UNL     1      45.898   4.894  13.142  0.00  0.00    +0.000 A 
ATOM      6  C   UNL     1      44.881   4.233  12.464  0.00  0.00    +0.000 A 
ATOM      7  S   UNL     1      43.955   5.247  11.455  0.00  0.00    +0.000 S 
ATOM      8  C   UNL     1      44.847   6.617  11.923  0.00  0.00    +0.000 A 
ATOM      9  N   UNL     1      44.532   7.852  11.447  0.00  0.00    +0.000 NA
ATOM     10  C   UNL     1      45.263   8.806  11.918  0.00  0.00    +0.000 A 
ATOM     11  N   UNL     1      46.290   8.636  12.809  0.00  0.00    +0.000 N 
ATOM     12  C   UNL     1      46.688   7.400  13.262  0.00  0.00    +0.000 A 
ATOM     13  O   UNL     1      47.683   7.269  13.967  0.00  0.00    +0.000 OA
ATOM     14  C   UNL     1      45.865   6.298  12.805  0.00  0.00    +0.000 A 
ATOM     15  H   UNL     1      46.845   9.422  13.113  0.00  0.00    +0.000 HD
ENDBRANCH   2   5
BRANCH   3  16
ATOM     16  C   UNL     1      47.521   3.794  16.381  0.00  0.00    +0.000 C 
BRANCH  16  17
ATOM     17  C   UNL     1      48.266   4.734  17.288  0.00  0.00    +0.000 A 
ATOM     18  C   UNL     1      48.267   4.531  18.666  0.00  0.00    +0.000 A 
ATOM     19  N   UNL     1      48.878   5.368  19.539  0.00  0.00    +0.000 NA
ATOM     20  C   UNL     1      49.491   6.453  19.000  0.00  0.00    +0.000 A 
ATOM     21  C   UNL     1      49.529   6.628  17.621  0.00  0.00    +0.000 A 
ATOM     22  N   UNL     1      48.910   5.797  16.745  0.00  0.00    +0.000 NA
BRANCH  20  23
ATOM     23  C   UNL     1      50.133   7.426  19.948  0.00  0.00    +0.000 C 
BRANCH  23  24
ATOM     24  C   UNL     1      49.258   8.506  20.629  0.00  0.00    +0.000 C 
ATOM     25  C   UNL     1      47.739   8.379  20.528  0.00  0.00    +0.000 C 
ATOM     26  C   UNL     1      47.178   8.871  19.205  0.00  0.00    +0.000 C 
ATOM     27  C   UNL     1      47.776  10.205  18.784  0.00  0.00    +0.000 C 
ATOM     28  C   UNL     1      49.257  10.375  19.098  0.00  0.00    +0.000 C 
ATOM     29  O   UNL     1      49.668   9.848  20.351  0.00  0.00    +0.000 OA
ENDBRANCH  23  24
ENDBRANCH  20  23
ENDBRANCH  16  17
ENDBRANCH   3  16
TORSDOF 5
ENDMDL
