MODEL 1
REMARK VINA RESULT:    -7.711      0.000      0.000
REMARK INTER + INTRA:         -12.632
REMARK INTER:                 -11.318
REMARK INTRA:                  -1.315
REMARK UNBOUND:                -1.315
REMARK  Name = 
REMARK  9 active torsions:
REMARK  status: ('A' for Active; 'I' for Inactive)
REMARK    1  A    between atoms: C_1  and  O_2
REMARK    2  A    between atoms: O_2  and  C_3
REMARK    3  A    between atoms: C_10  and  C_11
REMARK    4  A    between atoms: N_13  and  C_14
REMARK    5  A    between atoms: C_14  and  C_15
REMARK    6  A    between atoms: C_18  and  N_19
REMARK    7  A    between atoms: N_19  and  C_20
REMARK    8  A    between atoms: C_20  and  C_21
REMARK    9  A    between atoms: C_21  and  N_22
REMARK                            x       y       z     vdW  Elec       q    Type
REMARK                         _______ _______ _______ _____ _____    ______ ____
ROOT
ATOM      1  C   UNL     1      47.183   8.209  13.359  0.00  0.00    +0.000 C 
ENDROOT
BRANCH   1   2
ATOM      2  C   UNL     1      46.277   7.381  12.483  0.00  0.00    +0.000 A 
ATOM      3  C   UNL     1      46.791   6.687  11.384  0.00  0.00    +0.000 A 
ATOM      4  C   UNL     1      45.956   5.882  10.598  0.00  0.00    +0.000 A 
ATOM      5  C   UNL     1      44.589   5.745  10.879  0.00  0.00    +0.000 A 
ATOM      6  C   UNL     1      44.070   6.504  11.932  0.00  0.00    +0.000 A 
ATOM      7  C   UNL     1      44.901   7.301  12.732  0.00  0.00    +0.000 A 
BRANCH   5   8
ATOM      8  N   UNL     1      43.723   4.886  10.174  0.00  0.00    +0.000 N 
ATOM      9  H   UNL     1      42.757   5.213  10.130  0.00  0.00    +0.000 HD
BRANCH   8  10
ATOM     10  C   UNL     1      44.232   4.379   8.896  0.00  0.00    +0.000 C 
BRANCH  10  11
ATOM     11  C   UNL     1      44.579   2.868   8.911  0.00  0.00    +0.000 C 
BRANCH  11  12
ATOM     12  N   UNL     1      45.425   2.435   7.768  0.00  0.00    +0.000 NA
ATOM     13  C   UNL     1      46.155   3.582   7.197  0.00  0.00    +0.000 C 
ATOM     14  C   UNL     1      46.982   3.179   5.979  0.00  0.00    +0.000 C 
ATOM     15  C   UNL     1      47.941   2.044   6.306  0.00  0.00    +0.000 C 
ATOM     16  C   UNL     1      47.183   0.888   6.943  0.00  0.00    +0.000 C 
ATOM     17  C   UNL     1      46.362   1.362   8.146  0.00  0.00    +0.000 C 
ENDBRANCH  11  12
ENDBRANCH  10  11
ENDBRANCH   8  10
ENDBRANCH   5   8
ENDBRANCH   1   2
BRANCH   1  20
ATOM     18  C   UNL     1      48.899   7.150  14.767  0.00  0.00    +0.000 C 
ATOM     19  O   UNL     1      49.805   7.472  13.986  0.00  0.00    +0.000 OA
ATOM     20  N   UNL     1      47.602   7.478  14.530  0.00  0.00    +0.000 N 
ATOM     21  H   UNL     1      46.871   7.112  15.121  0.00  0.00    +0.000 HD
BRANCH  18  29
ATOM     22  C   UNL     1      47.413   4.439  16.241  0.00  0.00    +0.000 A 
ATOM     23  N   UNL     1      47.020   3.414  17.020  0.00  0.00    +0.000 NA
ATOM     24  C   UNL     1      47.707   3.178  18.133  0.00  0.00    +0.000 A 
ATOM     25  N   UNL     1      48.760   3.859  18.585  0.00  0.00    +0.000 NA
ATOM     26  C   UNL     1      49.115   4.871  17.785  0.00  0.00    +0.000 A 
ATOM     27  S   UNL     1      50.442   5.847  18.201  0.00  0.00    +0.000 S 
ATOM     28  C   UNL     1      50.247   6.798  16.807  0.00  0.00    +0.000 A 
ATOM     29  C   UNL     1      49.186   6.398  15.999  0.00  0.00    +0.000 A 
ATOM     30  C   UNL     1      48.511   5.244  16.590  0.00  0.00    +0.000 A 
BRANCH  22  32
ATOM     31  C   UNL     1      47.058   3.590  14.112  0.00  0.00    +0.000 C 
ATOM     32  O   UNL     1      46.746   4.615  15.051  0.00  0.00    +0.000 OA
ENDBRANCH  22  32
ENDBRANCH  18  29
ENDBRANCH   1  20
TORSDOF 8
ENDMDL
MODEL 2
REMARK VINA RESULT:    -7.659      1.683      2.279
REMARK INTER + INTRA:         -12.555
REMARK INTER:                 -11.497
REMARK INTRA:                  -1.058
REMARK UNBOUND:                -1.315
REMARK  Name = 
REMARK  9 active torsions:
REMARK  status: ('A' for Active; 'I' for Inactive)
REMARK    1  A    between atoms: C_1  and  O_2
REMARK    2  A    between atoms: O_2  and  C_3
REMARK    3  A    between atoms: C_10  and  C_11
REMARK    4  A    between atoms: N_13  and  C_14
REMARK    5  A    between atoms: C_14  and  C_15
REMARK    6  A    between atoms: C_18  and  N_19
REMARK    7  A    between atoms: N_19  and  C_20
REMARK    8  A    between atoms: C_20  and  C_21
REMARK    9  A    between atoms: C_21  and  N_22
REMARK                            x       y       z     vdW  Elec       q    Type
REMARK                         _______ _______ _______ _____ _____    ______ ____
ROOT
ATOM      1  C   UNL     1      47.960   7.303  13.501  0.00  0.00    +0.000 C 
ENDROOT
BRANCH   1   2
ATOM      2  C   UNL     1      47.105   6.162  13.007  0.00  0.00    +0.000 A 
ATOM      3  C   UNL     1      47.095   4.938  13.681  0.00  0.00    +0.000 A 
ATOM      4  C   UNL     1      46.267   3.895  13.247  0.00  0.00    +0.000 A 
ATOM      5  C   UNL     1      45.426   4.037  12.133  0.00  0.00    +0.000 A 
ATOM      6  C   UNL     1      45.502   5.238  11.420  0.00  0.00    +0.000 A 
ATOM      7  C   UNL     1      46.318   6.291  11.856  0.00  0.00    +0.000 A 
BRANCH   5   8
ATOM      8  N   UNL     1      44.515   3.053  11.705  0.00  0.00    +0.000 N 
ATOM      9  H   UNL     1      43.750   2.880  12.359  0.00  0.00    +0.000 HD
BRANCH   8  10
ATOM     10  C   UNL     1      44.082   3.151  10.308  0.00  0.00    +0.000 C 
BRANCH  10  11
ATOM     11  C   UNL     1      44.572   1.983   9.414  0.00  0.00    +0.000 C 
BRANCH  11  12
ATOM     12  N   UNL     1      45.760   2.318   8.585  0.00  0.00    +0.000 NA
ATOM     13  C   UNL     1      46.301   1.109   7.938  0.00  0.00    +0.000 C 
ATOM     14  C   UNL     1      47.561   1.411   7.132  0.00  0.00    +0.000 C 
ATOM     15  C   UNL     1      47.318   2.506   6.104  0.00  0.00    +0.000 C 
ATOM     16  C   UNL     1      46.712   3.728   6.777  0.00  0.00    +0.000 C 
ATOM     17  C   UNL     1      45.462   3.354   7.580  0.00  0.00    +0.000 C 
ENDBRANCH  11  12
ENDBRANCH  10  11
ENDBRANCH   8  10
ENDBRANCH   5   8
ENDBRANCH   1   2
BRANCH   1  20
ATOM     18  C   UNL     1      49.079   7.047  15.677  0.00  0.00    +0.000 C 
ATOM     19  O   UNL     1      50.138   6.692  15.143  0.00  0.00    +0.000 OA
ATOM     20  N   UNL     1      47.980   7.364  14.943  0.00  0.00    +0.000 N 
ATOM     21  H   UNL     1      47.099   7.544  15.401  0.00  0.00    +0.000 HD
BRANCH  18  29
ATOM     22  C   UNL     1      48.963   4.706  18.174  0.00  0.00    +0.000 A 
ATOM     23  N   UNL     1      48.885   4.007  19.322  0.00  0.00    +0.000 NA
ATOM     24  C   UNL     1      48.760   4.685  20.457  0.00  0.00    +0.000 A 
ATOM     25  N   UNL     1      48.691   6.010  20.597  0.00  0.00    +0.000 NA
ATOM     26  C   UNL     1      48.768   6.667  19.432  0.00  0.00    +0.000 A 
ATOM     27  S   UNL     1      48.703   8.363  19.418  0.00  0.00    +0.000 S 
ATOM     28  C   UNL     1      48.852   8.407  17.726  0.00  0.00    +0.000 A 
ATOM     29  C   UNL     1      48.960   7.150  17.140  0.00  0.00    +0.000 A 
ATOM     30  C   UNL     1      48.908   6.110  18.167  0.00  0.00    +0.000 A 
BRANCH  22  32
ATOM     31  C   UNL     1      48.138   3.051  16.773  0.00  0.00    +0.000 C 
ATOM     32  O   UNL     1      49.179   3.992  17.018  0.00  0.00    +0.000 OA
ENDBRANCH  22  32
ENDBRANCH  18  29
ENDBRANCH   1  20
TORSDOF 8
ENDMDL
MODEL 3
REMARK VINA RESULT:    -7.163      2.364      3.022
REMARK INTER + INTRA:         -11.828
REMARK INTER:                 -10.729
REMARK INTRA:                  -1.099
REMARK UNBOUND:                -1.315
REMARK  Name = 
REMARK  9 active torsions:
REMARK  status: ('A' for Active; 'I' for Inactive)
REMARK    1  A    between atoms: C_1  and  O_2
REMARK    2  A    between atoms: O_2  and  C_3
REMARK    3  A    between atoms: C_10  and  C_11
REMARK    4  A    between atoms: N_13  and  C_14
REMARK    5  A    between atoms: C_14  and  C_15
REMARK    6  A    between atoms: C_18  and  N_19
REMARK    7  A    between atoms: N_19  and  C_20
REMARK    8  A    between atoms: C_20  and  C_21
REMARK    9  A    between atoms: C_21  and  N_22
REMARK                            x       y       z     vdW  Elec       q    Type
REMARK                         _______ _______ _______ _____ _____    ______ ____
ROOT
ATOM      1  C   UNL     1      48.372   6.660  13.930  0.00  0.00    +0.000 C 
ENDROOT
BRANCH   1   2
ATOM      2  C   UNL     1      47.172   6.191  13.146  0.00  0.00    +0.000 A 
ATOM      3  C   UNL     1      46.904   6.715  11.877  0.00  0.00    +0.000 A 
ATOM      4  C   UNL     1      45.815   6.246  11.131  0.00  0.00    +0.000 A 
ATOM      5  C   UNL     1      44.963   5.246  11.621  0.00  0.00    +0.000 A 
ATOM      6  C   UNL     1      45.193   4.785  12.922  0.00  0.00    +0.000 A 
ATOM      7  C   UNL     1      46.289   5.239  13.670  0.00  0.00    +0.000 A 
BRANCH   5   8
ATOM      8  N   UNL     1      43.906   4.681  10.881  0.00  0.00    +0.000 N 
ATOM      9  H   UNL     1      43.013   5.162  10.995  0.00  0.00    +0.000 HD
BRANCH   8  10
ATOM     10  C   UNL     1      44.216   4.338   9.490  0.00  0.00    +0.000 C 
BRANCH  10  11
ATOM     11  C   UNL     1      44.417   2.820   9.245  0.00  0.00    +0.000 C 
BRANCH  11  12
ATOM     12  N   UNL     1      45.273   2.509   8.071  0.00  0.00    +0.000 NA
ATOM     13  C   UNL     1      45.997   3.713   7.621  0.00  0.00    +0.000 C 
ATOM     14  C   UNL     1      46.835   3.440   6.375  0.00  0.00    +0.000 C 
ATOM     15  C   UNL     1      47.801   2.285   6.594  0.00  0.00    +0.000 C 
ATOM     16  C   UNL     1      47.049   1.066   7.107  0.00  0.00    +0.000 C 
ATOM     17  C   UNL     1      46.217   1.411   8.346  0.00  0.00    +0.000 C 
ENDBRANCH  11  12
ENDBRANCH  10  11
ENDBRANCH   8  10
ENDBRANCH   5   8
ENDBRANCH   1   2
BRANCH   1  20
ATOM     18  C   UNL     1      49.134   6.363  16.250  0.00  0.00    +0.000 C 
ATOM     19  O   UNL     1      50.312   6.223  15.895  0.00  0.00    +0.000 OA
ATOM     20  N   UNL     1      48.139   6.583  15.353  0.00  0.00    +0.000 N 
ATOM     21  H   UNL     1      47.176   6.584  15.654  0.00  0.00    +0.000 HD
BRANCH  18  29
ATOM     22  C   UNL     1      47.832   8.678  18.412  0.00  0.00    +0.000 A 
ATOM     23  N   UNL     1      47.342   9.383  19.449  0.00  0.00    +0.000 NA
ATOM     24  C   UNL     1      47.215   8.765  20.618  0.00  0.00    +0.000 A 
ATOM     25  N   UNL     1      47.532   7.500  20.895  0.00  0.00    +0.000 NA
ATOM     26  C   UNL     1      48.019   6.836  19.839  0.00  0.00    +0.000 A 
ATOM     27  S   UNL     1      48.473   5.208  20.005  0.00  0.00    +0.000 S 
ATOM     28  C   UNL     1      48.937   5.116  18.373  0.00  0.00    +0.000 A 
ATOM     29  C   UNL     1      48.755   6.304  17.671  0.00  0.00    +0.000 A 
ATOM     30  C   UNL     1      48.206   7.331  18.554  0.00  0.00    +0.000 A 
BRANCH  22  32
ATOM     31  C   UNL     1      48.993  10.184  17.084  0.00  0.00    +0.000 C 
ATOM     32  O   UNL     1      47.874   9.308  17.189  0.00  0.00    +0.000 OA
ENDBRANCH  22  32
ENDBRANCH  18  29
ENDBRANCH   1  20
TORSDOF 8
ENDMDL
MODEL 4
REMARK VINA RESULT:    -6.956      2.218      3.562
REMARK INTER + INTRA:         -11.524
REMARK INTER:                 -10.518
REMARK INTRA:                  -1.005
REMARK UNBOUND:                -1.315
REMARK  Name = 
REMARK  9 active torsions:
REMARK  status: ('A' for Active; 'I' for Inactive)
REMARK    1  A    between atoms: C_1  and  O_2
REMARK    2  A    between atoms: O_2  and  C_3
REMARK    3  A    between atoms: C_10  and  C_11
REMARK    4  A    between atoms: N_13  and  C_14
REMARK    5  A    between atoms: C_14  and  C_15
REMARK    6  A    between atoms: C_18  and  N_19
REMARK    7  A    between atoms: N_19  and  C_20
REMARK    8  A    between atoms: C_20  and  C_21
REMARK    9  A    between atoms: C_21  and  N_22
REMARK                            x       y       z     vdW  Elec       q    Type
REMARK                         _______ _______ _______ _____ _____    ______ ____
ROOT
ATOM      1  C   UNL     1      47.360   4.015  15.398  0.00  0.00    +0.000 C 
ENDROOT
BRANCH   1   2
ATOM      2  C   UNL     1      46.772   4.409  14.066  0.00  0.00    +0.000 A 
ATOM      3  C   UNL     1      46.117   3.464  13.270  0.00  0.00    +0.000 A 
ATOM      4  C   UNL     1      45.533   3.841  12.055  0.00  0.00    +0.000 A 
ATOM      5  C   UNL     1      45.582   5.165  11.594  0.00  0.00    +0.000 A 
ATOM      6  C   UNL     1      46.305   6.085  12.358  0.00  0.00    +0.000 A 
ATOM      7  C   UNL     1      46.882   5.719  13.583  0.00  0.00    +0.000 A 
BRANCH   5   8
ATOM      8  N   UNL     1      44.941   5.614  10.423  0.00  0.00    +0.000 N 
ATOM      9  H   UNL     1      44.780   6.622  10.396  0.00  0.00    +0.000 HD
BRANCH   8  10
ATOM     10  C   UNL     1      45.457   5.067   9.165  0.00  0.00    +0.000 C 
BRANCH  10  11
ATOM     11  C   UNL     1      44.569   3.954   8.551  0.00  0.00    +0.000 C 
BRANCH  11  12
ATOM     12  N   UNL     1      45.327   2.952   7.756  0.00  0.00    +0.000 NA
ATOM     13  C   UNL     1      46.412   3.602   6.998  0.00  0.00    +0.000 C 
ATOM     14  C   UNL     1      47.166   2.608   6.119  0.00  0.00    +0.000 C 
ATOM     15  C   UNL     1      47.706   1.441   6.933  0.00  0.00    +0.000 C 
ATOM     16  C   UNL     1      46.587   0.813   7.750  0.00  0.00    +0.000 C 
ATOM     17  C   UNL     1      45.861   1.865   8.595  0.00  0.00    +0.000 C 
ENDBRANCH  11  12
ENDBRANCH  10  11
ENDBRANCH   8  10
ENDBRANCH   5   8
ENDBRANCH   1   2
BRANCH   1  20
ATOM     18  C   UNL     1      48.547   5.525  16.934  0.00  0.00    +0.000 C 
ATOM     19  O   UNL     1      49.624   4.941  16.749  0.00  0.00    +0.000 OA
ATOM     20  N   UNL     1      47.407   5.133  16.309  0.00  0.00    +0.000 N 
ATOM     21  H   UNL     1      46.523   5.552  16.558  0.00  0.00    +0.000 HD
BRANCH  18  29
ATOM     22  C   UNL     1      48.708   8.907  16.423  0.00  0.00    +0.000 A 
ATOM     23  N   UNL     1      48.745  10.251  16.498  0.00  0.00    +0.000 NA
ATOM     24  C   UNL     1      48.607  10.811  17.695  0.00  0.00    +0.000 A 
ATOM     25  N   UNL     1      48.441  10.184  18.860  0.00  0.00    +0.000 NA
ATOM     26  C   UNL     1      48.414   8.851  18.741  0.00  0.00    +0.000 A 
ATOM     27  S   UNL     1      48.205   7.887  20.124  0.00  0.00    +0.000 S 
ATOM     28  C   UNL     1      48.277   6.460  19.204  0.00  0.00    +0.000 A 
ATOM     29  C   UNL     1      48.453   6.680  17.841  0.00  0.00    +0.000 A 
ATOM     30  C   UNL     1      48.535   8.114  17.569  0.00  0.00    +0.000 A 
BRANCH  22  32
ATOM     31  C   UNL     1      47.968   9.066  14.230  0.00  0.00    +0.000 C 
ATOM     32  O   UNL     1      48.765   8.348  15.167  0.00  0.00    +0.000 OA
ENDBRANCH  22  32
ENDBRANCH  18  29
ENDBRANCH   1  20
TORSDOF 8
ENDMDL
MODEL 5
REMARK VINA RESULT:    -6.917      2.099      3.441
REMARK INTER + INTRA:         -11.467
REMARK INTER:                 -10.501
REMARK INTRA:                  -0.966
REMARK UNBOUND:                -1.315
REMARK  Name = 
REMARK  9 active torsions:
REMARK  status: ('A' for Active; 'I' for Inactive)
REMARK    1  A    between atoms: C_1  and  O_2
REMARK    2  A    between atoms: O_2  and  C_3
REMARK    3  A    between atoms: C_10  and  C_11
REMARK    4  A    between atoms: N_13  and  C_14
REMARK    5  A    between atoms: C_14  and  C_15
REMARK    6  A    between atoms: C_18  and  N_19
REMARK    7  A    between atoms: N_19  and  C_20
REMARK    8  A    between atoms: C_20  and  C_21
REMARK    9  A    between atoms: C_21  and  N_22
REMARK                            x       y       z     vdW  Elec       q    Type
REMARK                         _______ _______ _______ _____ _____    ______ ____
ROOT
ATOM      1  C   UNL     1      47.524   3.212  15.056  0.00  0.00    +0.000 C 
ENDROOT
BRANCH   1   2
ATOM      2  C   UNL     1      46.915   3.865  13.840  0.00  0.00    +0.000 A 
ATOM      3  C   UNL     1      46.011   3.165  13.035  0.00  0.00    +0.000 A 
ATOM      4  C   UNL     1      45.413   3.788  11.933  0.00  0.00    +0.000 A 
ATOM      5  C   UNL     1      45.694   5.120  11.598  0.00  0.00    +0.000 A 
ATOM      6  C   UNL     1      46.657   5.786  12.362  0.00  0.00    +0.000 A 
ATOM      7  C   UNL     1      47.251   5.175  13.475  0.00  0.00    +0.000 A 
BRANCH   5   8
ATOM      8  N   UNL     1      45.059   5.819  10.553  0.00  0.00    +0.000 N 
ATOM      9  H   UNL     1      45.114   6.836  10.637  0.00  0.00    +0.000 HD
BRANCH   8  10
ATOM     10  C   UNL     1      45.331   5.325   9.199  0.00  0.00    +0.000 C 
BRANCH  10  11
ATOM     11  C   UNL     1      44.527   4.055   8.820  0.00  0.00    +0.000 C 
BRANCH  11  12
ATOM     12  N   UNL     1      45.283   3.099   7.968  0.00  0.00    +0.000 NA
ATOM     13  C   UNL     1      46.444   3.761   7.346  0.00  0.00    +0.000 C 
ATOM     14  C   UNL     1      47.203   2.822   6.413  0.00  0.00    +0.000 C 
ATOM     15  C   UNL     1      47.632   1.550   7.131  0.00  0.00    +0.000 C 
ATOM     16  C   UNL     1      46.435   0.905   7.811  0.00  0.00    +0.000 C 
ATOM     17  C   UNL     1      45.710   1.904   8.719  0.00  0.00    +0.000 C 
ENDBRANCH  11  12
ENDBRANCH  10  11
ENDBRANCH   8  10
ENDBRANCH   5   8
ENDBRANCH   1   2
BRANCH   1  20
ATOM     18  C   UNL     1      47.400   4.175  17.316  0.00  0.00    +0.000 C 
ATOM     19  O   UNL     1      46.596   3.310  17.691  0.00  0.00    +0.000 OA
ATOM     20  N   UNL     1      47.897   4.188  16.052  0.00  0.00    +0.000 N 
ATOM     21  H   UNL     1      48.462   4.962  15.737  0.00  0.00    +0.000 HD
BRANCH  18  29
ATOM     22  C   UNL     1      50.506   5.400  18.079  0.00  0.00    +0.000 A 
ATOM     23  N   UNL     1      51.588   6.043  18.558  0.00  0.00    +0.000 NA
ATOM     24  C   UNL     1      51.395   6.994  19.465  0.00  0.00    +0.000 A 
ATOM     25  N   UNL     1      50.230   7.391  19.978  0.00  0.00    +0.000 NA
ATOM     26  C   UNL     1      49.181   6.724  19.478  0.00  0.00    +0.000 A 
ATOM     27  S   UNL     1      47.614   7.100  20.012  0.00  0.00    +0.000 S 
ATOM     28  C   UNL     1      46.929   5.925  18.994  0.00  0.00    +0.000 A 
ATOM     29  C   UNL     1      47.862   5.233  18.229  0.00  0.00    +0.000 A 
ATOM     30  C   UNL     1      49.211   5.714  18.524  0.00  0.00    +0.000 A 
BRANCH  22  32
ATOM     31  C   UNL     1      51.112   3.214  17.596  0.00  0.00    +0.000 C 
ATOM     32  O   UNL     1      50.715   4.480  17.077  0.00  0.00    +0.000 OA
ENDBRANCH  22  32
ENDBRANCH  18  29
ENDBRANCH   1  20
TORSDOF 8
ENDMDL
MODEL 6
REMARK VINA RESULT:    -6.825      2.522      3.269
REMARK INTER + INTRA:         -11.332
REMARK INTER:                 -10.252
REMARK INTRA:                  -1.080
REMARK UNBOUND:                -1.315
REMARK  Name = 
REMARK  9 active torsions:
REMARK  status: ('A' for Active; 'I' for Inactive)
REMARK    1  A    between atoms: C_1  and  O_2
REMARK    2  A    between atoms: O_2  and  C_3
REMARK    3  A    between atoms: C_10  and  C_11
REMARK    4  A    between atoms: N_13  and  C_14
REMARK    5  A    between atoms: C_14  and  C_15
REMARK    6  A    between atoms: C_18  and  N_19
REMARK    7  A    between atoms: N_19  and  C_20
REMARK    8  A    between atoms: C_20  and  C_21
REMARK    9  A    between atoms: C_21  and  N_22
REMARK                            x       y       z     vdW  Elec       q    Type
REMARK                         _______ _______ _______ _____ _____    ______ ____
ROOT
ATOM      1  C   UNL     1      47.511   4.253  15.455  0.00  0.00    +0.000 C 
ENDROOT
BRANCH   1   2
ATOM      2  C   UNL     1      46.760   4.502  14.171  0.00  0.00    +0.000 A 
ATOM      3  C   UNL     1      46.540   5.806  13.718  0.00  0.00    +0.000 A 
ATOM      4  C   UNL     1      45.881   6.034  12.503  0.00  0.00    +0.000 A 
ATOM      5  C   UNL     1      45.422   4.976  11.705  0.00  0.00    +0.000 A 
ATOM      6  C   UNL     1      45.577   3.679  12.204  0.00  0.00    +0.000 A 
ATOM      7  C   UNL     1      46.248   3.442  13.413  0.00  0.00    +0.000 A 
BRANCH   5   8
ATOM      8  N   UNL     1      44.830   5.146  10.438  0.00  0.00    +0.000 N 
ATOM      9  H   UNL     1      45.316   5.813   9.837  0.00  0.00    +0.000 HD
BRANCH   8  10
ATOM     10  C   UNL     1      44.435   3.913   9.750  0.00  0.00    +0.000 C 
BRANCH  10  11
ATOM     11  C   UNL     1      44.450   4.023   8.204  0.00  0.00    +0.000 C 
BRANCH  11  12
ATOM     12  N   UNL     1      45.289   2.993   7.537  0.00  0.00    +0.000 NA
ATOM     13  C   UNL     1      46.405   3.624   6.807  0.00  0.00    +0.000 C 
ATOM     14  C   UNL     1      47.247   2.595   6.057  0.00  0.00    +0.000 C 
ATOM     15  C   UNL     1      47.763   1.509   6.990  0.00  0.00    +0.000 C 
ATOM     16  C   UNL     1      46.608   0.903   7.774  0.00  0.00    +0.000 C 
ATOM     17  C   UNL     1      45.796   1.988   8.488  0.00  0.00    +0.000 C 
ENDBRANCH  11  12
ENDBRANCH  10  11
ENDBRANCH   8  10
ENDBRANCH   5   8
ENDBRANCH   1   2
BRANCH   1  20
ATOM     18  C   UNL     1      48.654   6.249  16.327  0.00  0.00    +0.000 C 
ATOM     19  O   UNL     1      49.669   6.018  15.657  0.00  0.00    +0.000 OA
ATOM     20  N   UNL     1      47.565   5.438  16.277  0.00  0.00    +0.000 N 
ATOM     21  H   UNL     1      46.794   5.584  16.911  0.00  0.00    +0.000 HD
BRANCH  18  29
ATOM     22  C   UNL     1      47.769   6.636  19.613  0.00  0.00    +0.000 A 
ATOM     23  N   UNL     1      47.463   7.059  20.854  0.00  0.00    +0.000 NA
ATOM     24  C   UNL     1      47.570   8.358  21.113  0.00  0.00    +0.000 A 
ATOM     25  N   UNL     1      47.943   9.317  20.266  0.00  0.00    +0.000 NA
ATOM     26  C   UNL     1      48.233   8.855  19.043  0.00  0.00    +0.000 A 
ATOM     27  S   UNL     1      48.733   9.937  17.832  0.00  0.00    +0.000 S 
ATOM     28  C   UNL     1      48.889   8.679  16.700  0.00  0.00    +0.000 A 
ATOM     29  C   UNL     1      48.575   7.423  17.211  0.00  0.00    +0.000 A 
ATOM     30  C   UNL     1      48.182   7.535  18.615  0.00  0.00    +0.000 A 
BRANCH  22  32
ATOM     31  C   UNL     1      48.954   4.649  19.779  0.00  0.00    +0.000 C 
ATOM     32  O   UNL     1      47.737   5.279  19.387  0.00  0.00    +0.000 OA
ENDBRANCH  22  32
ENDBRANCH  18  29
ENDBRANCH   1  20
TORSDOF 8
ENDMDL
MODEL 7
REMARK VINA RESULT:    -6.768      1.684      2.311
REMARK INTER + INTRA:         -11.248
REMARK INTER:                 -10.245
REMARK INTRA:                  -1.003
REMARK UNBOUND:                -1.315
REMARK  Name = 
REMARK  9 active torsions:
REMARK  status: ('A' for Active; 'I' for Inactive)
REMARK    1  A    between atoms: C_1  and  O_2
REMARK    2  A    between atoms: O_2  and  C_3
REMARK    3  A    between atoms: C_10  and  C_11
REMARK    4  A    between atoms: N_13  and  C_14
REMARK    5  A    between atoms: C_14  and  C_15
REMARK    6  A    between atoms: C_18  and  N_19
REMARK    7  A    between atoms: N_19  and  C_20
REMARK    8  A    between atoms: C_20  and  C_21
REMARK    9  A    between atoms: C_21  and  N_22
REMARK                            x       y       z     vdW  Elec       q    Type
REMARK                         _______ _______ _______ _____ _____    ______ ____
ROOT
ATOM      1  C   UNL     1      47.695   8.245  13.739  0.00  0.00    +0.000 C 
ENDROOT
BRANCH   1   2
ATOM      2  C   UNL     1      46.705   7.230  13.223  0.00  0.00    +0.000 A 
ATOM      3  C   UNL     1      45.510   7.644  12.625  0.00  0.00    +0.000 A 
ATOM      4  C   UNL     1      44.613   6.701  12.106  0.00  0.00    +0.000 A 
ATOM      5  C   UNL     1      44.874   5.325  12.167  0.00  0.00    +0.000 A 
ATOM      6  C   UNL     1      46.033   4.919  12.836  0.00  0.00    +0.000 A 
ATOM      7  C   UNL     1      46.943   5.856  13.346  0.00  0.00    +0.000 A 
BRANCH   5   8
ATOM      8  N   UNL     1      44.048   4.342  11.588  0.00  0.00    +0.000 N 
ATOM      9  H   UNL     1      43.082   4.361  11.919  0.00  0.00    +0.000 HD
BRANCH   8  10
ATOM     10  C   UNL     1      44.169   4.184  10.135  0.00  0.00    +0.000 C 
BRANCH  10  11
ATOM     11  C   UNL     1      44.520   2.742   9.687  0.00  0.00    +0.000 C 
BRANCH  11  12
ATOM     12  N   UNL     1      45.671   2.669   8.747  0.00  0.00    +0.000 NA
ATOM     13  C   UNL     1      45.891   1.281   8.302  0.00  0.00    +0.000 C 
ATOM     14  C   UNL     1      47.107   1.164   7.387  0.00  0.00    +0.000 C 
ATOM     15  C   UNL     1      46.999   2.100   6.192  0.00  0.00    +0.000 C 
ATOM     16  C   UNL     1      46.720   3.519   6.664  0.00  0.00    +0.000 C 
ATOM     17  C   UNL     1      45.499   3.564   7.588  0.00  0.00    +0.000 C 
ENDBRANCH  11  12
ENDBRANCH  10  11
ENDBRANCH   8  10
ENDBRANCH   5   8
ENDBRANCH   1   2
BRANCH   1  20
ATOM     18  C   UNL     1      49.162   7.651  15.622  0.00  0.00    +0.000 C 
ATOM     19  O   UNL     1      48.434   8.237  16.434  0.00  0.00    +0.000 OA
ATOM     20  N   UNL     1      48.864   7.609  14.297  0.00  0.00    +0.000 N 
ATOM     21  H   UNL     1      49.525   7.222  13.641  0.00  0.00    +0.000 HD
BRANCH  18  29
ATOM     22  C   UNL     1      49.715   4.822  17.472  0.00  0.00    +0.000 A 
ATOM     23  N   UNL     1      50.201   3.776  18.166  0.00  0.00    +0.000 NA
ATOM     24  C   UNL     1      51.520   3.642  18.248  0.00  0.00    +0.000 A 
ATOM     25  N   UNL     1      52.443   4.447  17.720  0.00  0.00    +0.000 NA
ATOM     26  C   UNL     1      51.918   5.476  17.042  0.00  0.00    +0.000 A 
ATOM     27  S   UNL     1      52.945   6.603  16.296  0.00  0.00    +0.000 S 
ATOM     28  C   UNL     1      51.625   7.496  15.708  0.00  0.00    +0.000 A 
ATOM     29  C   UNL     1      50.388   6.962  16.055  0.00  0.00    +0.000 A 
ATOM     30  C   UNL     1      50.569   5.752  16.856  0.00  0.00    +0.000 A 
BRANCH  22  32
ATOM     31  C   UNL     1      47.862   3.923  16.404  0.00  0.00    +0.000 C 
ATOM     32  O   UNL     1      48.349   4.896  17.323  0.00  0.00    +0.000 OA
ENDBRANCH  22  32
ENDBRANCH  18  29
ENDBRANCH   1  20
TORSDOF 8
ENDMDL
MODEL 8
REMARK VINA RESULT:    -6.439      4.769      9.289
REMARK INTER + INTRA:         -10.764
REMARK INTER:                  -9.848
REMARK INTRA:                  -0.916
REMARK UNBOUND:                -1.315
REMARK  Name = 
REMARK  9 active torsions:
REMARK  status: ('A' for Active; 'I' for Inactive)
REMARK    1  A    between atoms: C_1  and  O_2
REMARK    2  A    between atoms: O_2  and  C_3
REMARK    3  A    between atoms: C_10  and  C_11
REMARK    4  A    between atoms: N_13  and  C_14
REMARK    5  A    between atoms: C_14  and  C_15
REMARK    6  A    between atoms: C_18  and  N_19
REMARK    7  A    between atoms: N_19  and  C_20
REMARK    8  A    between atoms: C_20  and  C_21
REMARK    9  A    between atoms: C_21  and  N_22
REMARK                            x       y       z     vdW  Elec       q    Type
REMARK                         _______ _______ _______ _____ _____    ______ ____
ROOT
ATOM      1  C   UNL     1      47.240   3.369  16.782  0.00  0.00    +0.000 C 
ENDROOT
BRANCH   1   2
ATOM      2  C   UNL     1      48.717   3.279  17.077  0.00  0.00    +0.000 A 
ATOM      3  C   UNL     1      49.419   4.398  17.533  0.00  0.00    +0.000 A 
ATOM      4  C   UNL     1      50.781   4.302  17.849  0.00  0.00    +0.000 A 
ATOM      5  C   UNL     1      51.482   3.095  17.721  0.00  0.00    +0.000 A 
ATOM      6  C   UNL     1      50.790   2.002  17.190  0.00  0.00    +0.000 A 
ATOM      7  C   UNL     1      49.424   2.086  16.884  0.00  0.00    +0.000 A 
BRANCH   5   8
ATOM      8  N   UNL     1      52.827   2.922  18.103  0.00  0.00    +0.000 N 
ATOM      9  H   UNL     1      52.993   3.029  19.105  0.00  0.00    +0.000 HD
BRANCH   8  10
ATOM     10  C   UNL     1      53.513   1.768  17.514  0.00  0.00    +0.000 C 
BRANCH  10  11
ATOM     11  C   UNL     1      54.323   0.929  18.535  0.00  0.00    +0.000 C 
BRANCH  11  12
ATOM     12  N   UNL     1      54.958  -0.281  17.948  0.00  0.00    +0.000 NA
ATOM     13  C   UNL     1      54.535  -1.494  18.674  0.00  0.00    +0.000 C 
ATOM     14  C   UNL     1      55.222  -2.746  18.136  0.00  0.00    +0.000 C 
ATOM     15  C   UNL     1      54.993  -2.910  16.641  0.00  0.00    +0.000 C 
ATOM     16  C   UNL     1      55.384  -1.634  15.910  0.00  0.00    +0.000 C 
ATOM     17  C   UNL     1      54.674  -0.415  16.508  0.00  0.00    +0.000 C 
ENDBRANCH  11  12
ENDBRANCH  10  11
ENDBRANCH   8  10
ENDBRANCH   5   8
ENDBRANCH   1   2
BRANCH   1  20
ATOM     18  C   UNL     1      46.949   4.205  14.487  0.00  0.00    +0.000 C 
ATOM     19  O   UNL     1      47.189   3.091  14.001  0.00  0.00    +0.000 OA
ATOM     20  N   UNL     1      46.952   4.414  15.830  0.00  0.00    +0.000 N 
ATOM     21  H   UNL     1      46.863   5.350  16.197  0.00  0.00    +0.000 HD
BRANCH  18  29
ATOM     22  C   UNL     1      44.184   5.088  12.670  0.00  0.00    +0.000 A 
ATOM     23  N   UNL     1      43.253   5.652  11.878  0.00  0.00    +0.000 NA
ATOM     24  C   UNL     1      43.554   6.804  11.286  0.00  0.00    +0.000 A 
ATOM     25  N   UNL     1      44.700   7.478  11.379  0.00  0.00    +0.000 NA
ATOM     26  C   UNL     1      45.599   6.881  12.172  0.00  0.00    +0.000 A 
ATOM     27  S   UNL     1      47.119   7.601  12.411  0.00  0.00    +0.000 S 
ATOM     28  C   UNL     1      47.611   6.342  13.441  0.00  0.00    +0.000 A 
ATOM     29  C   UNL     1      46.643   5.361  13.629  0.00  0.00    +0.000 A 
ATOM     30  C   UNL     1      45.440   5.688  12.866  0.00  0.00    +0.000 A 
BRANCH  22  32
ATOM     31  C   UNL     1      43.596   2.855  12.453  0.00  0.00    +0.000 C 
ATOM     32  O   UNL     1      43.825   3.943  13.343  0.00  0.00    +0.000 OA
ENDBRANCH  22  32
ENDBRANCH  18  29
ENDBRANCH   1  20
TORSDOF 8
ENDMDL
MODEL 9
REMARK VINA RESULT:    -6.282      3.660      8.982
REMARK INTER + INTRA:         -10.534
REMARK INTER:                  -8.869
REMARK INTRA:                  -1.665
REMARK UNBOUND:                -1.315
REMARK  Name = 
REMARK  9 active torsions:
REMARK  status: ('A' for Active; 'I' for Inactive)
REMARK    1  A    between atoms: C_1  and  O_2
REMARK    2  A    between atoms: O_2  and  C_3
REMARK    3  A    between atoms: C_10  and  C_11
REMARK    4  A    between atoms: N_13  and  C_14
REMARK    5  A    between atoms: C_14  and  C_15
REMARK    6  A    between atoms: C_18  and  N_19
REMARK    7  A    between atoms: N_19  and  C_20
REMARK    8  A    between atoms: C_20  and  C_21
REMARK    9  A    between atoms: C_21  and  N_22
REMARK                            x       y       z     vdW  Elec       q    Type
REMARK                         _______ _______ _______ _____ _____    ______ ____
ROOT
ATOM      1  C   UNL     1      47.190   3.369  16.895  0.00  0.00    +0.000 C 
ENDROOT
BRANCH   1   2
ATOM      2  C   UNL     1      48.448   3.700  17.659  0.00  0.00    +0.000 A 
ATOM      3  C   UNL     1      49.690   3.235  17.216  0.00  0.00    +0.000 A 
ATOM      4  C   UNL     1      50.862   3.580  17.901  0.00  0.00    +0.000 A 
ATOM      5  C   UNL     1      50.835   4.395  19.042  0.00  0.00    +0.000 A 
ATOM      6  C   UNL     1      49.582   4.790  19.521  0.00  0.00    +0.000 A 
ATOM      7  C   UNL     1      48.405   4.460  18.834  0.00  0.00    +0.000 A 
BRANCH   5   8
ATOM      8  N   UNL     1      51.988   4.840  19.718  0.00  0.00    +0.000 N 
ATOM      9  H   UNL     1      52.831   4.308  19.499  0.00  0.00    +0.000 HD
BRANCH   8  10
ATOM     10  C   UNL     1      52.195   6.291  19.735  0.00  0.00    +0.000 C 
BRANCH  10  11
ATOM     11  C   UNL     1      52.379   6.916  18.328  0.00  0.00    +0.000 C 
BRANCH  11  12
ATOM     12  N   UNL     1      51.256   7.798  17.911  0.00  0.00    +0.000 NA
ATOM     13  C   UNL     1      50.446   7.148  16.864  0.00  0.00    +0.000 C 
ATOM     14  C   UNL     1      49.324   8.056  16.369  0.00  0.00    +0.000 C 
ATOM     15  C   UNL     1      48.440   8.527  17.514  0.00  0.00    +0.000 C 
ATOM     16  C   UNL     1      49.293   9.148  18.610  0.00  0.00    +0.000 C 
ATOM     17  C   UNL     1      50.408   8.193  19.050  0.00  0.00    +0.000 C 
ENDBRANCH  11  12
ENDBRANCH  10  11
ENDBRANCH   8  10
ENDBRANCH   5   8
ENDBRANCH   1   2
BRANCH   1  20
ATOM     18  C   UNL     1      46.963   4.224  14.600  0.00  0.00    +0.000 C 
ATOM     19  O   UNL     1      47.342   3.150  14.113  0.00  0.00    +0.000 OA
ATOM     20  N   UNL     1      46.860   4.402  15.943  0.00  0.00    +0.000 N 
ATOM     21  H   UNL     1      46.656   5.316  16.319  0.00  0.00    +0.000 HD
BRANCH  18  29
ATOM     22  C   UNL     1      44.216   4.900  12.669  0.00  0.00    +0.000 A 
ATOM     23  N   UNL     1      43.277   5.397  11.842  0.00  0.00    +0.000 NA
ATOM     24  C   UNL     1      43.505   6.578  11.278  0.00  0.00    +0.000 A 
ATOM     25  N   UNL     1      44.586   7.345  11.431  0.00  0.00    +0.000 NA
ATOM     26  C   UNL     1      45.496   6.813  12.257  0.00  0.00    +0.000 A 
ATOM     27  S   UNL     1      46.937   7.654  12.574  0.00  0.00    +0.000 S 
ATOM     28  C   UNL     1      47.487   6.425  13.611  0.00  0.00    +0.000 A 
ATOM     29  C   UNL     1      46.598   5.363  13.743  0.00  0.00    +0.000 A 
ATOM     30  C   UNL     1      45.407   5.600  12.929  0.00  0.00    +0.000 A 
BRANCH  22  32
ATOM     31  C   UNL     1      43.565   2.691  12.393  0.00  0.00    +0.000 C 
ATOM     32  O   UNL     1      43.925   3.719  13.312  0.00  0.00    +0.000 OA
ENDBRANCH  22  32
ENDBRANCH  18  29
ENDBRANCH   1  20
TORSDOF 8
ENDMDL
