MODEL 1
REMARK VINA RESULT:    -7.144      0.000      0.000
REMARK INTER + INTRA:          -9.424
REMARK INTER:                  -9.023
REMARK INTRA:                  -0.401
REMARK UNBOUND:                -0.401
REMARK  Name = 
REMARK  5 active torsions:
REMARK  status: ('A' for Active; 'I' for Inactive)
REMARK    1  A    between atoms: N_1  and  C_2
REMARK    2  A    between atoms: C_2  and  C_3
REMARK    3  A    between atoms: C_3  and  C_4
REMARK    4  A    between atoms: N_8  and  C_9
REMARK    5  A    between atoms: C_9  and  C_10
REMARK                            x       y       z     vdW  Elec       q    Type
REMARK                         _______ _______ _______ _____ _____    ______ ____
ROOT
ATOM      1  C   UNL     1      46.713   5.149  13.692  0.00  0.00    +0.000 A 
ATOM      2  C   UNL     1      46.942   6.081  12.710  0.00  0.00    +0.000 A 
ATOM      3  N   UNL     1      46.281   6.110  11.529  0.00  0.00    +0.000 NA
ATOM      4  C   UNL     1      45.384   5.142  11.326  0.00  0.00    +0.000 A 
ATOM      5  N   UNL     1      44.660   5.198  10.150  0.00  0.00    +0.000 N 
ATOM      6  N   UNL     1      45.099   4.183  12.209  0.00  0.00    +0.000 NA
ATOM      7  C   UNL     1      45.762   4.213  13.387  0.00  0.00    +0.000 A 
ATOM      8  H   UNL     1      44.751   6.052   9.625  0.00  0.00    +0.000 HD
ENDROOT
BRANCH   1   9
ATOM      9  C   UNL     1      47.403   5.181  15.023  0.00  0.00    +0.000 C 
BRANCH   9  10
ATOM     10  C   UNL     1      47.493   3.782  15.643  0.00  0.00    +0.000 C 
BRANCH  10  11
ATOM     11  N   UNL     1      46.728   3.713  16.884  0.00  0.00    +0.000 NA
ATOM     12  H   UNL     1      46.127   2.889  16.865  0.00  0.00    +0.000 HD
ATOM     13  H   UNL     1      46.101   4.516  16.952  0.00  0.00    +0.000 HD
ENDBRANCH  10  11
ENDBRANCH   9  10
ENDBRANCH   1   9
BRANCH   5  14
ATOM     14  C   UNL     1      44.213   3.975   9.537  0.00  0.00    +0.000 C 
BRANCH  14  15
ATOM     15  C   UNL     1      45.264   3.377   8.628  0.00  0.00    +0.000 A 
ATOM     16  C   UNL     1      46.047   4.197   7.798  0.00  0.00    +0.000 A 
ATOM     17  C   UNL     1      47.027   3.645   6.969  0.00  0.00    +0.000 A 
ATOM     18  C   UNL     1      47.230   2.266   6.954  0.00  0.00    +0.000 A 
ATOM     19  C   UNL     1      46.457   1.443   7.769  0.00  0.00    +0.000 A 
ATOM     20 CL   UNL     1      46.705  -0.259   7.745  0.00  0.00    +0.000 Cl
ATOM     21  C   UNL     1      45.480   1.989   8.603  0.00  0.00    +0.000 A 
ENDBRANCH  14  15
ENDBRANCH   5  14
TORSDOF 5
ENDMDL
MODEL 2
REMARK VINA RESULT:    -7.125      2.950      6.391
REMARK INTER + INTRA:          -9.400
REMARK INTER:                  -9.146
REMARK INTRA:                  -0.254
REMARK UNBOUND:                -0.401
REMARK  Name = 
REMARK  5 active torsions:
REMARK  status: ('A' for Active; 'I' for Inactive)
REMARK    1  A    between atoms: N_1  and  C_2
REMARK    2  A    between atoms: C_2  and  C_3
REMARK    3  A    between atoms: C_3  and  C_4
REMARK    4  A    between atoms: N_8  and  C_9
REMARK    5  A    between atoms: C_9  and  C_10
REMARK                            x       y       z     vdW  Elec       q    Type
REMARK                         _______ _______ _______ _____ _____    ______ ____
ROOT
ATOM      1  C   UNL     1      45.653   2.872   7.807  0.00  0.00    +0.000 A 
ATOM      2  C   UNL     1      45.433   1.956   8.805  0.00  0.00    +0.000 A 
ATOM      3  N   UNL     1      44.695   2.208   9.912  0.00  0.00    +0.000 NA
ATOM      4  C   UNL     1      44.192   3.440  10.022  0.00  0.00    +0.000 A 
ATOM      5  N   UNL     1      43.386   3.689  11.116  0.00  0.00    +0.000 N 
ATOM      6  N   UNL     1      44.359   4.406   9.116  0.00  0.00    +0.000 NA
ATOM      7  C   UNL     1      45.078   4.097   8.013  0.00  0.00    +0.000 A 
ATOM      8  H   UNL     1      43.110   2.879  11.646  0.00  0.00    +0.000 HD
ENDROOT
BRANCH   1   9
ATOM      9  C   UNL     1      46.412   2.547   6.555  0.00  0.00    +0.000 C 
BRANCH   9  10
ATOM     10  C   UNL     1      47.752   1.873   6.869  0.00  0.00    +0.000 C 
BRANCH  10  11
ATOM     11  N   UNL     1      48.609   1.842   5.689  0.00  0.00    +0.000 NA
ATOM     12  H   UNL     1      48.887   0.879   5.499  0.00  0.00    +0.000 HD
ATOM     13  H   UNL     1      49.473   2.353   5.872  0.00  0.00    +0.000 HD
ENDBRANCH  10  11
ENDBRANCH   9  10
ENDBRANCH   1   9
BRANCH   5  14
ATOM     14  C   UNL     1      43.352   5.013  11.682  0.00  0.00    +0.000 C 
BRANCH  14  15
ATOM     15  C   UNL     1      44.692   5.422  12.252  0.00  0.00    +0.000 A 
ATOM     16  C   UNL     1      45.401   6.508  11.711  0.00  0.00    +0.000 A 
ATOM     17  C   UNL     1      46.632   6.893  12.246  0.00  0.00    +0.000 A 
ATOM     18  C   UNL     1      47.173   6.194  13.325  0.00  0.00    +0.000 A 
ATOM     19  C   UNL     1      46.481   5.113  13.865  0.00  0.00    +0.000 A 
ATOM     20 CL   UNL     1      47.152   4.246  15.191  0.00  0.00    +0.000 Cl
ATOM     21  C   UNL     1      45.248   4.726  13.337  0.00  0.00    +0.000 A 
ENDBRANCH  14  15
ENDBRANCH   5  14
TORSDOF 5
ENDMDL
MODEL 3
REMARK VINA RESULT:    -6.371      2.406      3.275
REMARK INTER + INTRA:          -8.449
REMARK INTER:                  -8.117
REMARK INTRA:                  -0.332
REMARK UNBOUND:                -0.401
REMARK  Name = 
REMARK  5 active torsions:
REMARK  status: ('A' for Active; 'I' for Inactive)
REMARK    1  A    between atoms: N_1  and  C_2
REMARK    2  A    between atoms: C_2  and  C_3
REMARK    3  A    between atoms: C_3  and  C_4
REMARK    4  A    between atoms: N_8  and  C_9
REMARK    5  A    between atoms: C_9  and  C_10
REMARK                            x       y       z     vdW  Elec       q    Type
REMARK                         _______ _______ _______ _____ _____    ______ ____
ROOT
ATOM      1  C   UNL     1      46.001   6.993  12.427  0.00  0.00    +0.000 A 
ATOM      2  C   UNL     1      44.901   6.272  12.819  0.00  0.00    +0.000 A 
ATOM      3  N   UNL     1      44.343   5.284  12.079  0.00  0.00    +0.000 NA
ATOM      4  C   UNL     1      44.901   5.047  10.889  0.00  0.00    +0.000 A 
ATOM      5  N   UNL     1      44.378   4.000  10.153  0.00  0.00    +0.000 N 
ATOM      6  N   UNL     1      45.961   5.700  10.410  0.00  0.00    +0.000 NA
ATOM      7  C   UNL     1      46.503   6.656  11.198  0.00  0.00    +0.000 A 
ATOM      8  H   UNL     1      43.735   3.402  10.645  0.00  0.00    +0.000 HD
ENDROOT
BRANCH   1   9
ATOM      9  C   UNL     1      46.648   8.031  13.295  0.00  0.00    +0.000 C 
BRANCH   9  10
ATOM     10  C   UNL     1      47.264   9.158  12.460  0.00  0.00    +0.000 C 
BRANCH  10  11
ATOM     11  N   UNL     1      46.472  10.378  12.567  0.00  0.00    +0.000 NA
ATOM     12  H   UNL     1      45.625  10.281  12.007  0.00  0.00    +0.000 HD
ATOM     13  H   UNL     1      46.986  11.164  12.164  0.00  0.00    +0.000 HD
ENDBRANCH  10  11
ENDBRANCH   9  10
ENDBRANCH   1   9
BRANCH   5  14
ATOM     14  C   UNL     1      44.404   4.066   8.715  0.00  0.00    +0.000 C 
BRANCH  14  15
ATOM     15  C   UNL     1      45.352   3.050   8.117  0.00  0.00    +0.000 A 
ATOM     16  C   UNL     1      45.513   1.784   8.705  0.00  0.00    +0.000 A 
ATOM     17  C   UNL     1      46.379   0.842   8.144  0.00  0.00    +0.000 A 
ATOM     18  C   UNL     1      47.098   1.156   6.992  0.00  0.00    +0.000 A 
ATOM     19  C   UNL     1      46.950   2.410   6.403  0.00  0.00    +0.000 A 
ATOM     20 CL   UNL     1      47.844   2.798   4.986  0.00  0.00    +0.000 Cl
ATOM     21  C   UNL     1      46.084   3.353   6.957  0.00  0.00    +0.000 A 
ENDBRANCH  14  15
ENDBRANCH   5  14
TORSDOF 5
ENDMDL
MODEL 4
REMARK VINA RESULT:    -6.246      1.881      2.881
REMARK INTER + INTRA:          -8.290
REMARK INTER:                  -8.206
REMARK INTRA:                  -0.084
REMARK UNBOUND:                -0.401
REMARK  Name = 
REMARK  5 active torsions:
REMARK  status: ('A' for Active; 'I' for Inactive)
REMARK    1  A    between atoms: N_1  and  C_2
REMARK    2  A    between atoms: C_2  and  C_3
REMARK    3  A    between atoms: C_3  and  C_4
REMARK    4  A    between atoms: N_8  and  C_9
REMARK    5  A    between atoms: C_9  and  C_10
REMARK                            x       y       z     vdW  Elec       q    Type
REMARK                         _______ _______ _______ _____ _____    ______ ____
ROOT
ATOM      1  C   UNL     1      45.895   7.357  12.764  0.00  0.00    +0.000 A 
ATOM      2  C   UNL     1      45.121   7.714  11.688  0.00  0.00    +0.000 A 
ATOM      3  N   UNL     1      44.345   6.848  10.995  0.00  0.00    +0.000 NA
ATOM      4  C   UNL     1      44.384   5.572  11.387  0.00  0.00    +0.000 A 
ATOM      5  N   UNL     1      43.550   4.691  10.726  0.00  0.00    +0.000 N 
ATOM      6  N   UNL     1      45.113   5.119  12.409  0.00  0.00    +0.000 NA
ATOM      7  C   UNL     1      45.847   6.028  13.091  0.00  0.00    +0.000 A 
ATOM      8  H   UNL     1      42.864   5.112  10.121  0.00  0.00    +0.000 HD
ENDROOT
BRANCH   1   9
ATOM      9  C   UNL     1      46.688   8.347  13.564  0.00  0.00    +0.000 C 
BRANCH   9  10
ATOM     10  C   UNL     1      47.453   9.317  12.656  0.00  0.00    +0.000 C 
BRANCH  10  11
ATOM     11  N   UNL     1      46.833  10.638  12.667  0.00  0.00    +0.000 NA
ATOM     12  H   UNL     1      46.802  10.989  13.624  0.00  0.00    +0.000 HD
ATOM     13  H   UNL     1      45.862  10.570  12.361  0.00  0.00    +0.000 HD
ENDBRANCH  10  11
ENDBRANCH   9  10
ENDBRANCH   1   9
BRANCH   5  14
ATOM     14  C   UNL     1      43.951   3.316  10.575  0.00  0.00    +0.000 C 
BRANCH  14  15
ATOM     15  C   UNL     1      44.882   3.121   9.399  0.00  0.00    +0.000 A 
ATOM     16  C   UNL     1      45.289   4.215   8.616  0.00  0.00    +0.000 A 
ATOM     17  C   UNL     1      46.159   4.035   7.538  0.00  0.00    +0.000 A 
ATOM     18  C   UNL     1      46.627   2.760   7.226  0.00  0.00    +0.000 A 
ATOM     19  C   UNL     1      46.226   1.668   7.992  0.00  0.00    +0.000 A 
ATOM     20 CL   UNL     1      46.799   0.094   7.601  0.00  0.00    +0.000 Cl
ATOM     21  C   UNL     1      45.360   1.842   9.072  0.00  0.00    +0.000 A 
ENDBRANCH  14  15
ENDBRANCH   5  14
TORSDOF 5
ENDMDL
MODEL 5
REMARK VINA RESULT:    -6.011      3.303      7.503
REMARK INTER + INTRA:          -7.993
REMARK INTER:                  -7.714
REMARK INTRA:                  -0.279
REMARK UNBOUND:                -0.401
REMARK  Name = 
REMARK  5 active torsions:
REMARK  status: ('A' for Active; 'I' for Inactive)
REMARK    1  A    between atoms: N_1  and  C_2
REMARK    2  A    between atoms: C_2  and  C_3
REMARK    3  A    between atoms: C_3  and  C_4
REMARK    4  A    between atoms: N_8  and  C_9
REMARK    5  A    between atoms: C_9  and  C_10
REMARK                            x       y       z     vdW  Elec       q    Type
REMARK                         _______ _______ _______ _____ _____    ______ ____
ROOT
ATOM      1  C   UNL     1      44.705   4.471  11.606  0.00  0.00    +0.000 A 
ATOM      2  C   UNL     1      44.929   5.690  12.196  0.00  0.00    +0.000 A 
ATOM      3  N   UNL     1      45.683   5.863  13.307  0.00  0.00    +0.000 NA
ATOM      4  C   UNL     1      46.197   4.759  13.854  0.00  0.00    +0.000 A 
ATOM      5  N   UNL     1      47.018   4.931  14.952  0.00  0.00    +0.000 N 
ATOM      6  N   UNL     1      46.027   3.528  13.368  0.00  0.00    +0.000 NA
ATOM      7  C   UNL     1      45.293   3.408  12.239  0.00  0.00    +0.000 A 
ATOM      8  H   UNL     1      47.293   5.880  15.144  0.00  0.00    +0.000 HD
ENDROOT
BRANCH   1   9
ATOM      9  C   UNL     1      43.929   4.311  10.333  0.00  0.00    +0.000 C 
BRANCH   9  10
ATOM     10  C   UNL     1      44.823   3.821   9.188  0.00  0.00    +0.000 C 
BRANCH  10  11
ATOM     11  N   UNL     1      45.459   4.944   8.507  0.00  0.00    +0.000 NA
ATOM     12  H   UNL     1      45.938   5.528   9.192  0.00  0.00    +0.000 HD
ATOM     13  H   UNL     1      44.749   5.539   8.078  0.00  0.00    +0.000 HD
ENDBRANCH  10  11
ENDBRANCH   9  10
ENDBRANCH   1   9
BRANCH   5  14
ATOM     14  C   UNL     1      47.070   3.908  15.963  0.00  0.00    +0.000 C 
BRANCH  14  15
ATOM     15  C   UNL     1      48.410   3.866  16.663  0.00  0.00    +0.000 A 
ATOM     16  C   UNL     1      48.962   5.028  17.229  0.00  0.00    +0.000 A 
ATOM     17  C   UNL     1      50.193   4.985  17.886  0.00  0.00    +0.000 A 
ATOM     18  C   UNL     1      50.892   3.782  17.980  0.00  0.00    +0.000 A 
ATOM     19  C   UNL     1      50.357   2.625  17.418  0.00  0.00    +0.000 A 
ATOM     20 CL   UNL     1      51.224   1.143  17.528  0.00  0.00    +0.000 Cl
ATOM     21  C   UNL     1      49.125   2.661  16.764  0.00  0.00    +0.000 A 
ENDBRANCH  14  15
ENDBRANCH   5  14
TORSDOF 5
ENDMDL
MODEL 6
REMARK VINA RESULT:    -5.843      3.569      7.793
REMARK INTER + INTRA:          -7.781
REMARK INTER:                  -7.498
REMARK INTRA:                  -0.283
REMARK UNBOUND:                -0.401
REMARK  Name = 
REMARK  5 active torsions:
REMARK  status: ('A' for Active; 'I' for Inactive)
REMARK    1  A    between atoms: N_1  and  C_2
REMARK    2  A    between atoms: C_2  and  C_3
REMARK    3  A    between atoms: C_3  and  C_4
REMARK    4  A    between atoms: N_8  and  C_9
REMARK    5  A    between atoms: C_9  and  C_10
REMARK                            x       y       z     vdW  Elec       q    Type
REMARK                         _______ _______ _______ _____ _____    ______ ____
ROOT
ATOM      1  C   UNL     1      44.914   4.315  10.354  0.00  0.00    +0.000 A 
ATOM      2  C   UNL     1      44.832   3.196  11.145  0.00  0.00    +0.000 A 
ATOM      3  N   UNL     1      45.232   3.155  12.438  0.00  0.00    +0.000 NA
ATOM      4  C   UNL     1      45.761   4.277  12.932  0.00  0.00    +0.000 A 
ATOM      5  N   UNL     1      46.114   4.265  14.268  0.00  0.00    +0.000 N 
ATOM      6  N   UNL     1      45.898   5.412  12.244  0.00  0.00    +0.000 NA
ATOM      7  C   UNL     1      45.456   5.414  10.965  0.00  0.00    +0.000 A 
ATOM      8  H   UNL     1      45.790   3.471  14.795  0.00  0.00    +0.000 HD
ENDROOT
BRANCH   1   9
ATOM      9  C   UNL     1      44.396   4.359   8.948  0.00  0.00    +0.000 C 
BRANCH   9  10
ATOM     10  C   UNL     1      45.284   3.547   7.997  0.00  0.00    +0.000 C 
BRANCH  10  11
ATOM     11  N   UNL     1      46.442   4.326   7.573  0.00  0.00    +0.000 NA
ATOM     12  H   UNL     1      46.742   4.011   6.651  0.00  0.00    +0.000 HD
ATOM     13  H   UNL     1      47.229   4.150   8.200  0.00  0.00    +0.000 HD
ENDBRANCH  10  11
ENDBRANCH   9  10
ENDBRANCH   1   9
BRANCH   5  14
ATOM     14  C   UNL     1      47.221   5.071  14.713  0.00  0.00    +0.000 C 
BRANCH  14  15
ATOM     15  C   UNL     1      47.763   4.606  16.047  0.00  0.00    +0.000 A 
ATOM     16  C   UNL     1      47.308   3.411  16.630  0.00  0.00    +0.000 A 
ATOM     17  C   UNL     1      47.819   2.976  17.855  0.00  0.00    +0.000 A 
ATOM     18  C   UNL     1      48.786   3.733  18.515  0.00  0.00    +0.000 A 
ATOM     19  C   UNL     1      49.240   4.922  17.949  0.00  0.00    +0.000 A 
ATOM     20 CL   UNL     1      50.428   5.858  18.768  0.00  0.00    +0.000 Cl
ATOM     21  C   UNL     1      48.737   5.359  16.723  0.00  0.00    +0.000 A 
ENDBRANCH  14  15
ENDBRANCH   5  14
TORSDOF 5
ENDMDL
MODEL 7
REMARK VINA RESULT:    -5.816      3.119      5.114
REMARK INTER + INTRA:          -7.747
REMARK INTER:                  -7.617
REMARK INTRA:                  -0.130
REMARK UNBOUND:                -0.401
REMARK  Name = 
REMARK  5 active torsions:
REMARK  status: ('A' for Active; 'I' for Inactive)
REMARK    1  A    between atoms: N_1  and  C_2
REMARK    2  A    between atoms: C_2  and  C_3
REMARK    3  A    between atoms: C_3  and  C_4
REMARK    4  A    between atoms: N_8  and  C_9
REMARK    5  A    between atoms: C_9  and  C_10
REMARK                            x       y       z     vdW  Elec       q    Type
REMARK                         _______ _______ _______ _____ _____    ______ ____
ROOT
ATOM      1  C   UNL     1      48.996   4.410  17.861  0.00  0.00    +0.000 A 
ATOM      2  C   UNL     1      48.100   3.385  17.682  0.00  0.00    +0.000 A 
ATOM      3  N   UNL     1      47.319   3.248  16.584  0.00  0.00    +0.000 NA
ATOM      4  C   UNL     1      47.429   4.201  15.655  0.00  0.00    +0.000 A 
ATOM      5  N   UNL     1      46.682   4.038  14.503  0.00  0.00    +0.000 N 
ATOM      6  N   UNL     1      48.256   5.244  15.739  0.00  0.00    +0.000 NA
ATOM      7  C   UNL     1      49.039   5.322  16.840  0.00  0.00    +0.000 A 
ATOM      8  H   UNL     1      46.250   3.136  14.390  0.00  0.00    +0.000 HD
ENDROOT
BRANCH   1   9
ATOM      9  C   UNL     1      49.904   4.501  19.050  0.00  0.00    +0.000 C 
BRANCH   9  10
ATOM     10  C   UNL     1      49.164   5.032  20.283  0.00  0.00    +0.000 C 
BRANCH  10  11
ATOM     11  N   UNL     1      48.432   3.962  20.952  0.00  0.00    +0.000 NA
ATOM     12  H   UNL     1      48.147   3.266  20.264  0.00  0.00    +0.000 HD
ATOM     13  H   UNL     1      47.568   4.329  21.353  0.00  0.00    +0.000 HD
ENDBRANCH  10  11
ENDBRANCH   9  10
ENDBRANCH   1   9
BRANCH   5  14
ATOM     14  C   UNL     1      46.207   5.200  13.799  0.00  0.00    +0.000 C 
BRANCH  14  15
ATOM     15  C   UNL     1      45.064   4.871  12.864  0.00  0.00    +0.000 A 
ATOM     16  C   UNL     1      43.824   5.519  12.989  0.00  0.00    +0.000 A 
ATOM     17  C   UNL     1      42.774   5.224  12.117  0.00  0.00    +0.000 A 
ATOM     18  C   UNL     1      42.949   4.272  11.113  0.00  0.00    +0.000 A 
ATOM     19  C   UNL     1      44.173   3.621  10.983  0.00  0.00    +0.000 A 
ATOM     20 CL   UNL     1      44.385   2.442   9.748  0.00  0.00    +0.000 Cl
ATOM     21  C   UNL     1      45.227   3.914  11.849  0.00  0.00    +0.000 A 
ENDBRANCH  14  15
ENDBRANCH   5  14
TORSDOF 5
ENDMDL
MODEL 8
REMARK VINA RESULT:    -5.768      4.048      8.211
REMARK INTER + INTRA:          -7.686
REMARK INTER:                  -7.425
REMARK INTRA:                  -0.261
REMARK UNBOUND:                -0.401
REMARK  Name = 
REMARK  5 active torsions:
REMARK  status: ('A' for Active; 'I' for Inactive)
REMARK    1  A    between atoms: N_1  and  C_2
REMARK    2  A    between atoms: C_2  and  C_3
REMARK    3  A    between atoms: C_3  and  C_4
REMARK    4  A    between atoms: N_8  and  C_9
REMARK    5  A    between atoms: C_9  and  C_10
REMARK                            x       y       z     vdW  Elec       q    Type
REMARK                         _______ _______ _______ _____ _____    ______ ____
ROOT
ATOM      1  C   UNL     1      44.765   4.481  11.583  0.00  0.00    +0.000 A 
ATOM      2  C   UNL     1      44.987   5.689  12.196  0.00  0.00    +0.000 A 
ATOM      3  N   UNL     1      45.727   5.841  13.320  0.00  0.00    +0.000 NA
ATOM      4  C   UNL     1      46.228   4.725  13.856  0.00  0.00    +0.000 A 
ATOM      5  N   UNL     1      47.035   4.876  14.968  0.00  0.00    +0.000 N 
ATOM      6  N   UNL     1      46.058   3.503  13.348  0.00  0.00    +0.000 NA
ATOM      7  C   UNL     1      45.339   3.405  12.207  0.00  0.00    +0.000 A 
ATOM      8  H   UNL     1      47.312   5.820  15.179  0.00  0.00    +0.000 HD
ENDROOT
BRANCH   1   9
ATOM      9  C   UNL     1      44.006   4.346  10.297  0.00  0.00    +0.000 C 
BRANCH   9  10
ATOM     10  C   UNL     1      44.939   4.013   9.127  0.00  0.00    +0.000 C 
BRANCH  10  11
ATOM     11  N   UNL     1      45.644   5.204   8.669  0.00  0.00    +0.000 NA
ATOM     12  H   UNL     1      46.638   5.110   8.878  0.00  0.00    +0.000 HD
ATOM     13  H   UNL     1      45.324   6.022   9.190  0.00  0.00    +0.000 HD
ENDBRANCH  10  11
ENDBRANCH   9  10
ENDBRANCH   1   9
BRANCH   5  14
ATOM     14  C   UNL     1      47.067   3.836  15.963  0.00  0.00    +0.000 C 
BRANCH  14  15
ATOM     15  C   UNL     1      47.884   4.232  17.173  0.00  0.00    +0.000 A 
ATOM     16  C   UNL     1      49.218   3.812  17.308  0.00  0.00    +0.000 A 
ATOM     17  C   UNL     1      49.975   4.189  18.419  0.00  0.00    +0.000 A 
ATOM     18  C   UNL     1      49.406   4.986  19.413  0.00  0.00    +0.000 A 
ATOM     19  C   UNL     1      48.083   5.404  19.291  0.00  0.00    +0.000 A 
ATOM     20 CL   UNL     1      47.380   6.380  20.521  0.00  0.00    +0.000 Cl
ATOM     21  C   UNL     1      47.323   5.033  18.181  0.00  0.00    +0.000 A 
ENDBRANCH  14  15
ENDBRANCH   5  14
TORSDOF 5
ENDMDL
MODEL 9
REMARK VINA RESULT:    -5.451      4.477      5.909
REMARK INTER + INTRA:          -7.286
REMARK INTER:                  -7.063
REMARK INTRA:                  -0.223
REMARK UNBOUND:                -0.401
REMARK  Name = 
REMARK  5 active torsions:
REMARK  status: ('A' for Active; 'I' for Inactive)
REMARK    1  A    between atoms: N_1  and  C_2
REMARK    2  A    between atoms: C_2  and  C_3
REMARK    3  A    between atoms: C_3  and  C_4
REMARK    4  A    between atoms: N_8  and  C_9
REMARK    5  A    between atoms: C_9  and  C_10
REMARK                            x       y       z     vdW  Elec       q    Type
REMARK                         _______ _______ _______ _____ _____    ______ ____
ROOT
ATOM      1  C   UNL     1      50.271   3.214  17.379  0.00  0.00    +0.000 A 
ATOM      2  C   UNL     1      49.982   4.555  17.327  0.00  0.00    +0.000 A 
ATOM      3  N   UNL     1      48.909   5.071  16.682  0.00  0.00    +0.000 NA
ATOM      4  C   UNL     1      48.126   4.200  16.041  0.00  0.00    +0.000 A 
ATOM      5  N   UNL     1      46.995   4.709  15.432  0.00  0.00    +0.000 N 
ATOM      6  N   UNL     1      48.327   2.881  16.018  0.00  0.00    +0.000 NA
ATOM      7  C   UNL     1      49.393   2.409  16.703  0.00  0.00    +0.000 A 
ATOM      8  H   UNL     1      46.769   5.663  15.662  0.00  0.00    +0.000 HD
ENDROOT
BRANCH   1   9
ATOM      9  C   UNL     1      51.422   2.658  18.162  0.00  0.00    +0.000 C 
BRANCH   9  10
ATOM     10  C   UNL     1      52.004   1.408  17.494  0.00  0.00    +0.000 C 
BRANCH  10  11
ATOM     11  N   UNL     1      51.623   0.203  18.223  0.00  0.00    +0.000 NA
ATOM     12  H   UNL     1      51.325   0.458  19.165  0.00  0.00    +0.000 HD
ATOM     13  H   UNL     1      52.435  -0.405  18.341  0.00  0.00    +0.000 HD
ENDBRANCH  10  11
ENDBRANCH   9  10
ENDBRANCH   1   9
BRANCH   5  14
ATOM     14  C   UNL     1      46.488   4.077  14.242  0.00  0.00    +0.000 C 
BRANCH  14  15
ATOM     15  C   UNL     1      45.841   5.070  13.302  0.00  0.00    +0.000 A 
ATOM     16  C   UNL     1      46.595   6.100  12.714  0.00  0.00    +0.000 A 
ATOM     17  C   UNL     1      45.999   7.007  11.836  0.00  0.00    +0.000 A 
ATOM     18  C   UNL     1      44.641   6.901  11.539  0.00  0.00    +0.000 A 
ATOM     19  C   UNL     1      43.883   5.887  12.120  0.00  0.00    +0.000 A 
ATOM     20 CL   UNL     1      42.206   5.762  11.758  0.00  0.00    +0.000 Cl
ATOM     21  C   UNL     1      44.473   4.975  12.995  0.00  0.00    +0.000 A 
ENDBRANCH  14  15
ENDBRANCH   5  14
TORSDOF 5
ENDMDL
