MODEL 1
REMARK VINA RESULT:    -8.825      0.000      0.000
REMARK INTER + INTRA:         -12.288
REMARK INTER:                 -11.405
REMARK INTRA:                  -0.884
REMARK UNBOUND:                -0.884
REMARK  Name = 
REMARK  6 active torsions:
REMARK  status: ('A' for Active; 'I' for Inactive)
REMARK    1  A    between atoms: C_1  and  C_2
REMARK    2  A    between atoms: C_5  and  C_6
REMARK    3  A    between atoms: C_10  and  C_11
REMARK    4  A    between atoms: C_11  and  N_12
REMARK    5  A    between atoms: N_12  and  C_13
REMARK    6  A    between atoms: C_16  and  C_17
REMARK                            x       y       z     vdW  Elec       q    Type
REMARK                         _______ _______ _______ _____ _____    ______ ____
ROOT
ATOM      1  C   UNL     1      43.885   4.945  11.358  0.00  0.00    +0.000 C 
ATOM      2  C   UNL     1      43.165   6.251  11.066  0.00  0.00    +0.000 C 
ATOM      3  C   UNL     1      42.604   5.330  12.095  0.00  0.00    +0.000 C 
ENDROOT
BRANCH   1   8
ATOM      4  C   UNL     1      47.172   6.150  12.549  0.00  0.00    +0.000 A 
ATOM      5  N   UNL     1      47.637   5.206  13.387  0.00  0.00    +0.000 NA
ATOM      6  C   UNL     1      46.824   4.162  13.612  0.00  0.00    +0.000 A 
ATOM      7  C   UNL     1      45.590   4.022  13.021  0.00  0.00    +0.000 A 
ATOM      8  C   UNL     1      45.195   5.021  12.148  0.00  0.00    +0.000 A 
ATOM      9  N   UNL     1      45.978   6.100  11.938  0.00  0.00    +0.000 NA
BRANCH   4  14
ATOM     10  C   UNL     1      50.325  10.747  11.200  0.00  0.00    +0.000 C 
ATOM     11  C   UNL     1      49.552   9.521  11.575  0.00  0.00    +0.000 A 
ATOM     12  C   UNL     1      50.174   8.285  11.685  0.00  0.00    +0.000 A 
ATOM     13  C   UNL     1      49.407   7.169  12.016  0.00  0.00    +0.000 A 
ATOM     14  C   UNL     1      48.029   7.292  12.233  0.00  0.00    +0.000 A 
ATOM     15  C   UNL     1      47.509   8.580  12.106  0.00  0.00    +0.000 A 
ATOM     16  N   UNL     1      48.227   9.686  11.789  0.00  0.00    +0.000 NA
ENDBRANCH   4  14
ENDBRANCH   1   8
BRANCH   1  17
ATOM     17  N   UNL     1      43.759   3.744  10.496  0.00  0.00    +0.000 N 
ATOM     18  H   UNL     1      43.396   2.924  10.978  0.00  0.00    +0.000 HD
BRANCH  17  19
ATOM     19  C   UNL     1      44.711   3.409   9.516  0.00  0.00    +0.000 A 
ATOM     20  C   UNL     1      45.110   2.077   9.356  0.00  0.00    +0.000 A 
ATOM     21  C   UNL     1      46.007   1.727   8.343  0.00  0.00    +0.000 A 
ATOM     22  C   UNL     1      46.471   2.731   7.508  0.00  0.00    +0.000 A 
ATOM     23  N   UNL     1      46.087   4.031   7.598  0.00  0.00    +0.000 NA
ATOM     24  C   UNL     1      45.207   4.318   8.583  0.00  0.00    +0.000 A 
BRANCH  22  25
ATOM     25  C   UNL     1      47.460   2.433   6.427  0.00  0.00    +0.000 C 
ATOM     26  N   UNL     1      47.397   3.283   5.352  0.00  0.00    +0.000 N 
ATOM     27  O   UNL     1      48.262   1.512   6.489  0.00  0.00    +0.000 OA
ATOM     28  H   UNL     1      46.710   4.030   5.348  0.00  0.00    +0.000 HD
ATOM     29  H   UNL     1      48.031   3.160   4.577  0.00  0.00    +0.000 HD
ENDBRANCH  22  25
ENDBRANCH  17  19
ENDBRANCH   1  17
TORSDOF 5
ENDMDL
MODEL 2
REMARK VINA RESULT:    -8.572      2.222      3.976
REMARK INTER + INTRA:         -11.962
REMARK INTER:                 -11.991
REMARK INTRA:                   0.030
REMARK UNBOUND:                -0.884
REMARK  Name = 
REMARK  6 active torsions:
REMARK  status: ('A' for Active; 'I' for Inactive)
REMARK    1  A    between atoms: C_1  and  C_2
REMARK    2  A    between atoms: C_5  and  C_6
REMARK    3  A    between atoms: C_10  and  C_11
REMARK    4  A    between atoms: C_11  and  N_12
REMARK    5  A    between atoms: N_12  and  C_13
REMARK    6  A    between atoms: C_16  and  C_17
REMARK                            x       y       z     vdW  Elec       q    Type
REMARK                         _______ _______ _______ _____ _____    ______ ____
ROOT
ATOM      1  C   UNL     1      43.899   5.019  11.359  0.00  0.00    +0.000 C 
ATOM      2  C   UNL     1      42.708   5.349  12.244  0.00  0.00    +0.000 C 
ATOM      3  C   UNL     1      43.241   3.957  12.236  0.00  0.00    +0.000 C 
ENDROOT
BRANCH   1   8
ATOM      4  C   UNL     1      46.929   5.553  13.411  0.00  0.00    +0.000 A 
ATOM      5  N   UNL     1      47.652   6.492  12.776  0.00  0.00    +0.000 NA
ATOM      6  C   UNL     1      47.159   6.929  11.607  0.00  0.00    +0.000 A 
ATOM      7  C   UNL     1      45.974   6.482  11.071  0.00  0.00    +0.000 A 
ATOM      8  C   UNL     1      45.272   5.537  11.800  0.00  0.00    +0.000 A 
ATOM      9  N   UNL     1      45.770   5.052  12.956  0.00  0.00    +0.000 NA
BRANCH   4  14
ATOM     10  C   UNL     1      48.544   3.492  18.514  0.00  0.00    +0.000 C 
ATOM     11  C   UNL     1      48.171   4.066  17.183  0.00  0.00    +0.000 A 
ATOM     12  C   UNL     1      48.583   5.338  16.807  0.00  0.00    +0.000 A 
ATOM     13  C   UNL     1      48.193   5.837  15.566  0.00  0.00    +0.000 A 
ATOM     14  C   UNL     1      47.396   5.067  14.710  0.00  0.00    +0.000 A 
ATOM     15  C   UNL     1      47.047   3.801  15.181  0.00  0.00    +0.000 A 
ATOM     16  N   UNL     1      47.413   3.286  16.381  0.00  0.00    +0.000 NA
ENDBRANCH   4  14
ENDBRANCH   1   8
BRANCH   1  17
ATOM     17  N   UNL     1      43.778   4.773   9.900  0.00  0.00    +0.000 N 
ATOM     18  H   UNL     1      42.819   4.776   9.558  0.00  0.00    +0.000 HD
BRANCH  17  19
ATOM     19  C   UNL     1      44.586   3.846   9.218  0.00  0.00    +0.000 A 
ATOM     20  C   UNL     1      45.502   4.292   8.258  0.00  0.00    +0.000 A 
ATOM     21  C   UNL     1      46.353   3.384   7.621  0.00  0.00    +0.000 A 
ATOM     22  C   UNL     1      46.266   2.048   7.978  0.00  0.00    +0.000 A 
ATOM     23  N   UNL     1      45.421   1.570   8.928  0.00  0.00    +0.000 NA
ATOM     24  C   UNL     1      44.629   2.487   9.527  0.00  0.00    +0.000 A 
BRANCH  22  25
ATOM     25  C   UNL     1      47.121   1.018   7.311  0.00  0.00    +0.000 C 
ATOM     26  N   UNL     1      46.818  -0.276   7.650  0.00  0.00    +0.000 N 
ATOM     27  O   UNL     1      48.017   1.299   6.528  0.00  0.00    +0.000 OA
ATOM     28  H   UNL     1      46.067  -0.454   8.309  0.00  0.00    +0.000 HD
ATOM     29  H   UNL     1      47.340  -1.037   7.244  0.00  0.00    +0.000 HD
ENDBRANCH  22  25
ENDBRANCH  17  19
ENDBRANCH   1  17
TORSDOF 5
ENDMDL
MODEL 3
REMARK VINA RESULT:    -8.012      3.065      7.314
REMARK INTER + INTRA:         -11.238
REMARK INTER:                 -10.631
REMARK INTRA:                  -0.607
REMARK UNBOUND:                -0.884
REMARK  Name = 
REMARK  6 active torsions:
REMARK  status: ('A' for Active; 'I' for Inactive)
REMARK    1  A    between atoms: C_1  and  C_2
REMARK    2  A    between atoms: C_5  and  C_6
REMARK    3  A    between atoms: C_10  and  C_11
REMARK    4  A    between atoms: C_11  and  N_12
REMARK    5  A    between atoms: N_12  and  C_13
REMARK    6  A    between atoms: C_16  and  C_17
REMARK                            x       y       z     vdW  Elec       q    Type
REMARK                         _______ _______ _______ _____ _____    ______ ____
ROOT
ATOM      1  C   UNL     1      46.143   7.368  12.389  0.00  0.00    +0.000 C 
ATOM      2  C   UNL     1      45.583   8.600  13.081  0.00  0.00    +0.000 C 
ATOM      3  C   UNL     1      46.328   8.764  11.800  0.00  0.00    +0.000 C 
ENDROOT
BRANCH   1   8
ATOM      4  C   UNL     1      44.808   4.742  10.153  0.00  0.00    +0.000 A 
ATOM      5  N   UNL     1      43.469   4.810  10.251  0.00  0.00    +0.000 NA
ATOM      6  C   UNL     1      42.984   5.712  11.119  0.00  0.00    +0.000 A 
ATOM      7  C   UNL     1      43.780   6.549  11.865  0.00  0.00    +0.000 A 
ATOM      8  C   UNL     1      45.149   6.438  11.686  0.00  0.00    +0.000 A 
ATOM      9  N   UNL     1      45.660   5.510  10.850  0.00  0.00    +0.000 NA
BRANCH   4  14
ATOM     10  C   UNL     1      47.136   0.897   6.591  0.00  0.00    +0.000 C 
ATOM     11  C   UNL     1      46.526   1.940   7.474  0.00  0.00    +0.000 A 
ATOM     12  C   UNL     1      46.660   3.292   7.189  0.00  0.00    +0.000 A 
ATOM     13  C   UNL     1      46.092   4.226   8.054  0.00  0.00    +0.000 A 
ATOM     14  C   UNL     1      45.396   3.806   9.194  0.00  0.00    +0.000 A 
ATOM     15  C   UNL     1      45.312   2.426   9.380  0.00  0.00    +0.000 A 
ATOM     16  N   UNL     1      45.851   1.492   8.557  0.00  0.00    +0.000 NA
ENDBRANCH   4  14
ENDBRANCH   1   8
BRANCH   1  17
ATOM     17  N   UNL     1      47.404   6.708  12.812  0.00  0.00    +0.000 N 
ATOM     18  H   UNL     1      47.966   6.356  12.039  0.00  0.00    +0.000 HD
BRANCH  17  19
ATOM     19  C   UNL     1      47.486   5.886  13.950  0.00  0.00    +0.000 A 
ATOM     20  C   UNL     1      48.257   6.287  15.047  0.00  0.00    +0.000 A 
ATOM     21  C   UNL     1      48.293   5.506  16.206  0.00  0.00    +0.000 A 
ATOM     22  C   UNL     1      47.539   4.344  16.233  0.00  0.00    +0.000 A 
ATOM     23  N   UNL     1      46.746   3.930  15.210  0.00  0.00    +0.000 NA
ATOM     24  C   UNL     1      46.732   4.725  14.117  0.00  0.00    +0.000 A 
BRANCH  22  25
ATOM     25  C   UNL     1      47.559   3.444  17.427  0.00  0.00    +0.000 C 
ATOM     26  N   UNL     1      48.635   3.631  18.258  0.00  0.00    +0.000 N 
ATOM     27  O   UNL     1      46.693   2.611  17.652  0.00  0.00    +0.000 OA
ATOM     28  H   UNL     1      49.328   4.334  18.024  0.00  0.00    +0.000 HD
ATOM     29  H   UNL     1      48.728   3.071  19.092  0.00  0.00    +0.000 HD
ENDBRANCH  22  25
ENDBRANCH  17  19
ENDBRANCH   1  17
TORSDOF 5
ENDMDL
MODEL 4
REMARK VINA RESULT:    -6.631      5.148      8.445
REMARK INTER + INTRA:          -9.453
REMARK INTER:                  -9.148
REMARK INTRA:                  -0.306
REMARK UNBOUND:                -0.884
REMARK  Name = 
REMARK  6 active torsions:
REMARK  status: ('A' for Active; 'I' for Inactive)
REMARK    1  A    between atoms: C_1  and  C_2
REMARK    2  A    between atoms: C_5  and  C_6
REMARK    3  A    between atoms: C_10  and  C_11
REMARK    4  A    between atoms: C_11  and  N_12
REMARK    5  A    between atoms: N_12  and  C_13
REMARK    6  A    between atoms: C_16  and  C_17
REMARK                            x       y       z     vdW  Elec       q    Type
REMARK                         _______ _______ _______ _____ _____    ______ ____
ROOT
ATOM      1  C   UNL     1      48.382   4.720  17.220  0.00  0.00    +0.000 C 
ATOM      2  C   UNL     1      47.347   3.609  17.285  0.00  0.00    +0.000 C 
ATOM      3  C   UNL     1      47.146   4.836  18.108  0.00  0.00    +0.000 C 
ENDROOT
BRANCH   1   8
ATOM      4  C   UNL     1      47.600   5.960  13.825  0.00  0.00    +0.000 A 
ATOM      5  N   UNL     1      48.473   6.952  13.577  0.00  0.00    +0.000 NA
ATOM      6  C   UNL     1      49.315   7.263  14.576  0.00  0.00    +0.000 A 
ATOM      7  C   UNL     1      49.327   6.612  15.786  0.00  0.00    +0.000 A 
ATOM      8  C   UNL     1      48.417   5.582  15.954  0.00  0.00    +0.000 A 
ATOM      9  N   UNL     1      47.534   5.279  14.980  0.00  0.00    +0.000 NA
BRANCH   4  14
ATOM     10  C   UNL     1      44.042   4.096   9.732  0.00  0.00    +0.000 C 
ATOM     11  C   UNL     1      44.963   4.639  10.779  0.00  0.00    +0.000 A 
ATOM     12  C   UNL     1      45.665   5.819  10.577  0.00  0.00    +0.000 A 
ATOM     13  C   UNL     1      46.528   6.273  11.573  0.00  0.00    +0.000 A 
ATOM     14  C   UNL     1      46.684   5.548  12.761  0.00  0.00    +0.000 A 
ATOM     15  C   UNL     1      45.925   4.383  12.865  0.00  0.00    +0.000 A 
ATOM     16  N   UNL     1      45.076   3.916  11.916  0.00  0.00    +0.000 NA
ENDBRANCH   4  14
ENDBRANCH   1   8
BRANCH   1  17
ATOM     17  N   UNL     1      49.667   4.670  17.962  0.00  0.00    +0.000 N 
ATOM     18  H   UNL     1      50.123   5.575  18.062  0.00  0.00    +0.000 HD
BRANCH  17  19
ATOM     19  C   UNL     1      50.591   3.620  17.810  0.00  0.00    +0.000 A 
ATOM     20  C   UNL     1      51.898   3.765  18.292  0.00  0.00    +0.000 A 
ATOM     21  C   UNL     1      52.803   2.703  18.203  0.00  0.00    +0.000 A 
ATOM     22  C   UNL     1      52.361   1.517  17.638  0.00  0.00    +0.000 A 
ATOM     23  N   UNL     1      51.095   1.314  17.190  0.00  0.00    +0.000 NA
ATOM     24  C   UNL     1      50.253   2.363  17.311  0.00  0.00    +0.000 A 
BRANCH  22  25
ATOM     25  C   UNL     1      53.288   0.353  17.479  0.00  0.00    +0.000 C 
ATOM     26  N   UNL     1      53.102  -0.648  18.398  0.00  0.00    +0.000 N 
ATOM     27  O   UNL     1      54.140   0.291  16.605  0.00  0.00    +0.000 OA
ATOM     28  H   UNL     1      52.382  -0.546  19.106  0.00  0.00    +0.000 HD
ATOM     29  H   UNL     1      53.678  -1.475  18.364  0.00  0.00    +0.000 HD
ENDBRANCH  22  25
ENDBRANCH  17  19
ENDBRANCH   1  17
TORSDOF 5
ENDMDL
MODEL 5
REMARK VINA RESULT:    -6.604      4.232      6.457
REMARK INTER + INTRA:          -9.418
REMARK INTER:                  -8.810
REMARK INTRA:                  -0.608
REMARK UNBOUND:                -0.884
REMARK  Name = 
REMARK  6 active torsions:
REMARK  status: ('A' for Active; 'I' for Inactive)
REMARK    1  A    between atoms: C_1  and  C_2
REMARK    2  A    between atoms: C_5  and  C_6
REMARK    3  A    between atoms: C_10  and  C_11
REMARK    4  A    between atoms: C_11  and  N_12
REMARK    5  A    between atoms: N_12  and  C_13
REMARK    6  A    between atoms: C_16  and  C_17
REMARK                            x       y       z     vdW  Elec       q    Type
REMARK                         _______ _______ _______ _____ _____    ______ ____
ROOT
ATOM      1  C   UNL     1      48.109   7.481  13.622  0.00  0.00    +0.000 C 
ATOM      2  C   UNL     1      49.037   6.994  12.522  0.00  0.00    +0.000 C 
ATOM      3  C   UNL     1      48.753   8.452  12.636  0.00  0.00    +0.000 C 
ENDROOT
BRANCH   1   8
ATOM      4  C   UNL     1      49.802   6.345  16.708  0.00  0.00    +0.000 A 
ATOM      5  N   UNL     1      49.554   7.283  17.639  0.00  0.00    +0.000 NA
ATOM      6  C   UNL     1      48.852   8.352  17.231  0.00  0.00    +0.000 A 
ATOM      7  C   UNL     1      48.379   8.502  15.949  0.00  0.00    +0.000 A 
ATOM      8  C   UNL     1      48.651   7.479  15.056  0.00  0.00    +0.000 A 
ATOM      9  N   UNL     1      49.390   6.416  15.432  0.00  0.00    +0.000 NA
BRANCH   4  14
ATOM     10  C   UNL     1      52.870   1.719  18.151  0.00  0.00    +0.000 C 
ATOM     11  C   UNL     1      52.020   2.899  17.797  0.00  0.00    +0.000 A 
ATOM     12  C   UNL     1      50.658   2.761  17.565  0.00  0.00    +0.000 A 
ATOM     13  C   UNL     1      49.912   3.886  17.217  0.00  0.00    +0.000 A 
ATOM     14  C   UNL     1      50.529   5.138  17.102  0.00  0.00    +0.000 A 
ATOM     15  C   UNL     1      51.898   5.166  17.366  0.00  0.00    +0.000 A 
ATOM     16  N   UNL     1      52.651   4.092  17.709  0.00  0.00    +0.000 NA
ENDBRANCH   4  14
ENDBRANCH   1   8
BRANCH   1  17
ATOM     17  N   UNL     1      46.630   7.400  13.527  0.00  0.00    +0.000 N 
ATOM     18  H   UNL     1      46.143   7.734  14.356  0.00  0.00    +0.000 HD
BRANCH  17  19
ATOM     19  C   UNL     1      45.967   6.321  12.915  0.00  0.00    +0.000 A 
ATOM     20  C   UNL     1      45.642   6.381  11.555  0.00  0.00    +0.000 A 
ATOM     21  C   UNL     1      45.040   5.288  10.925  0.00  0.00    +0.000 A 
ATOM     22  C   UNL     1      44.792   4.155  11.684  0.00  0.00    +0.000 A 
ATOM     23  N   UNL     1      45.121   4.032  12.996  0.00  0.00    +0.000 NA
ATOM     24  C   UNL     1      45.714   5.109  13.557  0.00  0.00    +0.000 A 
BRANCH  22  25
ATOM     25  C   UNL     1      44.119   2.962  11.083  0.00  0.00    +0.000 C 
ATOM     26  N   UNL     1      44.822   2.369  10.064  0.00  0.00    +0.000 N 
ATOM     27  O   UNL     1      43.034   2.545  11.461  0.00  0.00    +0.000 OA
ATOM     28  H   UNL     1      45.716   2.758   9.785  0.00  0.00    +0.000 HD
ATOM     29  H   UNL     1      44.446   1.554   9.603  0.00  0.00    +0.000 HD
ENDBRANCH  22  25
ENDBRANCH  17  19
ENDBRANCH   1  17
TORSDOF 5
ENDMDL
MODEL 6
REMARK VINA RESULT:    -6.413      3.071      7.209
REMARK INTER + INTRA:          -9.172
REMARK INTER:                  -8.367
REMARK INTRA:                  -0.805
REMARK UNBOUND:                -0.884
REMARK  Name = 
REMARK  6 active torsions:
REMARK  status: ('A' for Active; 'I' for Inactive)
REMARK    1  A    between atoms: C_1  and  C_2
REMARK    2  A    between atoms: C_5  and  C_6
REMARK    3  A    between atoms: C_10  and  C_11
REMARK    4  A    between atoms: C_11  and  N_12
REMARK    5  A    between atoms: N_12  and  C_13
REMARK    6  A    between atoms: C_16  and  C_17
REMARK                            x       y       z     vdW  Elec       q    Type
REMARK                         _______ _______ _______ _____ _____    ______ ____
ROOT
ATOM      1  C   UNL     1      45.462   8.315  11.980  0.00  0.00    +0.000 C 
ATOM      2  C   UNL     1      44.473   9.312  12.562  0.00  0.00    +0.000 C 
ATOM      3  C   UNL     1      44.752   9.339  11.098  0.00  0.00    +0.000 C 
ENDROOT
BRANCH   1   8
ATOM      4  C   UNL     1      45.031   4.897  10.635  0.00  0.00    +0.000 A 
ATOM      5  N   UNL     1      44.158   4.280  11.451  0.00  0.00    +0.000 NA
ATOM      6  C   UNL     1      43.735   4.988  12.510  0.00  0.00    +0.000 A 
ATOM      7  C   UNL     1      44.132   6.280  12.764  0.00  0.00    +0.000 A 
ATOM      8  C   UNL     1      45.009   6.856  11.861  0.00  0.00    +0.000 A 
ATOM      9  N   UNL     1      45.480   6.149  10.813  0.00  0.00    +0.000 NA
BRANCH   4  14
ATOM     10  C   UNL     1      46.821   2.348   5.820  0.00  0.00    +0.000 C 
ATOM     11  C   UNL     1      46.361   2.961   7.106  0.00  0.00    +0.000 A 
ATOM     12  C   UNL     1      45.797   2.186   8.110  0.00  0.00    +0.000 A 
ATOM     13  C   UNL     1      45.365   2.806   9.282  0.00  0.00    +0.000 A 
ATOM     14  C   UNL     1      45.497   4.191   9.442  0.00  0.00    +0.000 A 
ATOM     15  C   UNL     1      46.086   4.871   8.377  0.00  0.00    +0.000 A 
ATOM     16  N   UNL     1      46.519   4.298   7.227  0.00  0.00    +0.000 NA
ENDBRANCH   4  14
ENDBRANCH   1   8
BRANCH   1  17
ATOM     17  N   UNL     1      46.933   8.494  12.065  0.00  0.00    +0.000 N 
ATOM     18  H   UNL     1      47.417   8.380  11.176  0.00  0.00    +0.000 HD
BRANCH  17  19
ATOM     19  C   UNL     1      47.693   8.024  13.151  0.00  0.00    +0.000 A 
ATOM     20  C   UNL     1      47.853   8.823  14.290  0.00  0.00    +0.000 A 
ATOM     21  C   UNL     1      48.553   8.337  15.398  0.00  0.00    +0.000 A 
ATOM     22  C   UNL     1      49.066   7.051  15.333  0.00  0.00    +0.000 A 
ATOM     23  N   UNL     1      48.907   6.224  14.267  0.00  0.00    +0.000 NA
ATOM     24  C   UNL     1      48.211   6.731  13.226  0.00  0.00    +0.000 A 
BRANCH  22  25
ATOM     25  C   UNL     1      49.856   6.483  16.469  0.00  0.00    +0.000 C 
ATOM     26  N   UNL     1      50.344   7.420  17.343  0.00  0.00    +0.000 N 
ATOM     27  O   UNL     1      50.052   5.285  16.613  0.00  0.00    +0.000 OA
ATOM     28  H   UNL     1      50.155   8.403  17.175  0.00  0.00    +0.000 HD
ATOM     29  H   UNL     1      50.885   7.127  18.143  0.00  0.00    +0.000 HD
ENDBRANCH  22  25
ENDBRANCH  17  19
ENDBRANCH   1  17
TORSDOF 5
ENDMDL
MODEL 7
REMARK VINA RESULT:    -6.380      4.983      7.666
REMARK INTER + INTRA:          -9.129
REMARK INTER:                  -8.886
REMARK INTRA:                  -0.243
REMARK UNBOUND:                -0.884
REMARK  Name = 
REMARK  6 active torsions:
REMARK  status: ('A' for Active; 'I' for Inactive)
REMARK    1  A    between atoms: C_1  and  C_2
REMARK    2  A    between atoms: C_5  and  C_6
REMARK    3  A    between atoms: C_10  and  C_11
REMARK    4  A    between atoms: C_11  and  N_12
REMARK    5  A    between atoms: N_12  and  C_13
REMARK    6  A    between atoms: C_16  and  C_17
REMARK                            x       y       z     vdW  Elec       q    Type
REMARK                         _______ _______ _______ _____ _____    ______ ____
ROOT
ATOM      1  C   UNL     1      49.102   7.234  15.345  0.00  0.00    +0.000 C 
ATOM      2  C   UNL     1      50.030   8.433  15.445  0.00  0.00    +0.000 C 
ATOM      3  C   UNL     1      48.558   8.647  15.538  0.00  0.00    +0.000 C 
ENDROOT
BRANCH   1   8
ATOM      4  C   UNL     1      49.894   4.433  17.626  0.00  0.00    +0.000 A 
ATOM      5  N   UNL     1      48.940   4.440  18.575  0.00  0.00    +0.000 NA
ATOM      6  C   UNL     1      48.035   5.428  18.497  0.00  0.00    +0.000 A 
ATOM      7  C   UNL     1      48.038   6.381  17.506  0.00  0.00    +0.000 A 
ATOM      8  C   UNL     1      49.035   6.288  16.549  0.00  0.00    +0.000 A 
ATOM      9  N   UNL     1      49.980   5.329  16.631  0.00  0.00    +0.000 NA
BRANCH   4  14
ATOM     10  C   UNL     1      53.584   0.043  17.703  0.00  0.00    +0.000 C 
ATOM     11  C   UNL     1      52.668   1.227  17.675  0.00  0.00    +0.000 A 
ATOM     12  C   UNL     1      53.112   2.488  18.047  0.00  0.00    +0.000 A 
ATOM     13  C   UNL     1      52.215   3.555  18.026  0.00  0.00    +0.000 A 
ATOM     14  C   UNL     1      50.885   3.357  17.635  0.00  0.00    +0.000 A 
ATOM     15  C   UNL     1      50.548   2.053  17.272  0.00  0.00    +0.000 A 
ATOM     16  N   UNL     1      51.396   0.995  17.280  0.00  0.00    +0.000 NA
ENDBRANCH   4  14
ENDBRANCH   1   8
BRANCH   1  17
ATOM     17  N   UNL     1      48.732   6.605  14.052  0.00  0.00    +0.000 N 
ATOM     18  H   UNL     1      49.080   7.103  13.235  0.00  0.00    +0.000 HD
BRANCH  17  19
ATOM     19  C   UNL     1      47.473   6.019  13.825  0.00  0.00    +0.000 A 
ATOM     20  C   UNL     1      46.475   6.744  13.162  0.00  0.00    +0.000 A 
ATOM     21  C   UNL     1      45.244   6.147  12.876  0.00  0.00    +0.000 A 
ATOM     22  C   UNL     1      45.055   4.828  13.258  0.00  0.00    +0.000 A 
ATOM     23  N   UNL     1      46.003   4.071  13.870  0.00  0.00    +0.000 NA
ATOM     24  C   UNL     1      47.181   4.686  14.112  0.00  0.00    +0.000 A 
BRANCH  22  25
ATOM     25  C   UNL     1      43.749   4.140  13.015  0.00  0.00    +0.000 C 
ATOM     26  N   UNL     1      43.865   2.848  12.566  0.00  0.00    +0.000 N 
ATOM     27  O   UNL     1      42.667   4.675  13.200  0.00  0.00    +0.000 OA
ATOM     28  H   UNL     1      44.789   2.452  12.426  0.00  0.00    +0.000 HD
ATOM     29  H   UNL     1      43.036   2.305  12.381  0.00  0.00    +0.000 HD
ENDBRANCH  22  25
ENDBRANCH  17  19
ENDBRANCH   1  17
TORSDOF 5
ENDMDL
MODEL 8
REMARK VINA RESULT:    -6.168      3.244      7.671
REMARK INTER + INTRA:          -8.855
REMARK INTER:                  -9.285
REMARK INTRA:                   0.431
REMARK UNBOUND:                -0.884
REMARK  Name = 
REMARK  6 active torsions:
REMARK  status: ('A' for Active; 'I' for Inactive)
REMARK    1  A    between atoms: C_1  and  C_2
REMARK    2  A    between atoms: C_5  and  C_6
REMARK    3  A    between atoms: C_10  and  C_11
REMARK    4  A    between atoms: C_11  and  N_12
REMARK    5  A    between atoms: N_12  and  C_13
REMARK    6  A    between atoms: C_16  and  C_17
REMARK                            x       y       z     vdW  Elec       q    Type
REMARK                         _______ _______ _______ _____ _____    ______ ____
ROOT
ATOM      1  C   UNL     1      48.733   8.083  12.861  0.00  0.00    +0.000 C 
ATOM      2  C   UNL     1      49.673   8.804  11.908  0.00  0.00    +0.000 C 
ATOM      3  C   UNL     1      49.806   7.329  12.078  0.00  0.00    +0.000 C 
ENDROOT
BRANCH   1   8
ATOM      4  C   UNL     1      45.723   6.571  11.336  0.00  0.00    +0.000 A 
ATOM      5  N   UNL     1      44.749   7.493  11.433  0.00  0.00    +0.000 NA
ATOM      6  C   UNL     1      45.072   8.631  12.066  0.00  0.00    +0.000 A 
ATOM      7  C   UNL     1      46.323   8.883  12.579  0.00  0.00    +0.000 A 
ATOM      8  C   UNL     1      47.280   7.896  12.413  0.00  0.00    +0.000 A 
ATOM      9  N   UNL     1      46.966   6.727  11.817  0.00  0.00    +0.000 NA
BRANCH   4  14
ATOM     10  C   UNL     1      44.661   1.558   8.758  0.00  0.00    +0.000 C 
ATOM     11  C   UNL     1      44.931   2.894   9.377  0.00  0.00    +0.000 A 
ATOM     12  C   UNL     1      45.437   3.946   8.625  0.00  0.00    +0.000 A 
ATOM     13  C   UNL     1      45.692   5.165   9.252  0.00  0.00    +0.000 A 
ATOM     14  C   UNL     1      45.442   5.326  10.621  0.00  0.00    +0.000 A 
ATOM     15  C   UNL     1      44.926   4.209  11.278  0.00  0.00    +0.000 A 
ATOM     16  N   UNL     1      44.664   3.012  10.697  0.00  0.00    +0.000 NA
ENDBRANCH   4  14
ENDBRANCH   1   8
BRANCH   1  17
ATOM     17  N   UNL     1      48.927   8.074  14.332  0.00  0.00    +0.000 N 
ATOM     18  H   UNL     1      49.775   8.545  14.642  0.00  0.00    +0.000 HD
BRANCH  17  19
ATOM     19  C   UNL     1      48.612   6.960  15.132  0.00  0.00    +0.000 A 
ATOM     20  C   UNL     1      48.908   6.977  16.500  0.00  0.00    +0.000 A 
ATOM     21  C   UNL     1      48.541   5.901  17.314  0.00  0.00    +0.000 A 
ATOM     22  C   UNL     1      47.874   4.839  16.726  0.00  0.00    +0.000 A 
ATOM     23  N   UNL     1      47.531   4.790  15.412  0.00  0.00    +0.000 NA
ATOM     24  C   UNL     1      47.893   5.859  14.670  0.00  0.00    +0.000 A 
BRANCH  22  25
ATOM     25  C   UNL     1      47.484   3.639  17.531  0.00  0.00    +0.000 C 
ATOM     26  N   UNL     1      48.327   3.362  18.578  0.00  0.00    +0.000 N 
ATOM     27  O   UNL     1      46.498   2.960  17.284  0.00  0.00    +0.000 OA
ATOM     28  H   UNL     1      49.134   3.956  18.737  0.00  0.00    +0.000 HD
ATOM     29  H   UNL     1      48.138   2.574  19.178  0.00  0.00    +0.000 HD
ENDBRANCH  22  25
ENDBRANCH  17  19
ENDBRANCH   1  17
TORSDOF 5
ENDMDL
MODEL 9
REMARK VINA RESULT:    -6.084      4.032      6.323
REMARK INTER + INTRA:          -8.747
REMARK INTER:                  -8.392
REMARK INTRA:                  -0.355
REMARK UNBOUND:                -0.884
REMARK  Name = 
REMARK  6 active torsions:
REMARK  status: ('A' for Active; 'I' for Inactive)
REMARK    1  A    between atoms: C_1  and  C_2
REMARK    2  A    between atoms: C_5  and  C_6
REMARK    3  A    between atoms: C_10  and  C_11
REMARK    4  A    between atoms: C_11  and  N_12
REMARK    5  A    between atoms: N_12  and  C_13
REMARK    6  A    between atoms: C_16  and  C_17
REMARK                            x       y       z     vdW  Elec       q    Type
REMARK                         _______ _______ _______ _____ _____    ______ ____
ROOT
ATOM      1  C   UNL     1      48.040   7.558  13.013  0.00  0.00    +0.000 C 
ATOM      2  C   UNL     1      48.330   7.558  11.521  0.00  0.00    +0.000 C 
ATOM      3  C   UNL     1      47.909   8.828  12.176  0.00  0.00    +0.000 C 
ENDROOT
BRANCH   1   8
ATOM      4  C   UNL     1      50.041   6.839  16.038  0.00  0.00    +0.000 A 
ATOM      5  N   UNL     1      51.255   7.375  15.822  0.00  0.00    +0.000 NA
ATOM      6  C   UNL     1      51.445   7.947  14.622  0.00  0.00    +0.000 A 
ATOM      7  C   UNL     1      50.470   8.019  13.656  0.00  0.00    +0.000 A 
ATOM      8  C   UNL     1      49.237   7.470  13.965  0.00  0.00    +0.000 A 
ATOM      9  N   UNL     1      49.036   6.853  15.148  0.00  0.00    +0.000 NA
BRANCH   4  14
ATOM     10  C   UNL     1      48.688   4.512  21.102  0.00  0.00    +0.000 C 
ATOM     11  C   UNL     1      49.100   5.112  19.795  0.00  0.00    +0.000 A 
ATOM     12  C   UNL     1      50.330   5.739  19.647  0.00  0.00    +0.000 A 
ATOM     13  C   UNL     1      50.659   6.302  18.415  0.00  0.00    +0.000 A 
ATOM     14  C   UNL     1      49.762   6.236  17.342  0.00  0.00    +0.000 A 
ATOM     15  C   UNL     1      48.560   5.576  17.596  0.00  0.00    +0.000 A 
ATOM     16  N   UNL     1      48.211   5.016  18.781  0.00  0.00    +0.000 NA
ENDBRANCH   4  14
ENDBRANCH   1   8
BRANCH   1  17
ATOM     17  N   UNL     1      46.763   7.068  13.587  0.00  0.00    +0.000 N 
ATOM     18  H   UNL     1      46.752   7.035  14.605  0.00  0.00    +0.000 HD
BRANCH  17  19
ATOM     19  C   UNL     1      46.025   6.018  13.011  0.00  0.00    +0.000 A 
ATOM     20  C   UNL     1      45.154   6.279  11.945  0.00  0.00    +0.000 A 
ATOM     21  C   UNL     1      44.466   5.232  11.326  0.00  0.00    +0.000 A 
ATOM     22  C   UNL     1      44.683   3.944  11.791  0.00  0.00    +0.000 A 
ATOM     23  N   UNL     1      45.543   3.634  12.795  0.00  0.00    +0.000 NA
ATOM     24  C   UNL     1      46.197   4.677  13.353  0.00  0.00    +0.000 A 
BRANCH  22  25
ATOM     25  C   UNL     1      43.952   2.782  11.197  0.00  0.00    +0.000 C 
ATOM     26  N   UNL     1      44.512   2.290  10.045  0.00  0.00    +0.000 N 
ATOM     27  O   UNL     1      42.941   2.304  11.691  0.00  0.00    +0.000 OA
ATOM     28  H   UNL     1      45.350   2.726   9.674  0.00  0.00    +0.000 HD
ATOM     29  H   UNL     1      44.089   1.503   9.577  0.00  0.00    +0.000 HD
ENDBRANCH  22  25
ENDBRANCH  17  19
ENDBRANCH   1  17
TORSDOF 5
ENDMDL
