MODEL 1
REMARK VINA RESULT:    -6.489      0.000      0.000
REMARK INTER + INTRA:          -8.551
REMARK INTER:                  -8.197
REMARK INTRA:                  -0.355
REMARK UNBOUND:                -0.355
REMARK  Name = 
REMARK  5 active torsions:
REMARK  status: ('A' for Active; 'I' for Inactive)
REMARK    1  A    between atoms: N_1  and  C_2
REMARK    2  A    between atoms: C_2  and  C_3
REMARK    3  A    between atoms: C_7  and  C_8
REMARK    4  A    between atoms: C_9  and  C_10
REMARK    5  A    between atoms: C_14  and  C_15
REMARK                            x       y       z     vdW  Elec       q    Type
REMARK                         _______ _______ _______ _____ _____    ______ ____
ROOT
ATOM      1  C   UNL     1      45.613   5.776  10.868  0.00  0.00    +0.000 C 
ATOM      2  C   UNL     1      45.274   5.420   9.617  0.00  0.00    +0.000 C 
ENDROOT
BRANCH   1   7
ATOM      3  C   UNL     1      44.189   9.214  11.451  0.00  0.00    +0.000 A 
ATOM      4  C   UNL     1      45.072   9.654  12.439  0.00  0.00    +0.000 A 
ATOM      5  C   UNL     1      46.079   8.800  12.854  0.00  0.00    +0.000 A 
ATOM      6  N   UNL     1      46.265   7.558  12.360  0.00  0.00    +0.000 NA
ATOM      7  C   UNL     1      45.409   7.133  11.401  0.00  0.00    +0.000 A 
ATOM      8  C   UNL     1      44.371   7.928  10.923  0.00  0.00    +0.000 A 
BRANCH   3   9
ATOM      9  C   UNL     1      43.086  10.104  10.947  0.00  0.00    +0.000 C 
BRANCH   9  10
ATOM     10  N   UNL     1      41.797   9.424  10.973  0.00  0.00    +0.000 NA
ATOM     11  H   UNL     1      41.882   8.530  10.494  0.00  0.00    +0.000 HD
ATOM     12  H   UNL     1      41.123   9.972  10.440  0.00  0.00    +0.000 HD
ENDBRANCH   9  10
ENDBRANCH   3   9
ENDBRANCH   1   7
BRANCH   2  13
ATOM     13  C   UNL     1      45.470   4.087   9.035  0.00  0.00    +0.000 A 
ATOM     14  C   UNL     1      44.851   2.983   9.621  0.00  0.00    +0.000 A 
ATOM     15  N   UNL     1      44.993   1.705   9.193  0.00  0.00    +0.000 NA
ATOM     16  C   UNL     1      45.807   1.511   8.127  0.00  0.00    +0.000 A 
ATOM     17  C   UNL     1      46.486   2.528   7.472  0.00  0.00    +0.000 A 
ATOM     18  C   UNL     1      46.309   3.836   7.945  0.00  0.00    +0.000 A 
BRANCH  17  19
ATOM     19  C   UNL     1      47.384   2.301   6.313  0.00  0.00    +0.000 C 
ATOM     20  N   UNL     1      47.311   3.138   5.234  0.00  0.00    +0.000 N 
ATOM     21  O   UNL     1      48.189   1.376   6.310  0.00  0.00    +0.000 OA
ATOM     22  H   UNL     1      46.687   3.923   5.129  0.00  0.00    +0.000 HD
ATOM     23  H   UNL     1      47.941   2.938   4.467  0.00  0.00    +0.000 HD
ENDBRANCH  17  19
ENDBRANCH   2  13
TORSDOF 5
ENDMDL
MODEL 2
REMARK VINA RESULT:    -6.442      5.506      7.351
REMARK INTER + INTRA:          -8.492
REMARK INTER:                  -8.159
REMARK INTRA:                  -0.333
REMARK UNBOUND:                -0.355
REMARK  Name = 
REMARK  5 active torsions:
REMARK  status: ('A' for Active; 'I' for Inactive)
REMARK    1  A    between atoms: N_1  and  C_2
REMARK    2  A    between atoms: C_2  and  C_3
REMARK    3  A    between atoms: C_7  and  C_8
REMARK    4  A    between atoms: C_9  and  C_10
REMARK    5  A    between atoms: C_14  and  C_15
REMARK                            x       y       z     vdW  Elec       q    Type
REMARK                         _______ _______ _______ _____ _____    ______ ____
ROOT
ATOM      1  C   UNL     1      46.791   4.162  14.984  0.00  0.00    +0.000 C 
ATOM      2  C   UNL     1      47.074   5.157  14.126  0.00  0.00    +0.000 C 
ENDROOT
BRANCH   1   7
ATOM      3  C   UNL     1      48.622   3.986  18.271  0.00  0.00    +0.000 A 
ATOM      4  C   UNL     1      49.439   2.885  18.010  0.00  0.00    +0.000 A 
ATOM      5  C   UNL     1      49.343   2.268  16.775  0.00  0.00    +0.000 A 
ATOM      6  N   UNL     1      48.501   2.666  15.797  0.00  0.00    +0.000 NA
ATOM      7  C   UNL     1      47.710   3.734  16.052  0.00  0.00    +0.000 A 
ATOM      8  C   UNL     1      47.745   4.416  17.264  0.00  0.00    +0.000 A 
BRANCH   3   9
ATOM      9  C   UNL     1      48.695   4.709  19.589  0.00  0.00    +0.000 C 
BRANCH   9  10
ATOM     10  N   UNL     1      48.428   3.813  20.706  0.00  0.00    +0.000 NA
ATOM     11  H   UNL     1      48.023   2.949  20.351  0.00  0.00    +0.000 HD
ATOM     12  H   UNL     1      47.721   4.235  21.307  0.00  0.00    +0.000 HD
ENDBRANCH   9  10
ENDBRANCH   3   9
ENDBRANCH   1   7
BRANCH   2  13
ATOM     13  C   UNL     1      46.200   5.611  13.038  0.00  0.00    +0.000 A 
ATOM     14  C   UNL     1      45.977   6.976  12.859  0.00  0.00    +0.000 A 
ATOM     15  N   UNL     1      45.160   7.505  11.916  0.00  0.00    +0.000 NA
ATOM     16  C   UNL     1      44.517   6.624  11.111  0.00  0.00    +0.000 A 
ATOM     17  C   UNL     1      44.648   5.246  11.204  0.00  0.00    +0.000 A 
ATOM     18  C   UNL     1      45.506   4.741  12.192  0.00  0.00    +0.000 A 
BRANCH  17  19
ATOM     19  C   UNL     1      43.929   4.292  10.324  0.00  0.00    +0.000 C 
ATOM     20  N   UNL     1      43.997   4.451   8.968  0.00  0.00    +0.000 N 
ATOM     21  O   UNL     1      43.277   3.366  10.795  0.00  0.00    +0.000 OA
ATOM     22  H   UNL     1      44.497   5.175   8.476  0.00  0.00    +0.000 HD
ATOM     23  H   UNL     1      43.485   3.778   8.411  0.00  0.00    +0.000 HD
ENDBRANCH  17  19
ENDBRANCH   2  13
TORSDOF 5
ENDMDL
MODEL 3
REMARK VINA RESULT:    -6.224      4.583      6.101
REMARK INTER + INTRA:          -8.217
REMARK INTER:                  -7.837
REMARK INTRA:                  -0.380
REMARK UNBOUND:                -0.355
REMARK  Name = 
REMARK  5 active torsions:
REMARK  status: ('A' for Active; 'I' for Inactive)
REMARK    1  A    between atoms: N_1  and  C_2
REMARK    2  A    between atoms: C_2  and  C_3
REMARK    3  A    between atoms: C_7  and  C_8
REMARK    4  A    between atoms: C_9  and  C_10
REMARK    5  A    between atoms: C_14  and  C_15
REMARK                            x       y       z     vdW  Elec       q    Type
REMARK                         _______ _______ _______ _____ _____    ______ ____
ROOT
ATOM      1  C   UNL     1      47.039   5.620  14.017  0.00  0.00    +0.000 C 
ATOM      2  C   UNL     1      46.008   4.792  13.776  0.00  0.00    +0.000 C 
ENDROOT
BRANCH   1   7
ATOM      3  C   UNL     1      48.519   4.403  17.260  0.00  0.00    +0.000 A 
ATOM      4  C   UNL     1      49.584   5.299  17.367  0.00  0.00    +0.000 A 
ATOM      5  C   UNL     1      49.752   6.248  16.373  0.00  0.00    +0.000 A 
ATOM      6  N   UNL     1      48.946   6.363  15.297  0.00  0.00    +0.000 NA
ATOM      7  C   UNL     1      47.913   5.493  15.195  0.00  0.00    +0.000 A 
ATOM      8  C   UNL     1      47.669   4.511  16.150  0.00  0.00    +0.000 A 
BRANCH   3   9
ATOM      9  C   UNL     1      48.275   3.361  18.318  0.00  0.00    +0.000 C 
BRANCH   9  10
ATOM     10  N   UNL     1      47.020   2.656  18.093  0.00  0.00    +0.000 NA
ATOM     11  H   UNL     1      46.872   1.989  18.848  0.00  0.00    +0.000 HD
ATOM     12  H   UNL     1      47.096   2.107  17.238  0.00  0.00    +0.000 HD
ENDBRANCH   9  10
ENDBRANCH   3   9
ENDBRANCH   1   7
BRANCH   2  13
ATOM     13  C   UNL     1      45.100   4.885  12.626  0.00  0.00    +0.000 A 
ATOM     14  C   UNL     1      43.751   5.169  12.837  0.00  0.00    +0.000 A 
ATOM     15  N   UNL     1      42.818   5.239  11.857  0.00  0.00    +0.000 NA
ATOM     16  C   UNL     1      43.249   5.000  10.594  0.00  0.00    +0.000 A 
ATOM     17  C   UNL     1      44.561   4.694  10.264  0.00  0.00    +0.000 A 
ATOM     18  C   UNL     1      45.495   4.635  11.309  0.00  0.00    +0.000 A 
BRANCH  17  19
ATOM     19  C   UNL     1      45.017   4.424   8.879  0.00  0.00    +0.000 C 
ATOM     20  N   UNL     1      44.361   3.487   8.129  0.00  0.00    +0.000 N 
ATOM     21  O   UNL     1      45.970   5.028   8.398  0.00  0.00    +0.000 OA
ATOM     22  H   UNL     1      43.573   2.933   8.423  0.00  0.00    +0.000 HD
ATOM     23  H   UNL     1      44.713   3.336   7.192  0.00  0.00    +0.000 HD
ENDBRANCH  17  19
ENDBRANCH   2  13
TORSDOF 5
ENDMDL
MODEL 4
REMARK VINA RESULT:    -6.142      5.763      7.628
REMARK INTER + INTRA:          -8.112
REMARK INTER:                  -7.784
REMARK INTRA:                  -0.329
REMARK UNBOUND:                -0.355
REMARK  Name = 
REMARK  5 active torsions:
REMARK  status: ('A' for Active; 'I' for Inactive)
REMARK    1  A    between atoms: N_1  and  C_2
REMARK    2  A    between atoms: C_2  and  C_3
REMARK    3  A    between atoms: C_7  and  C_8
REMARK    4  A    between atoms: C_9  and  C_10
REMARK    5  A    between atoms: C_14  and  C_15
REMARK                            x       y       z     vdW  Elec       q    Type
REMARK                         _______ _______ _______ _____ _____    ______ ____
ROOT
ATOM      1  C   UNL     1      46.785   4.358  15.170  0.00  0.00    +0.000 C 
ATOM      2  C   UNL     1      46.767   4.013  13.870  0.00  0.00    +0.000 C 
ENDROOT
BRANCH   1   7
ATOM      3  C   UNL     1      48.856   3.882  18.280  0.00  0.00    +0.000 A 
ATOM      4  C   UNL     1      49.577   2.751  17.893  0.00  0.00    +0.000 A 
ATOM      5  C   UNL     1      49.343   2.214  16.640  0.00  0.00    +0.000 A 
ATOM      6  N   UNL     1      48.454   2.717  15.757  0.00  0.00    +0.000 NA
ATOM      7  C   UNL     1      47.756   3.815  16.133  0.00  0.00    +0.000 A 
ATOM      8  C   UNL     1      47.931   4.421  17.373  0.00  0.00    +0.000 A 
BRANCH   3   9
ATOM      9  C   UNL     1      49.079   4.522  19.623  0.00  0.00    +0.000 C 
BRANCH   9  10
ATOM     10  N   UNL     1      48.334   3.838  20.671  0.00  0.00    +0.000 NA
ATOM     11  H   UNL     1      48.977   3.282  21.231  0.00  0.00    +0.000 HD
ATOM     12  H   UNL     1      47.686   3.179  20.241  0.00  0.00    +0.000 HD
ENDBRANCH   9  10
ENDBRANCH   3   9
ENDBRANCH   1   7
BRANCH   2  13
ATOM     13  C   UNL     1      45.813   4.515  12.875  0.00  0.00    +0.000 A 
ATOM     14  C   UNL     1      45.130   3.611  12.061  0.00  0.00    +0.000 A 
ATOM     15  N   UNL     1      44.258   3.963  11.085  0.00  0.00    +0.000 NA
ATOM     16  C   UNL     1      44.063   5.291  10.898  0.00  0.00    +0.000 A 
ATOM     17  C   UNL     1      44.696   6.281  11.636  0.00  0.00    +0.000 A 
ATOM     18  C   UNL     1      45.587   5.874  12.638  0.00  0.00    +0.000 A 
BRANCH  17  19
ATOM     19  C   UNL     1      44.482   7.733  11.413  0.00  0.00    +0.000 C 
ATOM     20  N   UNL     1      43.292   8.162  10.893  0.00  0.00    +0.000 N 
ATOM     21  O   UNL     1      45.354   8.550  11.689  0.00  0.00    +0.000 OA
ATOM     22  H   UNL     1      42.512   7.581  10.628  0.00  0.00    +0.000 HD
ATOM     23  H   UNL     1      43.197   9.160  10.755  0.00  0.00    +0.000 HD
ENDBRANCH  17  19
ENDBRANCH   2  13
TORSDOF 5
ENDMDL
MODEL 5
REMARK VINA RESULT:    -5.958      5.623      8.443
REMARK INTER + INTRA:          -7.881
REMARK INTER:                  -7.543
REMARK INTRA:                  -0.337
REMARK UNBOUND:                -0.355
REMARK  Name = 
REMARK  5 active torsions:
REMARK  status: ('A' for Active; 'I' for Inactive)
REMARK    1  A    between atoms: N_1  and  C_2
REMARK    2  A    between atoms: C_2  and  C_3
REMARK    3  A    between atoms: C_7  and  C_8
REMARK    4  A    between atoms: C_9  and  C_10
REMARK    5  A    between atoms: C_14  and  C_15
REMARK                            x       y       z     vdW  Elec       q    Type
REMARK                         _______ _______ _______ _____ _____    ______ ____
ROOT
ATOM      1  C   UNL     1      46.126   5.031  13.663  0.00  0.00    +0.000 C 
ATOM      2  C   UNL     1      46.847   4.361  14.579  0.00  0.00    +0.000 C 
ENDROOT
BRANCH   1   7
ATOM      3  C   UNL     1      44.576   4.013  10.385  0.00  0.00    +0.000 A 
ATOM      4  C   UNL     1      43.648   3.084  10.859  0.00  0.00    +0.000 A 
ATOM      5  C   UNL     1      43.586   2.848  12.221  0.00  0.00    +0.000 A 
ATOM      6  N   UNL     1      44.371   3.464  13.130  0.00  0.00    +0.000 NA
ATOM      7  C   UNL     1      45.269   4.365  12.669  0.00  0.00    +0.000 A 
ATOM      8  C   UNL     1      45.397   4.666  11.316  0.00  0.00    +0.000 A 
BRANCH   3   9
ATOM      9  C   UNL     1      44.679   4.325   8.917  0.00  0.00    +0.000 C 
BRANCH   9  10
ATOM     10  N   UNL     1      45.791   5.224   8.638  0.00  0.00    +0.000 NA
ATOM     11  H   UNL     1      46.328   5.366   9.491  0.00  0.00    +0.000 HD
ATOM     12  H   UNL     1      45.421   6.137   8.376  0.00  0.00    +0.000 HD
ENDBRANCH   9  10
ENDBRANCH   3   9
ENDBRANCH   1   7
BRANCH   2  13
ATOM     13  C   UNL     1      47.726   4.977  15.580  0.00  0.00    +0.000 A 
ATOM     14  C   UNL     1      48.357   6.186  15.291  0.00  0.00    +0.000 A 
ATOM     15  N   UNL     1      49.217   6.824  16.121  0.00  0.00    +0.000 NA
ATOM     16  C   UNL     1      49.475   6.216  17.306  0.00  0.00    +0.000 A 
ATOM     17  C   UNL     1      48.919   5.007  17.697  0.00  0.00    +0.000 A 
ATOM     18  C   UNL     1      48.032   4.383  16.808  0.00  0.00    +0.000 A 
BRANCH  17  19
ATOM     19  C   UNL     1      49.219   4.347  18.992  0.00  0.00    +0.000 C 
ATOM     20  N   UNL     1      48.397   3.352  19.443  0.00  0.00    +0.000 N 
ATOM     21  O   UNL     1      50.192   4.680  19.660  0.00  0.00    +0.000 OA
ATOM     22  H   UNL     1      47.572   3.003  18.980  0.00  0.00    +0.000 HD
ATOM     23  H   UNL     1      48.641   2.937  20.333  0.00  0.00    +0.000 HD
ENDBRANCH  17  19
ENDBRANCH   2  13
TORSDOF 5
ENDMDL
MODEL 6
REMARK VINA RESULT:    -5.933      6.068      8.184
REMARK INTER + INTRA:          -7.849
REMARK INTER:                  -7.479
REMARK INTRA:                  -0.370
REMARK UNBOUND:                -0.355
REMARK  Name = 
REMARK  5 active torsions:
REMARK  status: ('A' for Active; 'I' for Inactive)
REMARK    1  A    between atoms: N_1  and  C_2
REMARK    2  A    between atoms: C_2  and  C_3
REMARK    3  A    between atoms: C_7  and  C_8
REMARK    4  A    between atoms: C_9  and  C_10
REMARK    5  A    between atoms: C_14  and  C_15
REMARK                            x       y       z     vdW  Elec       q    Type
REMARK                         _______ _______ _______ _____ _____    ______ ____
ROOT
ATOM      1  C   UNL     1      47.051   4.999  14.267  0.00  0.00    +0.000 C 
ATOM      2  C   UNL     1      46.989   3.980  15.142  0.00  0.00    +0.000 C 
ENDROOT
BRANCH   1   7
ATOM      3  C   UNL     1      44.523   4.151  11.608  0.00  0.00    +0.000 A 
ATOM      4  C   UNL     1      44.745   5.223  10.742  0.00  0.00    +0.000 A 
ATOM      5  C   UNL     1      45.708   6.157  11.080  0.00  0.00    +0.000 A 
ATOM      6  N   UNL     1      46.455   6.098  12.203  0.00  0.00    +0.000 NA
ATOM      7  C   UNL     1      46.238   5.057  13.041  0.00  0.00    +0.000 A 
ATOM      8  C   UNL     1      45.292   4.071  12.778  0.00  0.00    +0.000 A 
BRANCH   3   9
ATOM      9  C   UNL     1      43.501   3.094  11.285  0.00  0.00    +0.000 C 
BRANCH   9  10
ATOM     10  N   UNL     1      43.465   2.056  12.307  0.00  0.00    +0.000 NA
ATOM     11  H   UNL     1      42.731   1.388  12.080  0.00  0.00    +0.000 HD
ATOM     12  H   UNL     1      43.205   2.476  13.198  0.00  0.00    +0.000 HD
ENDBRANCH   9  10
ENDBRANCH   3   9
ENDBRANCH   1   7
BRANCH   2  13
ATOM     13  C   UNL     1      47.787   3.868  16.369  0.00  0.00    +0.000 A 
ATOM     14  C   UNL     1      47.437   4.622  17.488  0.00  0.00    +0.000 A 
ATOM     15  N   UNL     1      48.122   4.628  18.657  0.00  0.00    +0.000 NA
ATOM     16  C   UNL     1      49.230   3.848  18.712  0.00  0.00    +0.000 A 
ATOM     17  C   UNL     1      49.683   3.066  17.660  0.00  0.00    +0.000 A 
ATOM     18  C   UNL     1      48.942   3.087  16.470  0.00  0.00    +0.000 A 
BRANCH  17  19
ATOM     19  C   UNL     1      50.904   2.225  17.730  0.00  0.00    +0.000 C 
ATOM     20  N   UNL     1      51.981   2.667  18.448  0.00  0.00    +0.000 N 
ATOM     21  O   UNL     1      50.959   1.143  17.156  0.00  0.00    +0.000 OA
ATOM     22  H   UNL     1      52.045   3.536  18.953  0.00  0.00    +0.000 HD
ATOM     23  H   UNL     1      52.791   2.059  18.461  0.00  0.00    +0.000 HD
ENDBRANCH  17  19
ENDBRANCH   2  13
TORSDOF 5
ENDMDL
MODEL 7
REMARK VINA RESULT:    -5.620      3.199      4.817
REMARK INTER + INTRA:          -7.453
REMARK INTER:                  -7.112
REMARK INTRA:                  -0.341
REMARK UNBOUND:                -0.355
REMARK  Name = 
REMARK  5 active torsions:
REMARK  status: ('A' for Active; 'I' for Inactive)
REMARK    1  A    between atoms: N_1  and  C_2
REMARK    2  A    between atoms: C_2  and  C_3
REMARK    3  A    between atoms: C_7  and  C_8
REMARK    4  A    between atoms: C_9  and  C_10
REMARK    5  A    between atoms: C_14  and  C_15
REMARK                            x       y       z     vdW  Elec       q    Type
REMARK                         _______ _______ _______ _____ _____    ______ ____
ROOT
ATOM      1  C   UNL     1      47.026   6.676  11.636  0.00  0.00    +0.000 C 
ATOM      2  C   UNL     1      46.169   6.069  12.475  0.00  0.00    +0.000 C 
ENDROOT
BRANCH   1   7
ATOM      3  C   UNL     1      50.082   8.824  12.122  0.00  0.00    +0.000 A 
ATOM      4  C   UNL     1      49.502   9.876  12.833  0.00  0.00    +0.000 A 
ATOM      5  C   UNL     1      48.147   9.818  13.111  0.00  0.00    +0.000 A 
ATOM      6  N   UNL     1      47.343   8.801  12.736  0.00  0.00    +0.000 NA
ATOM      7  C   UNL     1      47.907   7.781  12.047  0.00  0.00    +0.000 A 
ATOM      8  C   UNL     1      49.262   7.756  11.728  0.00  0.00    +0.000 A 
BRANCH   3   9
ATOM      9  C   UNL     1      51.553   8.822  11.806  0.00  0.00    +0.000 C 
BRANCH   9  10
ATOM     10  N   UNL     1      52.317   8.108  12.821  0.00  0.00    +0.000 NA
ATOM     11  H   UNL     1      52.891   8.773  13.335  0.00  0.00    +0.000 HD
ATOM     12  H   UNL     1      52.962   7.468  12.360  0.00  0.00    +0.000 HD
ENDBRANCH   9  10
ENDBRANCH   3   9
ENDBRANCH   1   7
BRANCH   2  13
ATOM     13  C   UNL     1      45.261   4.975  12.112  0.00  0.00    +0.000 A 
ATOM     14  C   UNL     1      44.393   4.454  13.071  0.00  0.00    +0.000 A 
ATOM     15  N   UNL     1      43.543   3.421  12.858  0.00  0.00    +0.000 NA
ATOM     16  C   UNL     1      43.564   2.864  11.622  0.00  0.00    +0.000 A 
ATOM     17  C   UNL     1      44.393   3.288  10.593  0.00  0.00    +0.000 A 
ATOM     18  C   UNL     1      45.255   4.362  10.856  0.00  0.00    +0.000 A 
BRANCH  17  19
ATOM     19  C   UNL     1      44.415   2.662   9.248  0.00  0.00    +0.000 C 
ATOM     20  N   UNL     1      44.280   3.452   8.140  0.00  0.00    +0.000 N 
ATOM     21  O   UNL     1      44.554   1.450   9.117  0.00  0.00    +0.000 OA
ATOM     22  H   UNL     1      44.157   4.452   8.131  0.00  0.00    +0.000 HD
ATOM     23  H   UNL     1      44.296   2.977   7.246  0.00  0.00    +0.000 HD
ENDBRANCH  17  19
ENDBRANCH   2  13
TORSDOF 5
ENDMDL
MODEL 8
REMARK VINA RESULT:    -5.554      6.148      8.102
REMARK INTER + INTRA:          -7.370
REMARK INTER:                  -6.994
REMARK INTRA:                  -0.375
REMARK UNBOUND:                -0.355
REMARK  Name = 
REMARK  5 active torsions:
REMARK  status: ('A' for Active; 'I' for Inactive)
REMARK    1  A    between atoms: N_1  and  C_2
REMARK    2  A    between atoms: C_2  and  C_3
REMARK    3  A    between atoms: C_7  and  C_8
REMARK    4  A    between atoms: C_9  and  C_10
REMARK    5  A    between atoms: C_14  and  C_15
REMARK                            x       y       z     vdW  Elec       q    Type
REMARK                         _______ _______ _______ _____ _____    ______ ____
ROOT
ATOM      1  C   UNL     1      47.086   3.921  14.345  0.00  0.00    +0.000 C 
ATOM      2  C   UNL     1      46.946   4.429  15.582  0.00  0.00    +0.000 C 
ENDROOT
BRANCH   1   7
ATOM      3  C   UNL     1      45.041   5.806  11.805  0.00  0.00    +0.000 A 
ATOM      4  C   UNL     1      44.426   4.726  11.170  0.00  0.00    +0.000 A 
ATOM      5  C   UNL     1      44.717   3.447  11.612  0.00  0.00    +0.000 A 
ATOM      6  N   UNL     1      45.564   3.174  12.627  0.00  0.00    +0.000 NA
ATOM      7  C   UNL     1      46.159   4.223  13.242  0.00  0.00    +0.000 A 
ATOM      8  C   UNL     1      45.921   5.541  12.864  0.00  0.00    +0.000 A 
BRANCH   3   9
ATOM      9  C   UNL     1      44.751   7.221  11.380  0.00  0.00    +0.000 C 
BRANCH   9  10
ATOM     10  N   UNL     1      44.799   8.138  12.511  0.00  0.00    +0.000 NA
ATOM     11  H   UNL     1      45.427   8.908  12.291  0.00  0.00    +0.000 HD
ATOM     12  H   UNL     1      45.205   7.656  13.312  0.00  0.00    +0.000 HD
ENDBRANCH   9  10
ENDBRANCH   3   9
ENDBRANCH   1   7
BRANCH   2  13
ATOM     13  C   UNL     1      47.833   4.148  16.717  0.00  0.00    +0.000 A 
ATOM     14  C   UNL     1      47.618   4.796  17.933  0.00  0.00    +0.000 A 
ATOM     15  N   UNL     1      48.396   4.644  19.033  0.00  0.00    +0.000 NA
ATOM     16  C   UNL     1      49.456   3.808  18.913  0.00  0.00    +0.000 A 
ATOM     17  C   UNL     1      49.777   3.121  17.751  0.00  0.00    +0.000 A 
ATOM     18  C   UNL     1      48.944   3.305  16.638  0.00  0.00    +0.000 A 
BRANCH  17  19
ATOM     19  C   UNL     1      50.947   2.217  17.629  0.00  0.00    +0.000 C 
ATOM     20  N   UNL     1      52.127   2.566  18.227  0.00  0.00    +0.000 N 
ATOM     21  O   UNL     1      50.872   1.165  17.003  0.00  0.00    +0.000 OA
ATOM     22  H   UNL     1      52.301   3.403  18.760  0.00  0.00    +0.000 HD
ATOM     23  H   UNL     1      52.897   1.919  18.111  0.00  0.00    +0.000 HD
ENDBRANCH  17  19
ENDBRANCH   2  13
TORSDOF 5
ENDMDL
MODEL 9
REMARK VINA RESULT:    -5.491      3.445      4.779
REMARK INTER + INTRA:          -7.291
REMARK INTER:                  -6.912
REMARK INTRA:                  -0.378
REMARK UNBOUND:                -0.355
REMARK  Name = 
REMARK  5 active torsions:
REMARK  status: ('A' for Active; 'I' for Inactive)
REMARK    1  A    between atoms: N_1  and  C_2
REMARK    2  A    between atoms: C_2  and  C_3
REMARK    3  A    between atoms: C_7  and  C_8
REMARK    4  A    between atoms: C_9  and  C_10
REMARK    5  A    between atoms: C_14  and  C_15
REMARK                            x       y       z     vdW  Elec       q    Type
REMARK                         _______ _______ _______ _____ _____    ______ ____
ROOT
ATOM      1  C   UNL     1      47.593   6.023  12.661  0.00  0.00    +0.000 C 
ATOM      2  C   UNL     1      46.263   6.068  12.848  0.00  0.00    +0.000 C 
ENDROOT
BRANCH   1   7
ATOM      3  C   UNL     1      49.178   8.701  14.782  0.00  0.00    +0.000 A 
ATOM      4  C   UNL     1      50.253   9.031  13.955  0.00  0.00    +0.000 A 
ATOM      5  C   UNL     1      50.394   8.358  12.754  0.00  0.00    +0.000 A 
ATOM      6  N   UNL     1      49.551   7.395  12.326  0.00  0.00    +0.000 NA
ATOM      7  C   UNL     1      48.508   7.077  13.129  0.00  0.00    +0.000 A 
ATOM      8  C   UNL     1      48.290   7.705  14.351  0.00  0.00    +0.000 A 
BRANCH   3   9
ATOM      9  C   UNL     1      48.963   9.410  16.092  0.00  0.00    +0.000 C 
BRANCH   9  10
ATOM     10  N   UNL     1      47.560   9.393  16.485  0.00  0.00    +0.000 NA
ATOM     11  H   UNL     1      47.342  10.253  16.983  0.00  0.00    +0.000 HD
ATOM     12  H   UNL     1      47.411   8.633  17.147  0.00  0.00    +0.000 HD
ENDBRANCH   9  10
ENDBRANCH   3   9
ENDBRANCH   1   7
BRANCH   2  13
ATOM     13  C   UNL     1      45.309   5.052  12.389  0.00  0.00    +0.000 A 
ATOM     14  C   UNL     1      44.366   4.541  13.281  0.00  0.00    +0.000 A 
ATOM     15  N   UNL     1      43.466   3.575  12.979  0.00  0.00    +0.000 NA
ATOM     16  C   UNL     1      43.513   3.077  11.718  0.00  0.00    +0.000 A 
ATOM     17  C   UNL     1      44.414   3.497  10.750  0.00  0.00    +0.000 A 
ATOM     18  C   UNL     1      45.327   4.501  11.105  0.00  0.00    +0.000 A 
BRANCH  17  19
ATOM     19  C   UNL     1      44.463   2.936   9.378  0.00  0.00    +0.000 C 
ATOM     20  N   UNL     1      44.267   3.765   8.308  0.00  0.00    +0.000 N 
ATOM     21  O   UNL     1      44.677   1.743   9.190  0.00  0.00    +0.000 OA
ATOM     22  H   UNL     1      44.081   4.755   8.346  0.00  0.00    +0.000 HD
ATOM     23  H   UNL     1      44.305   3.333   7.393  0.00  0.00    +0.000 HD
ENDBRANCH  17  19
ENDBRANCH   2  13
TORSDOF 5
ENDMDL
