MODEL 1
REMARK VINA RESULT:    -7.315      0.000      0.000
REMARK INTER + INTRA:         -10.942
REMARK INTER:                 -10.309
REMARK INTRA:                  -0.633
REMARK UNBOUND:                -0.633
REMARK  Name = 
REMARK  9 active torsions:
REMARK  status: ('A' for Active; 'I' for Inactive)
REMARK    1  A    between atoms: C_1  and  C_2
REMARK    2  A    between atoms: C_2  and  C_3
REMARK    3  A    between atoms: C_6  and  O_7
REMARK    4  A    between atoms: O_7  and  C_8
REMARK    5  A    between atoms: C_12  and  C_13
REMARK    6  A    between atoms: C_14  and  C_15
REMARK    7  A    between atoms: C_15  and  O_16
REMARK    8  A    between atoms: O_16  and  C_17
REMARK    9  A    between atoms: C_21  and  C_22
REMARK                            x       y       z     vdW  Elec       q    Type
REMARK                         _______ _______ _______ _____ _____    ______ ____
ROOT
ATOM      1  C   UNL     1      48.130   5.810  15.522  0.00  0.00    +0.000 A 
ATOM      2  C   UNL     1      48.886   6.638  14.697  0.00  0.00    +0.000 A 
ATOM      3  N   UNL     1      48.661   6.806  13.372  0.00  0.00    +0.000 NA
ATOM      4  C   UNL     1      47.651   6.080  12.841  0.00  0.00    +0.000 A 
ATOM      5  C   UNL     1      46.877   5.194  13.577  0.00  0.00    +0.000 A 
ATOM      6  C   UNL     1      47.117   5.062  14.941  0.00  0.00    +0.000 A 
ENDROOT
BRANCH   5   7
ATOM      7  C   UNL     1      45.872   4.397  12.964  0.00  0.00    +0.000 C 
ATOM      8  C   UNL     1      44.966   3.656  12.389  0.00  0.00    +0.000 C 
BRANCH   8   9
ATOM      9  C   UNL     1      43.911   2.794  11.718  0.00  0.00    +0.000 C 
BRANCH   9  10
ATOM     10  O   UNL     1      43.561   3.351  10.456  0.00  0.00    +0.000 OA
BRANCH  10  11
ATOM     11  C   UNL     1      44.538   3.320   9.497  0.00  0.00    +0.000 A 
ATOM     12  C   UNL     1      45.091   4.433   8.852  0.00  0.00    +0.000 A 
ATOM     13  C   UNL     1      46.085   4.267   7.885  0.00  0.00    +0.000 A 
ATOM     14  C   UNL     1      46.535   2.987   7.557  0.00  0.00    +0.000 A 
ATOM     15  C   UNL     1      45.989   1.875   8.195  0.00  0.00    +0.000 A 
ATOM     16  C   UNL     1      44.993   2.042   9.165  0.00  0.00    +0.000 A 
BRANCH  15  17
ATOM     17  C   UNL     1      46.448   0.558   7.862  0.00  0.00    +0.000 C 
ATOM     18  N   UNL     1      46.818  -0.506   7.585  0.00  0.00    +0.000 NA
ENDBRANCH  15  17
ENDBRANCH  10  11
ENDBRANCH   9  10
ENDBRANCH   8   9
ENDBRANCH   5   7
BRANCH   1  19
ATOM     19  O   UNL     1      48.472   5.732  16.843  0.00  0.00    +0.000 OA
BRANCH  19  25
ATOM     20  C   UNL     1      47.651   2.924  17.450  0.00  0.00    +0.000 C 
ATOM     21  C   UNL     1      49.082   3.367  17.718  0.00  0.00    +0.000 C 
ATOM     22  C   UNL     1      50.083   2.250  17.415  0.00  0.00    +0.000 C 
ATOM     23  O   UNL     1      49.230   3.788  19.109  0.00  0.00    +0.000 OA
ATOM     24  C   UNL     1      49.981   4.953  18.685  0.00  0.00    +0.000 C 
ATOM     25  C   UNL     1      49.506   4.788  17.233  0.00  0.00    +0.000 C 
ENDBRANCH  19  25
ENDBRANCH   1  19
TORSDOF 7
ENDMDL
MODEL 2
REMARK VINA RESULT:    -6.926      2.278      4.150
REMARK INTER + INTRA:         -10.393
REMARK INTER:                  -9.638
REMARK INTRA:                  -0.756
REMARK UNBOUND:                -0.633
REMARK  Name = 
REMARK  9 active torsions:
REMARK  status: ('A' for Active; 'I' for Inactive)
REMARK    1  A    between atoms: C_1  and  C_2
REMARK    2  A    between atoms: C_2  and  C_3
REMARK    3  A    between atoms: C_6  and  O_7
REMARK    4  A    between atoms: O_7  and  C_8
REMARK    5  A    between atoms: C_12  and  C_13
REMARK    6  A    between atoms: C_14  and  C_15
REMARK    7  A    between atoms: C_15  and  O_16
REMARK    8  A    between atoms: O_16  and  C_17
REMARK    9  A    between atoms: C_21  and  C_22
REMARK                            x       y       z     vdW  Elec       q    Type
REMARK                         _______ _______ _______ _____ _____    ______ ____
ROOT
ATOM      1  C   UNL     1      48.531   6.481  14.450  0.00  0.00    +0.000 A 
ATOM      2  C   UNL     1      48.681   5.720  15.606  0.00  0.00    +0.000 A 
ATOM      3  N   UNL     1      47.888   4.673  15.940  0.00  0.00    +0.000 NA
ATOM      4  C   UNL     1      46.872   4.400  15.090  0.00  0.00    +0.000 A 
ATOM      5  C   UNL     1      46.617   5.135  13.941  0.00  0.00    +0.000 A 
ATOM      6  C   UNL     1      47.464   6.189  13.613  0.00  0.00    +0.000 A 
ENDROOT
BRANCH   5   7
ATOM      7  C   UNL     1      45.495   4.857  13.114  0.00  0.00    +0.000 C 
ATOM      8  C   UNL     1      44.451   4.612  12.371  0.00  0.00    +0.000 C 
BRANCH   8   9
ATOM      9  C   UNL     1      43.236   4.326  11.506  0.00  0.00    +0.000 C 
BRANCH   9  10
ATOM     10  O   UNL     1      43.457   3.148  10.736  0.00  0.00    +0.000 OA
BRANCH  10  11
ATOM     11  C   UNL     1      44.376   3.257   9.726  0.00  0.00    +0.000 A 
ATOM     12  C   UNL     1      44.772   4.444   9.100  0.00  0.00    +0.000 A 
ATOM     13  C   UNL     1      45.722   4.419   8.076  0.00  0.00    +0.000 A 
ATOM     14  C   UNL     1      46.284   3.207   7.673  0.00  0.00    +0.000 A 
ATOM     15  C   UNL     1      45.894   2.021   8.293  0.00  0.00    +0.000 A 
ATOM     16  C   UNL     1      44.942   2.047   9.319  0.00  0.00    +0.000 A 
BRANCH  15  17
ATOM     17  C   UNL     1      46.469   0.773   7.882  0.00  0.00    +0.000 C 
ATOM     18  N   UNL     1      46.938  -0.233   7.546  0.00  0.00    +0.000 NA
ENDBRANCH  15  17
ENDBRANCH  10  11
ENDBRANCH   9  10
ENDBRANCH   8   9
ENDBRANCH   5   7
BRANCH   1  19
ATOM     19  O   UNL     1      49.401   7.514  14.242  0.00  0.00    +0.000 OA
BRANCH  19  25
ATOM     20  C   UNL     1      50.264   8.257  11.480  0.00  0.00    +0.000 C 
ATOM     21  C   UNL     1      49.452   9.242  12.307  0.00  0.00    +0.000 C 
ATOM     22  C   UNL     1      48.466  10.027  11.441  0.00  0.00    +0.000 C 
ATOM     23  O   UNL     1      50.337  10.173  13.001  0.00  0.00    +0.000 OA
ATOM     24  C   UNL     1      49.567  10.013  14.219  0.00  0.00    +0.000 C 
ATOM     25  C   UNL     1      48.885   8.748  13.675  0.00  0.00    +0.000 C 
ENDBRANCH  19  25
ENDBRANCH   1  19
TORSDOF 7
ENDMDL
MODEL 3
REMARK VINA RESULT:    -6.822      1.621      2.073
REMARK INTER + INTRA:         -10.247
REMARK INTER:                  -9.528
REMARK INTRA:                  -0.718
REMARK UNBOUND:                -0.633
REMARK  Name = 
REMARK  9 active torsions:
REMARK  status: ('A' for Active; 'I' for Inactive)
REMARK    1  A    between atoms: C_1  and  C_2
REMARK    2  A    between atoms: C_2  and  C_3
REMARK    3  A    between atoms: C_6  and  O_7
REMARK    4  A    between atoms: O_7  and  C_8
REMARK    5  A    between atoms: C_12  and  C_13
REMARK    6  A    between atoms: C_14  and  C_15
REMARK    7  A    between atoms: C_15  and  O_16
REMARK    8  A    between atoms: O_16  and  C_17
REMARK    9  A    between atoms: C_21  and  C_22
REMARK                            x       y       z     vdW  Elec       q    Type
REMARK                         _______ _______ _______ _____ _____    ______ ____
ROOT
ATOM      1  C   UNL     1      49.056   6.907  15.272  0.00  0.00    +0.000 A 
ATOM      2  C   UNL     1      50.182   7.532  14.743  0.00  0.00    +0.000 A 
ATOM      3  N   UNL     1      50.313   7.898  13.445  0.00  0.00    +0.000 NA
ATOM      4  C   UNL     1      49.278   7.590  12.631  0.00  0.00    +0.000 A 
ATOM      5  C   UNL     1      48.138   6.925  13.060  0.00  0.00    +0.000 A 
ATOM      6  C   UNL     1      48.024   6.584  14.404  0.00  0.00    +0.000 A 
ENDROOT
BRANCH   5   7
ATOM      7  C   UNL     1      47.107   6.557  12.155  0.00  0.00    +0.000 C 
ATOM      8  C   UNL     1      46.151   6.241  11.326  0.00  0.00    +0.000 C 
BRANCH   8   9
ATOM      9  C   UNL     1      45.038   5.872  10.360  0.00  0.00    +0.000 C 
BRANCH   9  10
ATOM     10  O   UNL     1      45.592   5.486   9.107  0.00  0.00    +0.000 OA
BRANCH  10  11
ATOM     11  C   UNL     1      45.594   4.142   8.842  0.00  0.00    +0.000 A 
ATOM     12  C   UNL     1      44.784   3.182   9.458  0.00  0.00    +0.000 A 
ATOM     13  C   UNL     1      44.886   1.836   9.099  0.00  0.00    +0.000 A 
ATOM     14  C   UNL     1      45.798   1.441   8.119  0.00  0.00    +0.000 A 
ATOM     15  C   UNL     1      46.608   2.392   7.501  0.00  0.00    +0.000 A 
ATOM     16  C   UNL     1      46.505   3.741   7.862  0.00  0.00    +0.000 A 
BRANCH  15  17
ATOM     17  C   UNL     1      47.546   1.992   6.494  0.00  0.00    +0.000 C 
ATOM     18  N   UNL     1      48.310   1.665   5.684  0.00  0.00    +0.000 NA
ENDBRANCH  15  17
ENDBRANCH  10  11
ENDBRANCH   9  10
ENDBRANCH   8   9
ENDBRANCH   5   7
BRANCH   1  19
ATOM     19  O   UNL     1      49.062   6.587  16.601  0.00  0.00    +0.000 OA
BRANCH  19  25
ATOM     20  C   UNL     1      47.228   4.342  17.324  0.00  0.00    +0.000 C 
ATOM     21  C   UNL     1      48.725   4.196  17.549  0.00  0.00    +0.000 C 
ATOM     22  C   UNL     1      49.200   2.770  17.267  0.00  0.00    +0.000 C 
ATOM     23  O   UNL     1      49.070   4.561  18.920  0.00  0.00    +0.000 OA
ATOM     24  C   UNL     1      50.203   5.327  18.440  0.00  0.00    +0.000 C 
ATOM     25  C   UNL     1      49.656   5.325  17.004  0.00  0.00    +0.000 C 
ENDBRANCH  19  25
ENDBRANCH   1  19
TORSDOF 7
ENDMDL
MODEL 4
REMARK VINA RESULT:    -6.398      2.821      8.004
REMARK INTER + INTRA:          -9.650
REMARK INTER:                  -8.914
REMARK INTRA:                  -0.735
REMARK UNBOUND:                -0.633
REMARK  Name = 
REMARK  9 active torsions:
REMARK  status: ('A' for Active; 'I' for Inactive)
REMARK    1  A    between atoms: C_1  and  C_2
REMARK    2  A    between atoms: C_2  and  C_3
REMARK    3  A    between atoms: C_6  and  O_7
REMARK    4  A    between atoms: O_7  and  C_8
REMARK    5  A    between atoms: C_12  and  C_13
REMARK    6  A    between atoms: C_14  and  C_15
REMARK    7  A    between atoms: C_15  and  O_16
REMARK    8  A    between atoms: O_16  and  C_17
REMARK    9  A    between atoms: C_21  and  C_22
REMARK                            x       y       z     vdW  Elec       q    Type
REMARK                         _______ _______ _______ _____ _____    ______ ____
ROOT
ATOM      1  C   UNL     1      46.134   6.508  11.387  0.00  0.00    +0.000 A 
ATOM      2  C   UNL     1      45.236   7.567  11.472  0.00  0.00    +0.000 A 
ATOM      3  N   UNL     1      45.308   8.557  12.394  0.00  0.00    +0.000 NA
ATOM      4  C   UNL     1      46.310   8.460  13.297  0.00  0.00    +0.000 A 
ATOM      5  C   UNL     1      47.223   7.414  13.317  0.00  0.00    +0.000 A 
ATOM      6  C   UNL     1      47.136   6.426  12.342  0.00  0.00    +0.000 A 
ENDROOT
BRANCH   5   7
ATOM      7  C   UNL     1      48.217   7.315  14.328  0.00  0.00    +0.000 C 
ATOM      8  C   UNL     1      49.128   7.201  15.254  0.00  0.00    +0.000 C 
BRANCH   8   9
ATOM      9  C   UNL     1      50.188   7.069  16.334  0.00  0.00    +0.000 C 
BRANCH   9  10
ATOM     10  O   UNL     1      49.615   6.503  17.508  0.00  0.00    +0.000 OA
BRANCH  10  11
ATOM     11  C   UNL     1      49.142   5.223  17.387  0.00  0.00    +0.000 A 
ATOM     12  C   UNL     1      47.797   4.851  17.284  0.00  0.00    +0.000 A 
ATOM     13  C   UNL     1      47.444   3.504  17.168  0.00  0.00    +0.000 A 
ATOM     14  C   UNL     1      48.433   2.521  17.150  0.00  0.00    +0.000 A 
ATOM     15  C   UNL     1      49.775   2.885  17.251  0.00  0.00    +0.000 A 
ATOM     16  C   UNL     1      50.128   4.235  17.368  0.00  0.00    +0.000 A 
BRANCH  15  17
ATOM     17  C   UNL     1      50.796   1.878  17.233  0.00  0.00    +0.000 C 
ATOM     18  N   UNL     1      51.617   1.059  17.220  0.00  0.00    +0.000 NA
ENDBRANCH  15  17
ENDBRANCH  10  11
ENDBRANCH   9  10
ENDBRANCH   8   9
ENDBRANCH   5   7
BRANCH   1  19
ATOM     19  O   UNL     1      45.938   5.574  10.408  0.00  0.00    +0.000 OA
BRANCH  19  25
ATOM     20  C   UNL     1      45.646   3.246  12.257  0.00  0.00    +0.000 C 
ATOM     21  C   UNL     1      44.568   3.527  11.222  0.00  0.00    +0.000 C 
ATOM     22  C   UNL     1      43.171   3.220  11.765  0.00  0.00    +0.000 C 
ATOM     23  O   UNL     1      44.804   2.738  10.016  0.00  0.00    +0.000 OA
ATOM     24  C   UNL     1      44.529   3.898   9.191  0.00  0.00    +0.000 C 
ATOM     25  C   UNL     1      44.682   4.844  10.393  0.00  0.00    +0.000 C 
ENDBRANCH  19  25
ENDBRANCH   1  19
TORSDOF 7
ENDMDL
MODEL 5
REMARK VINA RESULT:    -6.332      2.955      8.262
REMARK INTER + INTRA:          -9.556
REMARK INTER:                  -8.846
REMARK INTRA:                  -0.710
REMARK UNBOUND:                -0.633
REMARK  Name = 
REMARK  9 active torsions:
REMARK  status: ('A' for Active; 'I' for Inactive)
REMARK    1  A    between atoms: C_1  and  C_2
REMARK    2  A    between atoms: C_2  and  C_3
REMARK    3  A    between atoms: C_6  and  O_7
REMARK    4  A    between atoms: O_7  and  C_8
REMARK    5  A    between atoms: C_12  and  C_13
REMARK    6  A    between atoms: C_14  and  C_15
REMARK    7  A    between atoms: C_15  and  O_16
REMARK    8  A    between atoms: O_16  and  C_17
REMARK    9  A    between atoms: C_21  and  C_22
REMARK                            x       y       z     vdW  Elec       q    Type
REMARK                         _______ _______ _______ _____ _____    ______ ____
ROOT
ATOM      1  C   UNL     1      46.217   6.528  11.360  0.00  0.00    +0.000 A 
ATOM      2  C   UNL     1      45.227   7.458  11.663  0.00  0.00    +0.000 A 
ATOM      3  N   UNL     1      45.346   8.419  12.611  0.00  0.00    +0.000 NA
ATOM      4  C   UNL     1      46.502   8.424  13.313  0.00  0.00    +0.000 A 
ATOM      5  C   UNL     1      47.523   7.506  13.112  0.00  0.00    +0.000 A 
ATOM      6  C   UNL     1      47.380   6.547  12.115  0.00  0.00    +0.000 A 
ENDROOT
BRANCH   5   7
ATOM      7  C   UNL     1      48.692   7.504  13.921  0.00  0.00    +0.000 C 
ATOM      8  C   UNL     1      49.764   7.480  14.663  0.00  0.00    +0.000 C 
BRANCH   8   9
ATOM      9  C   UNL     1      51.013   7.452  15.527  0.00  0.00    +0.000 C 
BRANCH   9  10
ATOM     10  O   UNL     1      50.668   7.101  16.864  0.00  0.00    +0.000 OA
BRANCH  10  11
ATOM     11  C   UNL     1      50.566   5.760  17.123  0.00  0.00    +0.000 A 
ATOM     12  C   UNL     1      51.632   4.887  17.366  0.00  0.00    +0.000 A 
ATOM     13  C   UNL     1      51.394   3.534  17.616  0.00  0.00    +0.000 A 
ATOM     14  C   UNL     1      50.087   3.044  17.627  0.00  0.00    +0.000 A 
ATOM     15  C   UNL     1      49.020   3.908  17.386  0.00  0.00    +0.000 A 
ATOM     16  C   UNL     1      49.261   5.265  17.136  0.00  0.00    +0.000 A 
BRANCH  15  17
ATOM     17  C   UNL     1      47.676   3.411  17.397  0.00  0.00    +0.000 C 
ATOM     18  N   UNL     1      46.586   3.012  17.400  0.00  0.00    +0.000 NA
ENDBRANCH  15  17
ENDBRANCH  10  11
ENDBRANCH   9  10
ENDBRANCH   8   9
ENDBRANCH   5   7
BRANCH   1  19
ATOM     19  O   UNL     1      45.959   5.609  10.381  0.00  0.00    +0.000 OA
BRANCH  19  25
ATOM     20  C   UNL     1      45.620   3.307  12.256  0.00  0.00    +0.000 C 
ATOM     21  C   UNL     1      44.531   3.620  11.240  0.00  0.00    +0.000 C 
ATOM     22  C   UNL     1      43.136   3.368  11.814  0.00  0.00    +0.000 C 
ATOM     23  O   UNL     1      44.714   2.813  10.037  0.00  0.00    +0.000 OA
ATOM     24  C   UNL     1      44.465   3.976   9.208  0.00  0.00    +0.000 C 
ATOM     25  C   UNL     1      44.677   4.925  10.398  0.00  0.00    +0.000 C 
ENDBRANCH  19  25
ENDBRANCH   1  19
TORSDOF 7
ENDMDL
MODEL 6
REMARK VINA RESULT:    -6.137      2.973      8.090
REMARK INTER + INTRA:          -9.281
REMARK INTER:                  -8.420
REMARK INTRA:                  -0.861
REMARK UNBOUND:                -0.633
REMARK  Name = 
REMARK  9 active torsions:
REMARK  status: ('A' for Active; 'I' for Inactive)
REMARK    1  A    between atoms: C_1  and  C_2
REMARK    2  A    between atoms: C_2  and  C_3
REMARK    3  A    between atoms: C_6  and  O_7
REMARK    4  A    between atoms: O_7  and  C_8
REMARK    5  A    between atoms: C_12  and  C_13
REMARK    6  A    between atoms: C_14  and  C_15
REMARK    7  A    between atoms: C_15  and  O_16
REMARK    8  A    between atoms: O_16  and  C_17
REMARK    9  A    between atoms: C_21  and  C_22
REMARK                            x       y       z     vdW  Elec       q    Type
REMARK                         _______ _______ _______ _____ _____    ______ ____
ROOT
ATOM      1  C   UNL     1      47.038   6.462  12.999  0.00  0.00    +0.000 A 
ATOM      2  C   UNL     1      47.397   7.189  11.868  0.00  0.00    +0.000 A 
ATOM      3  N   UNL     1      48.591   7.808  11.706  0.00  0.00    +0.000 NA
ATOM      4  C   UNL     1      49.454   7.722  12.744  0.00  0.00    +0.000 A 
ATOM      5  C   UNL     1      49.163   7.060  13.928  0.00  0.00    +0.000 A 
ATOM      6  C   UNL     1      47.937   6.414  14.054  0.00  0.00    +0.000 A 
ENDROOT
BRANCH   5   7
ATOM      7  C   UNL     1      50.072   7.056  15.020  0.00  0.00    +0.000 C 
ATOM      8  C   UNL     1      50.888   7.052  16.037  0.00  0.00    +0.000 C 
BRANCH   8   9
ATOM      9  C   UNL     1      51.839   7.049  17.222  0.00  0.00    +0.000 C 
BRANCH   9  10
ATOM     10  O   UNL     1      51.291   6.270  18.280  0.00  0.00    +0.000 OA
BRANCH  10  11
ATOM     11  C   UNL     1      50.963   4.978  17.965  0.00  0.00    +0.000 A 
ATOM     12  C   UNL     1      51.865   3.935  17.733  0.00  0.00    +0.000 A 
ATOM     13  C   UNL     1      51.400   2.656  17.416  0.00  0.00    +0.000 A 
ATOM     14  C   UNL     1      50.029   2.412  17.331  0.00  0.00    +0.000 A 
ATOM     15  C   UNL     1      49.124   3.447  17.561  0.00  0.00    +0.000 A 
ATOM     16  C   UNL     1      49.592   4.728  17.879  0.00  0.00    +0.000 A 
BRANCH  15  17
ATOM     17  C   UNL     1      47.714   3.201  17.475  0.00  0.00    +0.000 C 
ATOM     18  N   UNL     1      46.575   3.000  17.399  0.00  0.00    +0.000 NA
ENDBRANCH  15  17
ENDBRANCH  10  11
ENDBRANCH   9  10
ENDBRANCH   8   9
ENDBRANCH   5   7
BRANCH   1  19
ATOM     19  O   UNL     1      45.795   5.893  13.032  0.00  0.00    +0.000 OA
BRANCH  19  25
ATOM     20  C   UNL     1      42.940   5.176  12.525  0.00  0.00    +0.000 C 
ATOM     21  C   UNL     1      44.049   4.285  11.987  0.00  0.00    +0.000 C 
ATOM     22  C   UNL     1      43.692   3.708  10.616  0.00  0.00    +0.000 C 
ATOM     23  O   UNL     1      44.320   3.193  12.918  0.00  0.00    +0.000 OA
ATOM     24  C   UNL     1      45.746   3.404  12.765  0.00  0.00    +0.000 C 
ATOM     25  C   UNL     1      45.520   4.786  12.133  0.00  0.00    +0.000 C 
ENDBRANCH  19  25
ENDBRANCH   1  19
TORSDOF 7
ENDMDL
MODEL 7
REMARK VINA RESULT:    -6.069      2.572      8.669
REMARK INTER + INTRA:          -9.186
REMARK INTER:                  -8.584
REMARK INTRA:                  -0.601
REMARK UNBOUND:                -0.633
REMARK  Name = 
REMARK  9 active torsions:
REMARK  status: ('A' for Active; 'I' for Inactive)
REMARK    1  A    between atoms: C_1  and  C_2
REMARK    2  A    between atoms: C_2  and  C_3
REMARK    3  A    between atoms: C_6  and  O_7
REMARK    4  A    between atoms: O_7  and  C_8
REMARK    5  A    between atoms: C_12  and  C_13
REMARK    6  A    between atoms: C_14  and  C_15
REMARK    7  A    between atoms: C_15  and  O_16
REMARK    8  A    between atoms: O_16  and  C_17
REMARK    9  A    between atoms: C_21  and  C_22
REMARK                            x       y       z     vdW  Elec       q    Type
REMARK                         _______ _______ _______ _____ _____    ______ ____
ROOT
ATOM      1  C   UNL     1      45.624   5.308  11.230  0.00  0.00    +0.000 A 
ATOM      2  C   UNL     1      45.689   6.698  11.230  0.00  0.00    +0.000 A 
ATOM      3  N   UNL     1      46.173   7.440  12.256  0.00  0.00    +0.000 NA
ATOM      4  C   UNL     1      46.579   6.753  13.349  0.00  0.00    +0.000 A 
ATOM      5  C   UNL     1      46.506   5.371  13.455  0.00  0.00    +0.000 A 
ATOM      6  C   UNL     1      46.027   4.637  12.375  0.00  0.00    +0.000 A 
ENDROOT
BRANCH   5   7
ATOM      7  C   UNL     1      46.877   4.697  14.650  0.00  0.00    +0.000 C 
ATOM      8  C   UNL     1      47.219   4.058  15.734  0.00  0.00    +0.000 C 
BRANCH   8   9
ATOM      9  C   UNL     1      47.617   3.315  16.998  0.00  0.00    +0.000 C 
BRANCH   9  10
ATOM     10  O   UNL     1      48.666   2.397  16.709  0.00  0.00    +0.000 OA
BRANCH  10  11
ATOM     11  C   UNL     1      49.894   2.708  17.231  0.00  0.00    +0.000 A 
ATOM     12  C   UNL     1      50.259   3.936  17.794  0.00  0.00    +0.000 A 
ATOM     13  C   UNL     1      51.551   4.128  18.291  0.00  0.00    +0.000 A 
ATOM     14  C   UNL     1      52.485   3.093  18.231  0.00  0.00    +0.000 A 
ATOM     15  C   UNL     1      52.127   1.867  17.671  0.00  0.00    +0.000 A 
ATOM     16  C   UNL     1      50.832   1.676  17.173  0.00  0.00    +0.000 A 
BRANCH  15  17
ATOM     17  C   UNL     1      53.082   0.800  17.607  0.00  0.00    +0.000 C 
ATOM     18  N   UNL     1      53.861  -0.058  17.556  0.00  0.00    +0.000 NA
ENDBRANCH  15  17
ENDBRANCH  10  11
ENDBRANCH   9  10
ENDBRANCH   8   9
ENDBRANCH   5   7
BRANCH   1  19
ATOM     19  O   UNL     1      45.106   4.688  10.127  0.00  0.00    +0.000 OA
BRANCH  19  25
ATOM     20  C   UNL     1      45.458   3.673   7.339  0.00  0.00    +0.000 C 
ATOM     21  C   UNL     1      45.385   2.689   8.497  0.00  0.00    +0.000 C 
ATOM     22  C   UNL     1      46.323   1.500   8.286  0.00  0.00    +0.000 C 
ATOM     23  O   UNL     1      44.018   2.205   8.666  0.00  0.00    +0.000 OA
ATOM     24  C   UNL     1      44.122   2.385  10.101  0.00  0.00    +0.000 C 
ATOM     25  C   UNL     1      45.368   3.271   9.945  0.00  0.00    +0.000 C 
ENDBRANCH  19  25
ENDBRANCH   1  19
TORSDOF 7
ENDMDL
MODEL 8
REMARK VINA RESULT:    -6.016      3.099      8.391
REMARK INTER + INTRA:          -9.111
REMARK INTER:                  -8.159
REMARK INTRA:                  -0.952
REMARK UNBOUND:                -0.633
REMARK  Name = 
REMARK  9 active torsions:
REMARK  status: ('A' for Active; 'I' for Inactive)
REMARK    1  A    between atoms: C_1  and  C_2
REMARK    2  A    between atoms: C_2  and  C_3
REMARK    3  A    between atoms: C_6  and  O_7
REMARK    4  A    between atoms: O_7  and  C_8
REMARK    5  A    between atoms: C_12  and  C_13
REMARK    6  A    between atoms: C_14  and  C_15
REMARK    7  A    between atoms: C_15  and  O_16
REMARK    8  A    between atoms: O_16  and  C_17
REMARK    9  A    between atoms: C_21  and  C_22
REMARK                            x       y       z     vdW  Elec       q    Type
REMARK                         _______ _______ _______ _____ _____    ______ ____
ROOT
ATOM      1  C   UNL     1      45.999   6.635  11.336  0.00  0.00    +0.000 A 
ATOM      2  C   UNL     1      44.926   7.520  11.390  0.00  0.00    +0.000 A 
ATOM      3  N   UNL     1      44.873   8.607  12.197  0.00  0.00    +0.000 NA
ATOM      4  C   UNL     1      45.934   8.796  13.014  0.00  0.00    +0.000 A 
ATOM      5  C   UNL     1      47.025   7.939  13.063  0.00  0.00    +0.000 A 
ATOM      6  C   UNL     1      47.060   6.845  12.205  0.00  0.00    +0.000 A 
ENDROOT
BRANCH   5   7
ATOM      7  C   UNL     1      48.085   8.137  13.988  0.00  0.00    +0.000 C 
ATOM      8  C   UNL     1      49.072   8.319  14.821  0.00  0.00    +0.000 C 
BRANCH   8   9
ATOM      9  C   UNL     1      50.223   8.530  15.790  0.00  0.00    +0.000 C 
BRANCH   9  10
ATOM     10  O   UNL     1      50.407   7.363  16.584  0.00  0.00    +0.000 OA
BRANCH  10  11
ATOM     11  C   UNL     1      49.352   7.010  17.383  0.00  0.00    +0.000 A 
ATOM     12  C   UNL     1      48.784   7.798  18.390  0.00  0.00    +0.000 A 
ATOM     13  C   UNL     1      47.707   7.319  19.139  0.00  0.00    +0.000 A 
ATOM     14  C   UNL     1      47.189   6.048  18.886  0.00  0.00    +0.000 A 
ATOM     15  C   UNL     1      47.750   5.257  17.884  0.00  0.00    +0.000 A 
ATOM     16  C   UNL     1      48.829   5.739  17.133  0.00  0.00    +0.000 A 
BRANCH  15  17
ATOM     17  C   UNL     1      47.221   3.951  17.619  0.00  0.00    +0.000 C 
ATOM     18  N   UNL     1      46.800   2.892  17.405  0.00  0.00    +0.000 NA
ENDBRANCH  15  17
ENDBRANCH  10  11
ENDBRANCH   9  10
ENDBRANCH   8   9
ENDBRANCH   5   7
BRANCH   1  19
ATOM     19  O   UNL     1      45.916   5.574  10.479  0.00  0.00    +0.000 OA
BRANCH  19  25
ATOM     20  C   UNL     1      45.714   3.308  12.416  0.00  0.00    +0.000 C 
ATOM     21  C   UNL     1      44.638   3.494  11.357  0.00  0.00    +0.000 C 
ATOM     22  C   UNL     1      43.251   3.138  11.895  0.00  0.00    +0.000 C 
ATOM     23  O   UNL     1      44.930   2.671  10.187  0.00  0.00    +0.000 OA
ATOM     24  C   UNL     1      44.610   3.782   9.313  0.00  0.00    +0.000 C 
ATOM     25  C   UNL     1      44.698   4.782  10.478  0.00  0.00    +0.000 C 
ENDBRANCH  19  25
ENDBRANCH   1  19
TORSDOF 7
ENDMDL
MODEL 9
REMARK VINA RESULT:    -5.937      1.966      3.053
REMARK INTER + INTRA:          -9.000
REMARK INTER:                  -8.263
REMARK INTRA:                  -0.737
REMARK UNBOUND:                -0.633
REMARK  Name = 
REMARK  9 active torsions:
REMARK  status: ('A' for Active; 'I' for Inactive)
REMARK    1  A    between atoms: C_1  and  C_2
REMARK    2  A    between atoms: C_2  and  C_3
REMARK    3  A    between atoms: C_6  and  O_7
REMARK    4  A    between atoms: O_7  and  C_8
REMARK    5  A    between atoms: C_12  and  C_13
REMARK    6  A    between atoms: C_14  and  C_15
REMARK    7  A    between atoms: C_15  and  O_16
REMARK    8  A    between atoms: O_16  and  C_17
REMARK    9  A    between atoms: C_21  and  C_22
REMARK                            x       y       z     vdW  Elec       q    Type
REMARK                         _______ _______ _______ _____ _____    ______ ____
ROOT
ATOM      1  C   UNL     1      49.860   6.610  16.015  0.00  0.00    +0.000 A 
ATOM      2  C   UNL     1      50.878   7.481  15.638  0.00  0.00    +0.000 A 
ATOM      3  N   UNL     1      50.793   8.351  14.602  0.00  0.00    +0.000 NA
ATOM      4  C   UNL     1      49.645   8.320  13.889  0.00  0.00    +0.000 A 
ATOM      5  C   UNL     1      48.597   7.452  14.162  0.00  0.00    +0.000 A 
ATOM      6  C   UNL     1      48.705   6.588  15.247  0.00  0.00    +0.000 A 
ENDROOT
BRANCH   5   7
ATOM      7  C   UNL     1      47.438   7.404  13.342  0.00  0.00    +0.000 C 
ATOM      8  C   UNL     1      46.365   7.377  12.601  0.00  0.00    +0.000 C 
BRANCH   8   9
ATOM      9  C   UNL     1      45.115   7.346  11.739  0.00  0.00    +0.000 C 
BRANCH   9  10
ATOM     10  O   UNL     1      44.199   6.381  12.248  0.00  0.00    +0.000 OA
BRANCH  10  11
ATOM     11  C   UNL     1      44.165   5.182  11.588  0.00  0.00    +0.000 A 
ATOM     12  C   UNL     1      43.534   4.016  12.036  0.00  0.00    +0.000 A 
ATOM     13  C   UNL     1      43.575   2.851  11.266  0.00  0.00    +0.000 A 
ATOM     14  C   UNL     1      44.243   2.845  10.041  0.00  0.00    +0.000 A 
ATOM     15  C   UNL     1      44.872   4.004   9.588  0.00  0.00    +0.000 A 
ATOM     16  C   UNL     1      44.831   5.170  10.361  0.00  0.00    +0.000 A 
BRANCH  15  17
ATOM     17  C   UNL     1      45.560   4.003   8.330  0.00  0.00    +0.000 C 
ATOM     18  N   UNL     1      46.115   4.009   7.312  0.00  0.00    +0.000 NA
ENDBRANCH  15  17
ENDBRANCH  10  11
ENDBRANCH   9  10
ENDBRANCH   8   9
ENDBRANCH   5   7
BRANCH   1  19
ATOM     19  O   UNL     1      50.083   5.781  17.078  0.00  0.00    +0.000 OA
BRANCH  19  25
ATOM     20  C   UNL     1      47.482   5.513  18.523  0.00  0.00    +0.000 C 
ATOM     21  C   UNL     1      48.171   4.274  17.974  0.00  0.00    +0.000 C 
ATOM     22  C   UNL     1      47.160   3.258  17.438  0.00  0.00    +0.000 C 
ATOM     23  O   UNL     1      48.988   3.646  19.009  0.00  0.00    +0.000 OA
ATOM     24  C   UNL     1      50.074   3.478  18.063  0.00  0.00    +0.000 C 
ATOM     25  C   UNL     1      49.438   4.480  17.086  0.00  0.00    +0.000 C 
ENDBRANCH  19  25
ENDBRANCH   1  19
TORSDOF 7
ENDMDL
