MODEL 1
REMARK VINA RESULT:    -8.223      0.000      0.000
REMARK INTER + INTRA:         -12.500
REMARK INTER:                 -11.348
REMARK INTRA:                  -1.153
REMARK UNBOUND:                -1.153
REMARK  Name = 
REMARK  7 active torsions:
REMARK  status: ('A' for Active; 'I' for Inactive)
REMARK    1  A    between atoms: C_2  and  C_19
REMARK    2  A    between atoms: N_3  and  C_4
REMARK    3  A    between atoms: C_4  and  C_5
REMARK    4  A    between atoms: N_8  and  C_9
REMARK    5  A    between atoms: C_9  and  C_10
REMARK    6  A    between atoms: C_10  and  O_11
REMARK    7  A    between atoms: C_10  and  C_12
REMARK                            x       y       z     vdW  Elec       q    Type
REMARK                         _______ _______ _______ _____ _____    ______ ____
ROOT
ATOM      1  C   UNL     1      46.245   6.546  12.711  0.00  0.00    +0.000 C 
ENDROOT
BRANCH   1   2
ATOM      2  C   UNL     1      45.278   5.469  12.334  0.00  0.00    +0.000 A 
ATOM      3  C   UNL     1      43.992   5.267  12.884  0.00  0.00    +0.000 A 
ATOM      4  C   UNL     1      43.474   4.176  12.241  0.00  0.00    +0.000 A 
ATOM      5  N   UNL     1      44.424   3.785  11.353  0.00  0.00    +0.000 N 
ATOM      6  N   UNL     1      45.501   4.582  11.374  0.00  0.00    +0.000 NA
BRANCH   5   7
ATOM      7  C   UNL     1      44.330   2.641  10.476  0.00  0.00    +0.000 C 
BRANCH   7   8
ATOM      8  C   UNL     1      44.275   3.042   9.000  0.00  0.00    +0.000 C 
BRANCH   8   9
ATOM      9  C   UNL     1      45.510   2.594   8.258  0.00  0.00    +0.000 A 
ATOM     10  N   UNL     1      45.961   1.327   8.414  0.00  0.00    +0.000 NA
ATOM     11  C   UNL     1      47.024   0.995   7.667  0.00  0.00    +0.000 A 
ATOM     12  C   UNL     1      47.665   1.867   6.823  0.00  0.00    +0.000 A 
ATOM     13  C   UNL     1      47.166   3.140   6.785  0.00  0.00    +0.000 A 
ATOM     14  N   UNL     1      46.099   3.526   7.490  0.00  0.00    +0.000 NA
ENDBRANCH   8   9
BRANCH   8  15
ATOM     15  O   UNL     1      44.134   4.464   8.855  0.00  0.00    +0.000 OA
ATOM     16  H   UNL     1      44.332   4.869   9.709  0.00  0.00    +0.000 HD
ENDBRANCH   8  15
ENDBRANCH   7   8
ENDBRANCH   5   7
ENDBRANCH   1   2
BRANCH   1  19
ATOM     17  O   UNL     1      48.996   6.597  13.351  0.00  0.00    +0.000 OA
ATOM     18  C   UNL     1      48.215   6.365  14.200  0.00  0.00    +0.000 C 
ATOM     19  N   UNL     1      46.853   6.314  14.008  0.00  0.00    +0.000 N 
ATOM     20  H   UNL     1      46.253   5.970  14.753  0.00  0.00    +0.000 HD
BRANCH  18  21
ATOM     21  C   UNL     1      48.734   6.248  15.613  0.00  0.00    +0.000 A 
ATOM     22  C   UNL     1      49.741   7.148  15.987  0.00  0.00    +0.000 A 
ATOM     23  S   UNL     1      50.328   6.989  17.576  0.00  0.00    +0.000 S 
ATOM     24  C   UNL     1      49.265   5.766  18.027  0.00  0.00    +0.000 A 
ATOM     25  N   UNL     1      49.081   5.017  19.289  0.00  0.00    +0.000 NA
ATOM     26  C   UNL     1      48.417   4.110  18.759  0.00  0.00    +0.000 A 
ATOM     27  N   UNL     1      47.765   3.140  18.298  0.00  0.00    +0.000 N 
ATOM     28  C   UNL     1      47.494   3.922  16.959  0.00  0.00    +0.000 A 
ATOM     29  O   UNL     1      46.684   3.683  16.052  0.00  0.00    +0.000 OA
ATOM     30  C   UNL     1      48.544   5.307  16.761  0.00  0.00    +0.000 A 
ATOM     31  H   UNL     1      47.537   3.020  19.334  0.00  0.00    +0.000 HD
ENDBRANCH  18  21
ENDBRANCH   1  19
TORSDOF 7
ENDMDL
MODEL 2
REMARK VINA RESULT:    -8.189      2.983      4.563
REMARK INTER + INTRA:         -12.453
REMARK INTER:                 -11.056
REMARK INTRA:                  -1.397
REMARK UNBOUND:                -1.153
REMARK  Name = 
REMARK  7 active torsions:
REMARK  status: ('A' for Active; 'I' for Inactive)
REMARK    1  A    between atoms: C_2  and  C_19
REMARK    2  A    between atoms: N_3  and  C_4
REMARK    3  A    between atoms: C_4  and  C_5
REMARK    4  A    between atoms: N_8  and  C_9
REMARK    5  A    between atoms: C_9  and  C_10
REMARK    6  A    between atoms: C_10  and  O_11
REMARK    7  A    between atoms: C_10  and  C_12
REMARK                            x       y       z     vdW  Elec       q    Type
REMARK                         _______ _______ _______ _____ _____    ______ ____
ROOT
ATOM      1  C   UNL     1      45.936   4.944  13.858  0.00  0.00    +0.000 C 
ENDROOT
BRANCH   1   2
ATOM      2  C   UNL     1      44.972   4.436  12.832  0.00  0.00    +0.000 A 
ATOM      3  C   UNL     1      43.566   4.572  12.863  0.00  0.00    +0.000 A 
ATOM      4  C   UNL     1      43.103   3.961  11.730  0.00  0.00    +0.000 A 
ATOM      5  N   UNL     1      44.205   3.509  11.077  0.00  0.00    +0.000 N 
ATOM      6  N   UNL     1      45.340   3.824  11.715  0.00  0.00    +0.000 NA
BRANCH   5   7
ATOM      7  C   UNL     1      44.198   2.761   9.842  0.00  0.00    +0.000 C 
BRANCH   7   8
ATOM      8  C   UNL     1      44.617   3.614   8.642  0.00  0.00    +0.000 C 
BRANCH   8   9
ATOM      9  C   UNL     1      45.726   2.957   7.857  0.00  0.00    +0.000 A 
ATOM     10  N   UNL     1      46.183   1.740   8.235  0.00  0.00    +0.000 NA
ATOM     11  C   UNL     1      47.121   1.203   7.442  0.00  0.00    +0.000 A 
ATOM     12  C   UNL     1      47.640   1.835   6.339  0.00  0.00    +0.000 A 
ATOM     13  C   UNL     1      47.154   3.085   6.080  0.00  0.00    +0.000 A 
ATOM     14  N   UNL     1      46.205   3.666   6.820  0.00  0.00    +0.000 NA
ENDBRANCH   8   9
BRANCH   8  15
ATOM     15  O   UNL     1      45.051   4.918   9.060  0.00  0.00    +0.000 OA
ATOM     16  H   UNL     1      44.882   4.995  10.009  0.00  0.00    +0.000 HD
ENDBRANCH   8  15
ENDBRANCH   7   8
ENDBRANCH   5   7
ENDBRANCH   1   2
BRANCH   1  19
ATOM     17  O   UNL     1      48.536   5.599  12.973  0.00  0.00    +0.000 OA
ATOM     18  C   UNL     1      47.744   6.459  13.106  0.00  0.00    +0.000 C 
ATOM     19  N   UNL     1      46.449   6.261  13.530  0.00  0.00    +0.000 N 
ATOM     20  H   UNL     1      45.866   7.061  13.757  0.00  0.00    +0.000 HD
BRANCH  18  21
ATOM     21  C   UNL     1      48.135   7.846  12.656  0.00  0.00    +0.000 A 
ATOM     22  C   UNL     1      49.508   8.117  12.581  0.00  0.00    +0.000 A 
ATOM     23  S   UNL     1      49.930   9.690  12.091  0.00  0.00    +0.000 S 
ATOM     24  C   UNL     1      48.354  10.210  11.816  0.00  0.00    +0.000 A 
ATOM     25  N   UNL     1      47.793  11.498  11.355  0.00  0.00    +0.000 NA
ATOM     26  C   UNL     1      46.639  11.236  11.735  0.00  0.00    +0.000 A 
ATOM     27  N   UNL     1      45.455  11.061  12.116  0.00  0.00    +0.000 N 
ATOM     28  C   UNL     1      45.719   9.524  12.326  0.00  0.00    +0.000 A 
ATOM     29  O   UNL     1      44.912   8.597  12.487  0.00  0.00    +0.000 OA
ATOM     30  C   UNL     1      47.422   9.128  12.359  0.00  0.00    +0.000 A 
ATOM     31  H   UNL     1      45.296  11.864  11.430  0.00  0.00    +0.000 HD
ENDBRANCH  18  21
ENDBRANCH   1  19
TORSDOF 7
ENDMDL
MODEL 3
REMARK VINA RESULT:    -7.887      1.991      2.685
REMARK INTER + INTRA:         -12.037
REMARK INTER:                 -11.344
REMARK INTRA:                  -0.693
REMARK UNBOUND:                -1.153
REMARK  Name = 
REMARK  7 active torsions:
REMARK  status: ('A' for Active; 'I' for Inactive)
REMARK    1  A    between atoms: C_2  and  C_19
REMARK    2  A    between atoms: N_3  and  C_4
REMARK    3  A    between atoms: C_4  and  C_5
REMARK    4  A    between atoms: N_8  and  C_9
REMARK    5  A    between atoms: C_9  and  C_10
REMARK    6  A    between atoms: C_10  and  O_11
REMARK    7  A    between atoms: C_10  and  C_12
REMARK                            x       y       z     vdW  Elec       q    Type
REMARK                         _______ _______ _______ _____ _____    ______ ____
ROOT
ATOM      1  C   UNL     1      46.185   4.418  14.457  0.00  0.00    +0.000 C 
ENDROOT
BRANCH   1   2
ATOM      2  C   UNL     1      46.311   5.160  13.164  0.00  0.00    +0.000 A 
ATOM      3  C   UNL     1      47.039   6.351  12.948  0.00  0.00    +0.000 A 
ATOM      4  C   UNL     1      46.872   6.662  11.627  0.00  0.00    +0.000 A 
ATOM      5  N   UNL     1      46.090   5.677  11.112  0.00  0.00    +0.000 N 
ATOM      6  N   UNL     1      45.778   4.746  12.023  0.00  0.00    +0.000 NA
BRANCH   5   7
ATOM      7  C   UNL     1      45.618   5.610   9.749  0.00  0.00    +0.000 C 
BRANCH   7   8
ATOM      8  C   UNL     1      44.867   4.309   9.456  0.00  0.00    +0.000 C 
BRANCH   8   9
ATOM      9  C   UNL     1      45.672   3.393   8.569  0.00  0.00    +0.000 A 
ATOM     10  N   UNL     1      45.703   2.065   8.831  0.00  0.00    +0.000 NA
ATOM     11  C   UNL     1      46.388   1.318   7.953  0.00  0.00    +0.000 A 
ATOM     12  C   UNL     1      47.063   1.835   6.875  0.00  0.00    +0.000 A 
ATOM     13  C   UNL     1      47.018   3.194   6.735  0.00  0.00    +0.000 A 
ATOM     14  N   UNL     1      46.337   3.989   7.564  0.00  0.00    +0.000 NA
ENDBRANCH   8   9
BRANCH   8  15
ATOM     15  O   UNL     1      43.602   4.573   8.828  0.00  0.00    +0.000 OA
ATOM     16  H   UNL     1      42.922   4.091   9.319  0.00  0.00    +0.000 HD
ENDBRANCH   8  15
ENDBRANCH   7   8
ENDBRANCH   5   7
ENDBRANCH   1   2
BRANCH   1  19
ATOM     17  O   UNL     1      46.645   3.307  17.013  0.00  0.00    +0.000 OA
ATOM     18  C   UNL     1      47.326   4.193  16.644  0.00  0.00    +0.000 C 
ATOM     19  N   UNL     1      47.196   4.812  15.421  0.00  0.00    +0.000 N 
ATOM     20  H   UNL     1      47.723   5.659  15.228  0.00  0.00    +0.000 HD
BRANCH  18  21
ATOM     21  C   UNL     1      48.497   4.583  17.512  0.00  0.00    +0.000 A 
ATOM     22  C   UNL     1      48.397   5.808  18.186  0.00  0.00    +0.000 A 
ATOM     23  S   UNL     1      49.734   6.240  19.145  0.00  0.00    +0.000 S 
ATOM     24  C   UNL     1      50.598   4.821  18.880  0.00  0.00    +0.000 A 
ATOM     25  N   UNL     1      51.916   4.349  19.358  0.00  0.00    +0.000 NA
ATOM     26  C   UNL     1      52.007   3.453  18.502  0.00  0.00    +0.000 A 
ATOM     27  N   UNL     1      52.190   2.546  17.653  0.00  0.00    +0.000 N 
ATOM     28  C   UNL     1      50.677   2.602  17.224  0.00  0.00    +0.000 A 
ATOM     29  O   UNL     1      50.015   1.799  16.550  0.00  0.00    +0.000 OA
ATOM     30  C   UNL     1      49.868   4.049  17.783  0.00  0.00    +0.000 A 
ATOM     31  H   UNL     1      52.911   2.245  18.381  0.00  0.00    +0.000 HD
ENDBRANCH  18  21
ENDBRANCH   1  19
TORSDOF 7
ENDMDL
MODEL 4
REMARK VINA RESULT:    -7.511      1.750      2.777
REMARK INTER + INTRA:         -11.518
REMARK INTER:                 -10.491
REMARK INTRA:                  -1.027
REMARK UNBOUND:                -1.153
REMARK  Name = 
REMARK  7 active torsions:
REMARK  status: ('A' for Active; 'I' for Inactive)
REMARK    1  A    between atoms: C_2  and  C_19
REMARK    2  A    between atoms: N_3  and  C_4
REMARK    3  A    between atoms: C_4  and  C_5
REMARK    4  A    between atoms: N_8  and  C_9
REMARK    5  A    between atoms: C_9  and  C_10
REMARK    6  A    between atoms: C_10  and  O_11
REMARK    7  A    between atoms: C_10  and  C_12
REMARK                            x       y       z     vdW  Elec       q    Type
REMARK                         _______ _______ _______ _____ _____    ______ ____
ROOT
ATOM      1  C   UNL     1      46.807   3.560  13.977  0.00  0.00    +0.000 C 
ENDROOT
BRANCH   1   2
ATOM      2  C   UNL     1      45.780   4.062  13.011  0.00  0.00    +0.000 A 
ATOM      3  C   UNL     1      44.944   5.188  13.187  0.00  0.00    +0.000 A 
ATOM      4  C   UNL     1      44.173   5.265  12.060  0.00  0.00    +0.000 A 
ATOM      5  N   UNL     1      44.567   4.232  11.271  0.00  0.00    +0.000 N 
ATOM      6  N   UNL     1      45.562   3.522  11.820  0.00  0.00    +0.000 NA
BRANCH   5   7
ATOM      7  C   UNL     1      43.997   3.893   9.988  0.00  0.00    +0.000 C 
BRANCH   7   8
ATOM      8  C   UNL     1      44.816   4.450   8.822  0.00  0.00    +0.000 C 
BRANCH   8   9
ATOM      9  C   UNL     1      45.699   3.390   8.210  0.00  0.00    +0.000 A 
ATOM     10  N   UNL     1      45.617   2.114   8.653  0.00  0.00    +0.000 NA
ATOM     11  C   UNL     1      46.388   1.227   8.008  0.00  0.00    +0.000 A 
ATOM     12  C   UNL     1      47.248   1.561   6.992  0.00  0.00    +0.000 A 
ATOM     13  C   UNL     1      47.299   2.887   6.662  0.00  0.00    +0.000 A 
ATOM     14  N   UNL     1      46.541   3.815   7.253  0.00  0.00    +0.000 NA
ENDBRANCH   8   9
BRANCH   8  15
ATOM     15  O   UNL     1      45.635   5.552   9.244  0.00  0.00    +0.000 OA
ATOM     16  H   UNL     1      45.625   5.574  10.210  0.00  0.00    +0.000 HD
ENDBRANCH   8  15
ENDBRANCH   7   8
ENDBRANCH   5   7
ENDBRANCH   1   2
BRANCH   1  19
ATOM     17  O   UNL     1      47.160   3.186  16.754  0.00  0.00    +0.000 OA
ATOM     18  C   UNL     1      47.320   4.259  16.296  0.00  0.00    +0.000 C 
ATOM     19  N   UNL     1      47.177   4.561  14.960  0.00  0.00    +0.000 N 
ATOM     20  H   UNL     1      47.191   5.531  14.660  0.00  0.00    +0.000 HD
BRANCH  18  21
ATOM     21  C   UNL     1      47.843   5.338  17.212  0.00  0.00    +0.000 A 
ATOM     22  C   UNL     1      47.408   5.296  18.544  0.00  0.00    +0.000 A 
ATOM     23  S   UNL     1      47.993   6.531  19.556  0.00  0.00    +0.000 S 
ATOM     24  C   UNL     1      48.983   7.245  18.398  0.00  0.00    +0.000 A 
ATOM     25  N   UNL     1      49.882   8.419  18.439  0.00  0.00    +0.000 NA
ATOM     26  C   UNL     1      49.958   8.517  17.203  0.00  0.00    +0.000 A 
ATOM     27  N   UNL     1      50.063   8.704  15.965  0.00  0.00    +0.000 N 
ATOM     28  C   UNL     1      49.457   7.282  15.669  0.00  0.00    +0.000 A 
ATOM     29  O   UNL     1      49.453   6.626  14.618  0.00  0.00    +0.000 OA
ATOM     30  C   UNL     1      48.657   6.585  17.060  0.00  0.00    +0.000 A 
ATOM     31  H   UNL     1      50.902   9.277  16.295  0.00  0.00    +0.000 HD
ENDBRANCH  18  21
ENDBRANCH   1  19
TORSDOF 7
ENDMDL
MODEL 5
REMARK VINA RESULT:    -7.325      1.709      2.311
REMARK INTER + INTRA:         -11.261
REMARK INTER:                 -10.328
REMARK INTRA:                  -0.933
REMARK UNBOUND:                -1.153
REMARK  Name = 
REMARK  7 active torsions:
REMARK  status: ('A' for Active; 'I' for Inactive)
REMARK    1  A    between atoms: C_2  and  C_19
REMARK    2  A    between atoms: N_3  and  C_4
REMARK    3  A    between atoms: C_4  and  C_5
REMARK    4  A    between atoms: N_8  and  C_9
REMARK    5  A    between atoms: C_9  and  C_10
REMARK    6  A    between atoms: C_10  and  O_11
REMARK    7  A    between atoms: C_10  and  C_12
REMARK                            x       y       z     vdW  Elec       q    Type
REMARK                         _______ _______ _______ _____ _____    ______ ____
ROOT
ATOM      1  C   UNL     1      47.640   6.181  13.765  0.00  0.00    +0.000 C 
ENDROOT
BRANCH   1   2
ATOM      2  C   UNL     1      46.645   5.154  13.325  0.00  0.00    +0.000 A 
ATOM      3  C   UNL     1      46.815   3.752  13.366  0.00  0.00    +0.000 A 
ATOM      4  C   UNL     1      45.658   3.217  12.870  0.00  0.00    +0.000 A 
ATOM      5  N   UNL     1      44.860   4.274  12.573  0.00  0.00    +0.000 N 
ATOM      6  N   UNL     1      45.432   5.446  12.879  0.00  0.00    +0.000 NA
BRANCH   5   7
ATOM      7  C   UNL     1      43.545   4.190  11.982  0.00  0.00    +0.000 C 
BRANCH   7   8
ATOM      8  C   UNL     1      43.503   4.771  10.567  0.00  0.00    +0.000 C 
BRANCH   8   9
ATOM      9  C   UNL     1      44.351   3.966   9.613  0.00  0.00    +0.000 A 
ATOM     10  N   UNL     1      45.201   4.602   8.773  0.00  0.00    +0.000 NA
ATOM     11  C   UNL     1      45.963   3.806   8.009  0.00  0.00    +0.000 A 
ATOM     12  C   UNL     1      45.883   2.436   8.019  0.00  0.00    +0.000 A 
ATOM     13  C   UNL     1      44.950   1.896   8.859  0.00  0.00    +0.000 A 
ATOM     14  N   UNL     1      44.176   2.634   9.660  0.00  0.00    +0.000 NA
ENDBRANCH   8   9
BRANCH   8  15
ATOM     15  O   UNL     1      43.955   6.135  10.554  0.00  0.00    +0.000 OA
ATOM     16  H   UNL     1      43.328   6.649  10.028  0.00  0.00    +0.000 HD
ENDBRANCH   8  15
ENDBRANCH   7   8
ENDBRANCH   5   7
ENDBRANCH   1   2
BRANCH   1  19
ATOM     17  O   UNL     1      49.976   6.639  15.285  0.00  0.00    +0.000 OA
ATOM     18  C   UNL     1      48.950   6.491  15.843  0.00  0.00    +0.000 C 
ATOM     19  N   UNL     1      47.749   6.262  15.209  0.00  0.00    +0.000 N 
ATOM     20  H   UNL     1      46.933   6.004  15.757  0.00  0.00    +0.000 HD
BRANCH  18  21
ATOM     21  C   UNL     1      48.932   6.697  17.338  0.00  0.00    +0.000 A 
ATOM     22  C   UNL     1      49.219   7.990  17.796  0.00  0.00    +0.000 A 
ATOM     23  S   UNL     1      49.214   8.199  19.484  0.00  0.00    +0.000 S 
ATOM     24  C   UNL     1      48.736   6.628  19.848  0.00  0.00    +0.000 A 
ATOM     25  N   UNL     1      48.481   5.932  21.127  0.00  0.00    +0.000 NA
ATOM     26  C   UNL     1      48.532   4.797  20.625  0.00  0.00    +0.000 A 
ATOM     27  N   UNL     1      48.598   3.615  20.202  0.00  0.00    +0.000 N 
ATOM     28  C   UNL     1      48.494   4.112  18.712  0.00  0.00    +0.000 A 
ATOM     29  O   UNL     1      48.256   3.471  17.679  0.00  0.00    +0.000 OA
ATOM     30  C   UNL     1      48.798   5.827  18.548  0.00  0.00    +0.000 A 
ATOM     31  H   UNL     1      48.102   3.436  21.130  0.00  0.00    +0.000 HD
ENDBRANCH  18  21
ENDBRANCH   1  19
TORSDOF 7
ENDMDL
MODEL 6
REMARK VINA RESULT:    -7.141      2.539      3.638
REMARK INTER + INTRA:         -11.008
REMARK INTER:                 -10.033
REMARK INTRA:                  -0.975
REMARK UNBOUND:                -1.153
REMARK  Name = 
REMARK  7 active torsions:
REMARK  status: ('A' for Active; 'I' for Inactive)
REMARK    1  A    between atoms: C_2  and  C_19
REMARK    2  A    between atoms: N_3  and  C_4
REMARK    3  A    between atoms: C_4  and  C_5
REMARK    4  A    between atoms: N_8  and  C_9
REMARK    5  A    between atoms: C_9  and  C_10
REMARK    6  A    between atoms: C_10  and  O_11
REMARK    7  A    between atoms: C_10  and  C_12
REMARK                            x       y       z     vdW  Elec       q    Type
REMARK                         _______ _______ _______ _____ _____    ______ ____
ROOT
ATOM      1  C   UNL     1      46.031   4.758  14.013  0.00  0.00    +0.000 C 
ENDROOT
BRANCH   1   2
ATOM      2  C   UNL     1      45.044   4.516  12.915  0.00  0.00    +0.000 A 
ATOM      3  C   UNL     1      43.706   4.968  12.877  0.00  0.00    +0.000 A 
ATOM      4  C   UNL     1      43.189   4.516  11.694  0.00  0.00    +0.000 A 
ATOM      5  N   UNL     1      44.199   3.846  11.081  0.00  0.00    +0.000 N 
ATOM      6  N   UNL     1      45.333   3.873  11.793  0.00  0.00    +0.000 NA
BRANCH   5   7
ATOM      7  C   UNL     1      44.101   3.159   9.814  0.00  0.00    +0.000 C 
BRANCH   7   8
ATOM      8  C   UNL     1      44.688   3.976   8.662  0.00  0.00    +0.000 C 
BRANCH   8   9
ATOM      9  C   UNL     1      45.733   3.193   7.905  0.00  0.00    +0.000 A 
ATOM     10  N   UNL     1      46.408   3.784   6.892  0.00  0.00    +0.000 NA
ATOM     11  C   UNL     1      47.365   3.037   6.320  0.00  0.00    +0.000 A 
ATOM     12  C   UNL     1      47.638   1.742   6.682  0.00  0.00    +0.000 A 
ATOM     13  C   UNL     1      46.858   1.219   7.675  0.00  0.00    +0.000 A 
ATOM     14  N   UNL     1      45.904   1.919   8.297  0.00  0.00    +0.000 NA
ENDBRANCH   8   9
BRANCH   8  15
ATOM     15  O   UNL     1      45.276   5.197   9.139  0.00  0.00    +0.000 OA
ATOM     16  H   UNL     1      44.624   5.639   9.699  0.00  0.00    +0.000 HD
ENDBRANCH   8  15
ENDBRANCH   7   8
ENDBRANCH   5   7
ENDBRANCH   1   2
BRANCH   1  19
ATOM     17  O   UNL     1      48.393   5.488  15.379  0.00  0.00    +0.000 OA
ATOM     18  C   UNL     1      48.020   6.156  14.485  0.00  0.00    +0.000 C 
ATOM     19  N   UNL     1      46.886   5.899  13.747  0.00  0.00    +0.000 N 
ATOM     20  H   UNL     1      46.549   6.593  13.085  0.00  0.00    +0.000 HD
BRANCH  18  21
ATOM     21  C   UNL     1      48.913   7.286  14.037  0.00  0.00    +0.000 A 
ATOM     22  C   UNL     1      49.311   7.277  12.693  0.00  0.00    +0.000 A 
ATOM     23  S   UNL     1      50.334   8.548  12.212  0.00  0.00    +0.000 S 
ATOM     24  C   UNL     1      50.320   9.346  13.692  0.00  0.00    +0.000 A 
ATOM     25  N   UNL     1      50.973  10.587  14.165  0.00  0.00    +0.000 NA
ATOM     26  C   UNL     1      50.798  10.328  15.367  0.00  0.00    +0.000 A 
ATOM     27  N   UNL     1      50.689  10.128  16.603  0.00  0.00    +0.000 N 
ATOM     28  C   UNL     1      49.643   8.979  16.353  0.00  0.00    +0.000 A 
ATOM     29  O   UNL     1      48.872   8.423  17.149  0.00  0.00    +0.000 OA
ATOM     30  C   UNL     1      49.632   8.422  14.695  0.00  0.00    +0.000 A 
ATOM     31  H   UNL     1      50.891  11.176  16.618  0.00  0.00    +0.000 HD
ENDBRANCH  18  21
ENDBRANCH   1  19
TORSDOF 7
ENDMDL
MODEL 7
REMARK VINA RESULT:    -7.107      3.326      7.879
REMARK INTER + INTRA:         -10.961
REMARK INTER:                  -9.606
REMARK INTRA:                  -1.355
REMARK UNBOUND:                -1.153
REMARK  Name = 
REMARK  7 active torsions:
REMARK  status: ('A' for Active; 'I' for Inactive)
REMARK    1  A    between atoms: C_2  and  C_19
REMARK    2  A    between atoms: N_3  and  C_4
REMARK    3  A    between atoms: C_4  and  C_5
REMARK    4  A    between atoms: N_8  and  C_9
REMARK    5  A    between atoms: C_9  and  C_10
REMARK    6  A    between atoms: C_10  and  O_11
REMARK    7  A    between atoms: C_10  and  C_12
REMARK                            x       y       z     vdW  Elec       q    Type
REMARK                         _______ _______ _______ _____ _____    ______ ____
ROOT
ATOM      1  C   UNL     1      48.833   8.795  15.555  0.00  0.00    +0.000 C 
ENDROOT
BRANCH   1   2
ATOM      2  C   UNL     1      48.505   8.389  16.957  0.00  0.00    +0.000 A 
ATOM      3  C   UNL     1      47.833   9.173  17.921  0.00  0.00    +0.000 A 
ATOM      4  C   UNL     1      47.756   8.401  19.048  0.00  0.00    +0.000 A 
ATOM      5  N   UNL     1      48.348   7.222  18.729  0.00  0.00    +0.000 N 
ATOM      6  N   UNL     1      48.770   7.190  17.458  0.00  0.00    +0.000 NA
BRANCH   5   7
ATOM      7  C   UNL     1      48.535   6.108  19.629  0.00  0.00    +0.000 C 
BRANCH   7   8
ATOM      8  C   UNL     1      47.802   4.850  19.159  0.00  0.00    +0.000 C 
BRANCH   8   9
ATOM      9  C   UNL     1      48.706   3.953  18.348  0.00  0.00    +0.000 A 
ATOM     10  N   UNL     1      50.049   4.074  18.467  0.00  0.00    +0.000 NA
ATOM     11  C   UNL     1      50.773   3.193  17.761  0.00  0.00    +0.000 A 
ATOM     12  C   UNL     1      50.226   2.249  16.930  0.00  0.00    +0.000 A 
ATOM     13  C   UNL     1      48.862   2.251  16.835  0.00  0.00    +0.000 A 
ATOM     14  N   UNL     1      48.085   3.089  17.527  0.00  0.00    +0.000 NA
ENDBRANCH   8   9
BRANCH   8  15
ATOM     15  O   UNL     1      46.650   5.186  18.369  0.00  0.00    +0.000 OA
ATOM     16  H   UNL     1      46.709   6.125  18.146  0.00  0.00    +0.000 HD
ENDBRANCH   8  15
ENDBRANCH   7   8
ENDBRANCH   5   7
ENDBRANCH   1   2
BRANCH   1  19
ATOM     17  O   UNL     1      48.994   6.527  13.879  0.00  0.00    +0.000 OA
ATOM     18  C   UNL     1      48.034   7.206  13.833  0.00  0.00    +0.000 C 
ATOM     19  N   UNL     1      47.843   8.334  14.600  0.00  0.00    +0.000 N 
ATOM     20  H   UNL     1      47.057   8.947  14.406  0.00  0.00    +0.000 HD
BRANCH  18  21
ATOM     21  C   UNL     1      46.886   6.733  12.974  0.00  0.00    +0.000 A 
ATOM     22  C   UNL     1      46.130   7.725  12.335  0.00  0.00    +0.000 A 
ATOM     23  S   UNL     1      44.830   7.175  11.388  0.00  0.00    +0.000 S 
ATOM     24  C   UNL     1      45.138   5.537  11.613  0.00  0.00    +0.000 A 
ATOM     25  N   UNL     1      44.462   4.316  11.121  0.00  0.00    +0.000 NA
ATOM     26  C   UNL     1      45.007   3.571  11.952  0.00  0.00    +0.000 A 
ATOM     27  N   UNL     1      45.492   2.755  12.776  0.00  0.00    +0.000 N 
ATOM     28  C   UNL     1      46.589   3.797  13.207  0.00  0.00    +0.000 A 
ATOM     29  O   UNL     1      47.630   3.628  13.858  0.00  0.00    +0.000 OA
ATOM     30  C   UNL     1      46.216   5.426  12.689  0.00  0.00    +0.000 A 
ATOM     31  H   UNL     1      45.142   2.065  12.039  0.00  0.00    +0.000 HD
ENDBRANCH  18  21
ENDBRANCH   1  19
TORSDOF 7
ENDMDL
MODEL 8
REMARK VINA RESULT:    -6.999      1.593      2.268
REMARK INTER + INTRA:         -10.811
REMARK INTER:                 -10.014
REMARK INTRA:                  -0.797
REMARK UNBOUND:                -1.153
REMARK  Name = 
REMARK  7 active torsions:
REMARK  status: ('A' for Active; 'I' for Inactive)
REMARK    1  A    between atoms: C_2  and  C_19
REMARK    2  A    between atoms: N_3  and  C_4
REMARK    3  A    between atoms: C_4  and  C_5
REMARK    4  A    between atoms: N_8  and  C_9
REMARK    5  A    between atoms: C_9  and  C_10
REMARK    6  A    between atoms: C_10  and  O_11
REMARK    7  A    between atoms: C_10  and  C_12
REMARK                            x       y       z     vdW  Elec       q    Type
REMARK                         _______ _______ _______ _____ _____    ______ ____
ROOT
ATOM      1  C   UNL     1      47.225   8.054  13.284  0.00  0.00    +0.000 C 
ENDROOT
BRANCH   1   2
ATOM      2  C   UNL     1      45.972   7.526  12.660  0.00  0.00    +0.000 A 
ATOM      3  C   UNL     1      45.084   8.243  11.828  0.00  0.00    +0.000 A 
ATOM      4  C   UNL     1      44.088   7.366  11.494  0.00  0.00    +0.000 A 
ATOM      5  N   UNL     1      44.409   6.195  12.102  0.00  0.00    +0.000 N 
ATOM      6  N   UNL     1      45.563   6.270  12.777  0.00  0.00    +0.000 NA
BRANCH   5   7
ATOM      7  C   UNL     1      43.618   4.987  12.061  0.00  0.00    +0.000 C 
BRANCH   7   8
ATOM      8  C   UNL     1      44.478   3.733  11.890  0.00  0.00    +0.000 C 
BRANCH   8   9
ATOM      9  C   UNL     1      44.801   3.478  10.438  0.00  0.00    +0.000 A 
ATOM     10  N   UNL     1      45.262   4.490   9.667  0.00  0.00    +0.000 NA
ATOM     11  C   UNL     1      45.587   4.158   8.409  0.00  0.00    +0.000 A 
ATOM     12  C   UNL     1      45.432   2.897   7.890  0.00  0.00    +0.000 A 
ATOM     13  C   UNL     1      44.901   1.962   8.734  0.00  0.00    +0.000 A 
ATOM     14  N   UNL     1      44.577   2.226  10.003  0.00  0.00    +0.000 NA
ENDBRANCH   8   9
BRANCH   8  15
ATOM     15  O   UNL     1      43.820   2.576  12.431  0.00  0.00    +0.000 OA
ATOM     16  H   UNL     1      43.492   2.808  13.311  0.00  0.00    +0.000 HD
ENDBRANCH   8  15
ENDBRANCH   7   8
ENDBRANCH   5   7
ENDBRANCH   1   2
BRANCH   1  19
ATOM     17  O   UNL     1      49.717   6.957  14.035  0.00  0.00    +0.000 OA
ATOM     18  C   UNL     1      48.810   6.881  14.782  0.00  0.00    +0.000 C 
ATOM     19  N   UNL     1      47.551   7.378  14.526  0.00  0.00    +0.000 N 
ATOM     20  H   UNL     1      46.785   7.152  15.153  0.00  0.00    +0.000 HD
BRANCH  18  21
ATOM     21  C   UNL     1      49.082   6.322  16.157  0.00  0.00    +0.000 A 
ATOM     22  C   UNL     1      50.115   6.925  16.886  0.00  0.00    +0.000 A 
ATOM     23  S   UNL     1      50.420   6.268  18.425  0.00  0.00    +0.000 S 
ATOM     24  C   UNL     1      49.164   5.151  18.385  0.00  0.00    +0.000 A 
ATOM     25  N   UNL     1      48.697   4.137  19.355  0.00  0.00    +0.000 NA
ATOM     26  C   UNL     1      48.023   3.514  18.517  0.00  0.00    +0.000 A 
ATOM     27  N   UNL     1      47.344   2.811  17.728  0.00  0.00    +0.000 N 
ATOM     28  C   UNL     1      47.382   3.947  16.639  0.00  0.00    +0.000 A 
ATOM     29  O   UNL     1      46.703   4.081  15.611  0.00  0.00    +0.000 OA
ATOM     30  C   UNL     1      48.604   5.155  16.964  0.00  0.00    +0.000 A 
ATOM     31  H   UNL     1      46.943   2.462  18.654  0.00  0.00    +0.000 HD
ENDBRANCH  18  21
ENDBRANCH   1  19
TORSDOF 7
ENDMDL
MODEL 9
REMARK VINA RESULT:    -6.826      2.681      8.290
REMARK INTER + INTRA:         -10.573
REMARK INTER:                  -9.422
REMARK INTRA:                  -1.151
REMARK UNBOUND:                -1.153
REMARK  Name = 
REMARK  7 active torsions:
REMARK  status: ('A' for Active; 'I' for Inactive)
REMARK    1  A    between atoms: C_2  and  C_19
REMARK    2  A    between atoms: N_3  and  C_4
REMARK    3  A    between atoms: C_4  and  C_5
REMARK    4  A    between atoms: N_8  and  C_9
REMARK    5  A    between atoms: C_9  and  C_10
REMARK    6  A    between atoms: C_10  and  O_11
REMARK    7  A    between atoms: C_10  and  C_12
REMARK                            x       y       z     vdW  Elec       q    Type
REMARK                         _______ _______ _______ _____ _____    ______ ____
ROOT
ATOM      1  C   UNL     1      48.052   7.913  11.915  0.00  0.00    +0.000 C 
ENDROOT
BRANCH   1   2
ATOM      2  C   UNL     1      49.016   7.966  13.058  0.00  0.00    +0.000 A 
ATOM      3  C   UNL     1      49.946   8.996  13.323  0.00  0.00    +0.000 A 
ATOM      4  C   UNL     1      50.608   8.624  14.460  0.00  0.00    +0.000 A 
ATOM      5  N   UNL     1      50.065   7.436  14.832  0.00  0.00    +0.000 N 
ATOM      6  N   UNL     1      49.077   7.050  14.014  0.00  0.00    +0.000 NA
BRANCH   5   7
ATOM      7  C   UNL     1      50.482   6.643  15.964  0.00  0.00    +0.000 C 
BRANCH   7   8
ATOM      8  C   UNL     1      49.394   6.541  17.036  0.00  0.00    +0.000 C 
BRANCH   8   9
ATOM      9  C   UNL     1      48.863   5.133  17.153  0.00  0.00    +0.000 A 
ATOM     10  N   UNL     1      47.535   4.932  17.325  0.00  0.00    +0.000 NA
ATOM     11  C   UNL     1      47.143   3.649  17.351  0.00  0.00    +0.000 A 
ATOM     12  C   UNL     1      48.007   2.586  17.258  0.00  0.00    +0.000 A 
ATOM     13  C   UNL     1      49.333   2.899  17.148  0.00  0.00    +0.000 A 
ATOM     14  N   UNL     1      49.784   4.156  17.096  0.00  0.00    +0.000 NA
ENDBRANCH   8   9
BRANCH   8  15
ATOM     15  O   UNL     1      48.302   7.429  16.751  0.00  0.00    +0.000 OA
ATOM     16  H   UNL     1      48.255   8.078  17.465  0.00  0.00    +0.000 HD
ENDBRANCH   8  15
ENDBRANCH   7   8
ENDBRANCH   5   7
ENDBRANCH   1   2
BRANCH   1  19
ATOM     17  O   UNL     1      45.265   7.669  11.525  0.00  0.00    +0.000 OA
ATOM     18  C   UNL     1      45.905   6.698  11.708  0.00  0.00    +0.000 C 
ATOM     19  N   UNL     1      47.267   6.693  11.910  0.00  0.00    +0.000 N 
ATOM     20  H   UNL     1      47.729   5.837  12.202  0.00  0.00    +0.000 HD
BRANCH  18  21
ATOM     21  C   UNL     1      45.205   5.366  11.582  0.00  0.00    +0.000 A 
ATOM     22  C   UNL     1      44.589   4.869  12.738  0.00  0.00    +0.000 A 
ATOM     23  S   UNL     1      43.823   3.358  12.581  0.00  0.00    +0.000 S 
ATOM     24  C   UNL     1      44.115   3.191  10.933  0.00  0.00    +0.000 A 
ATOM     25  N   UNL     1      43.775   2.129   9.961  0.00  0.00    +0.000 NA
ATOM     26  C   UNL     1      44.588   2.525   9.108  0.00  0.00    +0.000 A 
ATOM     27  N   UNL     1      45.404   2.840   8.207  0.00  0.00    +0.000 N 
ATOM     28  C   UNL     1      45.650   4.241   8.880  0.00  0.00    +0.000 A 
ATOM     29  O   UNL     1      46.195   5.255   8.421  0.00  0.00    +0.000 OA
ATOM     30  C   UNL     1      45.074   4.309  10.530  0.00  0.00    +0.000 A 
ATOM     31  H   UNL     1      44.753   2.216   7.635  0.00  0.00    +0.000 HD
ENDBRANCH  18  21
ENDBRANCH   1  19
TORSDOF 7
ENDMDL
