MODEL 1
REMARK VINA RESULT:    -7.785      0.000      0.000
REMARK INTER + INTRA:         -12.681
REMARK INTER:                 -11.426
REMARK INTRA:                  -1.255
REMARK UNBOUND:                -1.255
REMARK  Name = 
REMARK  9 active torsions:
REMARK  status: ('A' for Active; 'I' for Inactive)
REMARK    1  A    between atoms: C_1  and  C_2
REMARK    2  A    between atoms: C_2  and  O_3
REMARK    3  A    between atoms: O_3  and  C_4
REMARK    4  A    between atoms: C_4  and  C_5
REMARK    5  A    between atoms: C_5  and  N_6
REMARK    6  A    between atoms: C_5  and  C_19
REMARK    7  A    between atoms: C_7  and  C_9
REMARK    8  A    between atoms: C_22  and  O_23
REMARK    9  A    between atoms: O_23  and  C_24
REMARK                            x       y       z     vdW  Elec       q    Type
REMARK                         _______ _______ _______ _____ _____    ______ ____
ROOT
ATOM      1  C   UNL     1      46.434   7.624  12.413  0.00  0.00    +0.000 C 
ENDROOT
BRANCH   1   2
ATOM      2  C   UNL     1      45.960   6.472  11.540  0.00  0.00    +0.000 A 
ATOM      3  C   UNL     1      46.412   6.409  10.212  0.00  0.00    +0.000 A 
ATOM      4  C   UNL     1      45.966   5.404   9.353  0.00  0.00    +0.000 A 
ATOM      5  C   UNL     1      45.118   4.399   9.821  0.00  0.00    +0.000 A 
ATOM      6  C   UNL     1      44.634   4.468  11.125  0.00  0.00    +0.000 A 
ATOM      7  C   UNL     1      45.044   5.502  11.973  0.00  0.00    +0.000 A 
BRANCH   5   8
ATOM      8  O   UNL     1      44.667   3.345   9.058  0.00  0.00    +0.000 OA
BRANCH   8   9
ATOM      9  C   UNL     1      45.526   2.724   8.177  0.00  0.00    +0.000 A 
ATOM     10  C   UNL     1      46.035   3.319   7.025  0.00  0.00    +0.000 A 
ATOM     11  C   UNL     1      46.843   2.558   6.201  0.00  0.00    +0.000 A 
ATOM     12  N   UNL     1      47.220   1.292   6.482  0.00  0.00    +0.000 NA
ATOM     13  C   UNL     1      46.772   0.769   7.643  0.00  0.00    +0.000 A 
ATOM     14  C   UNL     1      45.931   1.437   8.515  0.00  0.00    +0.000 A 
ENDBRANCH   8   9
ENDBRANCH   5   8
ENDBRANCH   1   2
BRANCH   1  15
ATOM     15  N   UNL     1      46.964   7.166  13.687  0.00  0.00    +0.000 N 
ATOM     16  C   UNL     1      48.240   6.717  13.865  0.00  0.00    +0.000 C 
ATOM     17  O   UNL     1      49.070   6.681  12.961  0.00  0.00    +0.000 OA
ATOM     18  H   UNL     1      46.308   7.138  14.459  0.00  0.00    +0.000 HD
BRANCH  16  19
ATOM     19  C   UNL     1      48.576   6.299  15.233  0.00  0.00    +0.000 A 
ATOM     20  C   UNL     1      49.514   7.011  15.969  0.00  0.00    +0.000 A 
ATOM     21  S   UNL     1      49.813   6.349  17.513  0.00  0.00    +0.000 S 
ATOM     22  C   UNL     1      48.732   5.064  17.234  0.00  0.00    +0.000 A 
ATOM     23  N   UNL     1      48.564   4.078  18.155  0.00  0.00    +0.000 NA
ATOM     24  C   UNL     1      47.753   3.139  17.790  0.00  0.00    +0.000 A 
ATOM     25  N   UNL     1      47.076   3.114  16.603  0.00  0.00    +0.000 N 
ATOM     26  C   UNL     1      47.115   4.154  15.705  0.00  0.00    +0.000 A 
ATOM     27  O   UNL     1      46.327   4.205  14.767  0.00  0.00    +0.000 OA
ATOM     28  C   UNL     1      48.098   5.178  16.009  0.00  0.00    +0.000 A 
ATOM     29  H   UNL     1      46.405   2.385  16.402  0.00  0.00    +0.000 HD
ENDBRANCH  16  19
ENDBRANCH   1  15
BRANCH   1  30
ATOM     30  C   UNL     1      45.283   8.633  12.636  0.00  0.00    +0.000 C 
BRANCH  30  31
ATOM     31  O   UNL     1      45.715   9.946  12.258  0.00  0.00    +0.000 OA
BRANCH  31  33
ATOM     32  C   UNL     1      43.798   9.540  10.904  0.00  0.00    +0.000 C 
ATOM     33  C   UNL     1      44.803  10.577  11.364  0.00  0.00    +0.000 C 
ENDBRANCH  31  33
ENDBRANCH  30  31
ENDBRANCH   1  30
TORSDOF 8
ENDMDL
MODEL 2
REMARK VINA RESULT:    -7.656      1.414      2.138
REMARK INTER + INTRA:         -12.492
REMARK INTER:                 -11.236
REMARK INTRA:                  -1.256
REMARK UNBOUND:                -1.255
REMARK  Name = 
REMARK  9 active torsions:
REMARK  status: ('A' for Active; 'I' for Inactive)
REMARK    1  A    between atoms: C_1  and  C_2
REMARK    2  A    between atoms: C_2  and  O_3
REMARK    3  A    between atoms: O_3  and  C_4
REMARK    4  A    between atoms: C_4  and  C_5
REMARK    5  A    between atoms: C_5  and  N_6
REMARK    6  A    between atoms: C_5  and  C_19
REMARK    7  A    between atoms: C_7  and  C_9
REMARK    8  A    between atoms: C_22  and  O_23
REMARK    9  A    between atoms: O_23  and  C_24
REMARK                            x       y       z     vdW  Elec       q    Type
REMARK                         _______ _______ _______ _____ _____    ______ ____
ROOT
ATOM      1  C   UNL     1      46.426   6.988  12.704  0.00  0.00    +0.000 C 
ENDROOT
BRANCH   1   2
ATOM      2  C   UNL     1      45.987   6.057  11.584  0.00  0.00    +0.000 A 
ATOM      3  C   UNL     1      45.286   4.889  11.921  0.00  0.00    +0.000 A 
ATOM      4  C   UNL     1      44.907   3.974  10.938  0.00  0.00    +0.000 A 
ATOM      5  C   UNL     1      45.154   4.243   9.590  0.00  0.00    +0.000 A 
ATOM      6  C   UNL     1      45.879   5.380   9.243  0.00  0.00    +0.000 A 
ATOM      7  C   UNL     1      46.299   6.274  10.234  0.00  0.00    +0.000 A 
BRANCH   5   8
ATOM      8  O   UNL     1      44.773   3.422   8.551  0.00  0.00    +0.000 OA
BRANCH   8   9
ATOM      9  C   UNL     1      45.735   2.763   7.816  0.00  0.00    +0.000 A 
ATOM     10  C   UNL     1      46.365   3.292   6.692  0.00  0.00    +0.000 A 
ATOM     11  C   UNL     1      47.271   2.496   6.017  0.00  0.00    +0.000 A 
ATOM     12  N   UNL     1      47.627   1.258   6.421  0.00  0.00    +0.000 NA
ATOM     13  C   UNL     1      47.056   0.802   7.555  0.00  0.00    +0.000 A 
ATOM     14  C   UNL     1      46.113   1.508   8.281  0.00  0.00    +0.000 A 
ENDBRANCH   8   9
ENDBRANCH   5   8
ENDBRANCH   1   2
BRANCH   1  15
ATOM     15  N   UNL     1      46.645   6.279  13.954  0.00  0.00    +0.000 N 
ATOM     16  C   UNL     1      47.878   5.954  14.440  0.00  0.00    +0.000 C 
ATOM     17  O   UNL     1      48.924   6.254  13.872  0.00  0.00    +0.000 OA
ATOM     18  H   UNL     1      45.813   5.973  14.445  0.00  0.00    +0.000 HD
BRANCH  16  19
ATOM     19  C   UNL     1      47.880   5.235  15.723  0.00  0.00    +0.000 A 
ATOM     20  C   UNL     1      47.429   3.924  15.788  0.00  0.00    +0.000 A 
ATOM     21  S   UNL     1      47.455   3.272  17.364  0.00  0.00    +0.000 S 
ATOM     22  C   UNL     1      48.030   4.733  18.020  0.00  0.00    +0.000 A 
ATOM     23  N   UNL     1      48.211   4.876  19.360  0.00  0.00    +0.000 NA
ATOM     24  C   UNL     1      48.601   6.054  19.723  0.00  0.00    +0.000 A 
ATOM     25  N   UNL     1      48.853   7.089  18.867  0.00  0.00    +0.000 N 
ATOM     26  C   UNL     1      48.811   6.947  17.501  0.00  0.00    +0.000 A 
ATOM     27  O   UNL     1      49.260   7.818  16.764  0.00  0.00    +0.000 OA
ATOM     28  C   UNL     1      48.267   5.682  17.041  0.00  0.00    +0.000 A 
ATOM     29  H   UNL     1      49.219   7.968  19.207  0.00  0.00    +0.000 HD
ENDBRANCH  16  19
ENDBRANCH   1  15
BRANCH   1  30
ATOM     30  C   UNL     1      45.388   8.118  12.896  0.00  0.00    +0.000 C 
BRANCH  30  31
ATOM     31  O   UNL     1      45.906   9.342  12.359  0.00  0.00    +0.000 OA
BRANCH  31  33
ATOM     32  C   UNL     1      43.993   9.312  10.941  0.00  0.00    +0.000 C 
ATOM     33  C   UNL     1      44.880  10.170  11.820  0.00  0.00    +0.000 C 
ENDBRANCH  31  33
ENDBRANCH  30  31
ENDBRANCH   1  30
TORSDOF 8
ENDMDL
MODEL 3
REMARK VINA RESULT:    -7.604      2.331      4.340
REMARK INTER + INTRA:         -12.415
REMARK INTER:                 -11.072
REMARK INTRA:                  -1.343
REMARK UNBOUND:                -1.255
REMARK  Name = 
REMARK  9 active torsions:
REMARK  status: ('A' for Active; 'I' for Inactive)
REMARK    1  A    between atoms: C_1  and  C_2
REMARK    2  A    between atoms: C_2  and  O_3
REMARK    3  A    between atoms: O_3  and  C_4
REMARK    4  A    between atoms: C_4  and  C_5
REMARK    5  A    between atoms: C_5  and  N_6
REMARK    6  A    between atoms: C_5  and  C_19
REMARK    7  A    between atoms: C_7  and  C_9
REMARK    8  A    between atoms: C_22  and  O_23
REMARK    9  A    between atoms: O_23  and  C_24
REMARK                            x       y       z     vdW  Elec       q    Type
REMARK                         _______ _______ _______ _____ _____    ______ ____
ROOT
ATOM      1  C   UNL     1      45.795   5.873  13.158  0.00  0.00    +0.000 C 
ENDROOT
BRANCH   1   2
ATOM      2  C   UNL     1      45.542   5.253  11.791  0.00  0.00    +0.000 A 
ATOM      3  C   UNL     1      44.904   4.005  11.731  0.00  0.00    +0.000 A 
ATOM      4  C   UNL     1      44.696   3.367  10.507  0.00  0.00    +0.000 A 
ATOM      5  C   UNL     1      45.053   3.996   9.313  0.00  0.00    +0.000 A 
ATOM      6  C   UNL     1      45.718   5.218   9.359  0.00  0.00    +0.000 A 
ATOM      7  C   UNL     1      45.969   5.837  10.589  0.00  0.00    +0.000 A 
BRANCH   5   8
ATOM      8  O   UNL     1      44.842   3.463   8.060  0.00  0.00    +0.000 OA
BRANCH   8   9
ATOM      9  C   UNL     1      45.878   2.834   7.404  0.00  0.00    +0.000 A 
ATOM     10  C   UNL     1      46.517   3.341   6.276  0.00  0.00    +0.000 A 
ATOM     11  C   UNL     1      47.504   2.574   5.686  0.00  0.00    +0.000 A 
ATOM     12  N   UNL     1      47.928   1.390   6.177  0.00  0.00    +0.000 NA
ATOM     13  C   UNL     1      47.341   0.960   7.314  0.00  0.00    +0.000 A 
ATOM     14  C   UNL     1      46.321   1.638   7.959  0.00  0.00    +0.000 A 
ENDBRANCH   8   9
ENDBRANCH   5   8
ENDBRANCH   1   2
BRANCH   1  15
ATOM     15  N   UNL     1      46.913   6.803  13.141  0.00  0.00    +0.000 N 
ATOM     16  C   UNL     1      46.777   8.159  13.198  0.00  0.00    +0.000 C 
ATOM     17  O   UNL     1      45.690   8.721  13.293  0.00  0.00    +0.000 OA
ATOM     18  H   UNL     1      47.833   6.393  13.024  0.00  0.00    +0.000 HD
BRANCH  16  19
ATOM     19  C   UNL     1      48.035   8.920  13.168  0.00  0.00    +0.000 A 
ATOM     20  C   UNL     1      48.101  10.130  12.489  0.00  0.00    +0.000 A 
ATOM     21  S   UNL     1      49.651  10.843  12.518  0.00  0.00    +0.000 S 
ATOM     22  C   UNL     1      50.296   9.538  13.401  0.00  0.00    +0.000 A 
ATOM     23  N   UNL     1      51.619   9.487  13.709  0.00  0.00    +0.000 NA
ATOM     24  C   UNL     1      51.981   8.416  14.335  0.00  0.00    +0.000 A 
ATOM     25  N   UNL     1      51.136   7.409  14.706  0.00  0.00    +0.000 N 
ATOM     26  C   UNL     1      49.774   7.483  14.532  0.00  0.00    +0.000 A 
ATOM     27  O   UNL     1      49.027   6.676  15.076  0.00  0.00    +0.000 OA
ATOM     28  C   UNL     1      49.327   8.607  13.731  0.00  0.00    +0.000 A 
ATOM     29  H   UNL     1      51.468   6.626  15.253  0.00  0.00    +0.000 HD
ENDBRANCH  16  19
ENDBRANCH   1  15
BRANCH   1  30
ATOM     30  C   UNL     1      46.028   4.765  14.211  0.00  0.00    +0.000 C 
BRANCH  30  31
ATOM     31  O   UNL     1      47.329   4.193  14.025  0.00  0.00    +0.000 OA
BRANCH  31  33
ATOM     32  C   UNL     1      47.203   4.042  16.399  0.00  0.00    +0.000 C 
ATOM     33  C   UNL     1      47.729   3.394  15.135  0.00  0.00    +0.000 C 
ENDBRANCH  31  33
ENDBRANCH  30  31
ENDBRANCH   1  30
TORSDOF 8
ENDMDL
MODEL 4
REMARK VINA RESULT:    -6.676      3.388      7.759
REMARK INTER + INTRA:         -11.053
REMARK INTER:                  -9.603
REMARK INTRA:                  -1.450
REMARK UNBOUND:                -1.255
REMARK  Name = 
REMARK  9 active torsions:
REMARK  status: ('A' for Active; 'I' for Inactive)
REMARK    1  A    between atoms: C_1  and  C_2
REMARK    2  A    between atoms: C_2  and  O_3
REMARK    3  A    between atoms: O_3  and  C_4
REMARK    4  A    between atoms: C_4  and  C_5
REMARK    5  A    between atoms: C_5  and  N_6
REMARK    6  A    between atoms: C_5  and  C_19
REMARK    7  A    between atoms: C_7  and  C_9
REMARK    8  A    between atoms: C_22  and  O_23
REMARK    9  A    between atoms: O_23  and  C_24
REMARK                            x       y       z     vdW  Elec       q    Type
REMARK                         _______ _______ _______ _____ _____    ______ ____
ROOT
ATOM      1  C   UNL     1      48.090   7.336  13.586  0.00  0.00    +0.000 C 
ENDROOT
BRANCH   1   2
ATOM      2  C   UNL     1      48.654   6.650  14.821  0.00  0.00    +0.000 A 
ATOM      3  C   UNL     1      47.891   5.647  15.438  0.00  0.00    +0.000 A 
ATOM      4  C   UNL     1      48.337   5.024  16.604  0.00  0.00    +0.000 A 
ATOM      5  C   UNL     1      49.589   5.336  17.137  0.00  0.00    +0.000 A 
ATOM      6  C   UNL     1      50.342   6.353  16.556  0.00  0.00    +0.000 A 
ATOM      7  C   UNL     1      49.874   7.011  15.414  0.00  0.00    +0.000 A 
BRANCH   5   8
ATOM      8  O   UNL     1      50.130   4.738  18.254  0.00  0.00    +0.000 OA
BRANCH   8   9
ATOM      9  C   UNL     1      50.969   3.655  18.108  0.00  0.00    +0.000 A 
ATOM     10  C   UNL     1      50.637   2.490  17.422  0.00  0.00    +0.000 A 
ATOM     11  C   UNL     1      51.558   1.459  17.404  0.00  0.00    +0.000 A 
ATOM     12  N   UNL     1      52.785   1.540  17.959  0.00  0.00    +0.000 NA
ATOM     13  C   UNL     1      53.107   2.710  18.552  0.00  0.00    +0.000 A 
ATOM     14  C   UNL     1      52.242   3.786  18.653  0.00  0.00    +0.000 A 
ENDBRANCH   8   9
ENDBRANCH   5   8
ENDBRANCH   1   2
BRANCH   1  15
ATOM     15  N   UNL     1      47.376   6.411  12.721  0.00  0.00    +0.000 N 
ATOM     16  C   UNL     1      46.342   6.772  11.907  0.00  0.00    +0.000 C 
ATOM     17  O   UNL     1      45.934   7.926  11.813  0.00  0.00    +0.000 OA
ATOM     18  H   UNL     1      47.647   5.437  12.789  0.00  0.00    +0.000 HD
BRANCH  16  19
ATOM     19  C   UNL     1      45.755   5.684  11.113  0.00  0.00    +0.000 A 
ATOM     20  C   UNL     1      45.876   5.686   9.729  0.00  0.00    +0.000 A 
ATOM     21  S   UNL     1      45.089   4.374   8.974  0.00  0.00    +0.000 S 
ATOM     22  C   UNL     1      44.523   3.782  10.466  0.00  0.00    +0.000 A 
ATOM     23  N   UNL     1      43.712   2.692  10.525  0.00  0.00    +0.000 NA
ATOM     24  C   UNL     1      43.316   2.385  11.717  0.00  0.00    +0.000 A 
ATOM     25  N   UNL     1      43.680   3.051  12.853  0.00  0.00    +0.000 N 
ATOM     26  C   UNL     1      44.600   4.071  12.851  0.00  0.00    +0.000 A 
ATOM     27  O   UNL     1      45.074   4.492  13.901  0.00  0.00    +0.000 OA
ATOM     28  C   UNL     1      44.988   4.534  11.531  0.00  0.00    +0.000 A 
ATOM     29  H   UNL     1      43.389   2.722  13.764  0.00  0.00    +0.000 HD
ENDBRANCH  16  19
ENDBRANCH   1  15
BRANCH   1  30
ATOM     30  C   UNL     1      49.222   8.043  12.805  0.00  0.00    +0.000 C 
BRANCH  30  31
ATOM     31  O   UNL     1      48.801   9.364  12.441  0.00  0.00    +0.000 OA
BRANCH  31  33
ATOM     32  C   UNL     1      50.876   9.055  11.314  0.00  0.00    +0.000 C 
ATOM     33  C   UNL     1      49.768  10.036  11.639  0.00  0.00    +0.000 C 
ENDBRANCH  31  33
ENDBRANCH  30  31
ENDBRANCH   1  30
TORSDOF 8
ENDMDL
MODEL 5
REMARK VINA RESULT:    -6.670      2.496      3.255
REMARK INTER + INTRA:         -11.044
REMARK INTER:                  -9.412
REMARK INTRA:                  -1.631
REMARK UNBOUND:                -1.255
REMARK  Name = 
REMARK  9 active torsions:
REMARK  status: ('A' for Active; 'I' for Inactive)
REMARK    1  A    between atoms: C_1  and  C_2
REMARK    2  A    between atoms: C_2  and  O_3
REMARK    3  A    between atoms: O_3  and  C_4
REMARK    4  A    between atoms: C_4  and  C_5
REMARK    5  A    between atoms: C_5  and  N_6
REMARK    6  A    between atoms: C_5  and  C_19
REMARK    7  A    between atoms: C_7  and  C_9
REMARK    8  A    between atoms: C_22  and  O_23
REMARK    9  A    between atoms: O_23  and  C_24
REMARK                            x       y       z     vdW  Elec       q    Type
REMARK                         _______ _______ _______ _____ _____    ______ ____
ROOT
ATOM      1  C   UNL     1      47.898   7.704  13.958  0.00  0.00    +0.000 C 
ENDROOT
BRANCH   1   2
ATOM      2  C   UNL     1      46.957   6.909  13.066  0.00  0.00    +0.000 A 
ATOM      3  C   UNL     1      46.175   7.603  12.130  0.00  0.00    +0.000 A 
ATOM      4  C   UNL     1      45.257   6.928  11.325  0.00  0.00    +0.000 A 
ATOM      5  C   UNL     1      45.153   5.537  11.385  0.00  0.00    +0.000 A 
ATOM      6  C   UNL     1      45.896   4.839  12.332  0.00  0.00    +0.000 A 
ATOM      7  C   UNL     1      46.783   5.520  13.172  0.00  0.00    +0.000 A 
BRANCH   5   8
ATOM      8  O   UNL     1      44.310   4.786  10.595  0.00  0.00    +0.000 OA
BRANCH   8   9
ATOM      9  C   UNL     1      44.841   3.903   9.680  0.00  0.00    +0.000 A 
ATOM     10  C   UNL     1      44.677   2.521   9.735  0.00  0.00    +0.000 A 
ATOM     11  C   UNL     1      45.315   1.751   8.781  0.00  0.00    +0.000 A 
ATOM     12  N   UNL     1      46.035   2.264   7.761  0.00  0.00    +0.000 NA
ATOM     13  C   UNL     1      46.113   3.610   7.691  0.00  0.00    +0.000 A 
ATOM     14  C   UNL     1      45.541   4.465   8.617  0.00  0.00    +0.000 A 
ENDBRANCH   8   9
ENDBRANCH   5   8
ENDBRANCH   1   2
BRANCH   1  15
ATOM     15  N   UNL     1      47.976   7.156  15.303  0.00  0.00    +0.000 N 
ATOM     16  C   UNL     1      49.116   6.646  15.853  0.00  0.00    +0.000 C 
ATOM     17  O   UNL     1      50.193   6.626  15.265  0.00  0.00    +0.000 OA
ATOM     18  H   UNL     1      47.104   7.113  15.818  0.00  0.00    +0.000 HD
BRANCH  16  19
ATOM     19  C   UNL     1      48.981   6.141  17.227  0.00  0.00    +0.000 A 
ATOM     20  C   UNL     1      49.308   4.823  17.520  0.00  0.00    +0.000 A 
ATOM     21  S   UNL     1      49.038   4.402  19.150  0.00  0.00    +0.000 S 
ATOM     22  C   UNL     1      48.434   5.952  19.511  0.00  0.00    +0.000 A 
ATOM     23  N   UNL     1      47.955   6.247  20.748  0.00  0.00    +0.000 NA
ATOM     24  C   UNL     1      47.480   7.444  20.866  0.00  0.00    +0.000 A 
ATOM     25  N   UNL     1      47.468   8.377  19.868  0.00  0.00    +0.000 N 
ATOM     26  C   UNL     1      48.061   8.164  18.647  0.00  0.00    +0.000 A 
ATOM     27  O   UNL     1      48.234   9.090  17.862  0.00  0.00    +0.000 OA
ATOM     28  C   UNL     1      48.505   6.800  18.420  0.00  0.00    +0.000 A 
ATOM     29  H   UNL     1      47.142   9.318  20.041  0.00  0.00    +0.000 HD
ENDBRANCH  16  19
ENDBRANCH   1  15
BRANCH   1  30
ATOM     30  C   UNL     1      47.464   9.188  14.002  0.00  0.00    +0.000 C 
BRANCH  30  31
ATOM     31  O   UNL     1      48.562  10.021  13.609  0.00  0.00    +0.000 OA
BRANCH  31  33
ATOM     32  C   UNL     1      49.027  10.171  11.278  0.00  0.00    +0.000 C 
ATOM     33  C   UNL     1      48.270  10.781  12.441  0.00  0.00    +0.000 C 
ENDBRANCH  31  33
ENDBRANCH  30  31
ENDBRANCH   1  30
TORSDOF 8
ENDMDL
MODEL 6
REMARK VINA RESULT:    -6.650      2.255      3.040
REMARK INTER + INTRA:         -11.016
REMARK INTER:                  -9.663
REMARK INTRA:                  -1.352
REMARK UNBOUND:                -1.255
REMARK  Name = 
REMARK  9 active torsions:
REMARK  status: ('A' for Active; 'I' for Inactive)
REMARK    1  A    between atoms: C_1  and  C_2
REMARK    2  A    between atoms: C_2  and  O_3
REMARK    3  A    between atoms: O_3  and  C_4
REMARK    4  A    between atoms: C_4  and  C_5
REMARK    5  A    between atoms: C_5  and  N_6
REMARK    6  A    between atoms: C_5  and  C_19
REMARK    7  A    between atoms: C_7  and  C_9
REMARK    8  A    between atoms: C_22  and  O_23
REMARK    9  A    between atoms: O_23  and  C_24
REMARK                            x       y       z     vdW  Elec       q    Type
REMARK                         _______ _______ _______ _____ _____    ______ ____
ROOT
ATOM      1  C   UNL     1      48.321   7.881  13.854  0.00  0.00    +0.000 C 
ENDROOT
BRANCH   1   2
ATOM      2  C   UNL     1      47.298   7.077  13.065  0.00  0.00    +0.000 A 
ATOM      3  C   UNL     1      46.479   7.752  12.147  0.00  0.00    +0.000 A 
ATOM      4  C   UNL     1      45.489   7.072  11.437  0.00  0.00    +0.000 A 
ATOM      5  C   UNL     1      45.346   5.690  11.573  0.00  0.00    +0.000 A 
ATOM      6  C   UNL     1      46.128   5.012  12.505  0.00  0.00    +0.000 A 
ATOM      7  C   UNL     1      47.089   5.702  13.251  0.00  0.00    +0.000 A 
BRANCH   5   8
ATOM      8  O   UNL     1      44.431   4.931  10.878  0.00  0.00    +0.000 OA
BRANCH   8   9
ATOM      9  C   UNL     1      44.868   4.051   9.911  0.00  0.00    +0.000 A 
ATOM     10  C   UNL     1      44.667   2.674   9.954  0.00  0.00    +0.000 A 
ATOM     11  C   UNL     1      45.212   1.904   8.943  0.00  0.00    +0.000 A 
ATOM     12  N   UNL     1      45.873   2.417   7.883  0.00  0.00    +0.000 NA
ATOM     13  C   UNL     1      45.986   3.761   7.831  0.00  0.00    +0.000 A 
ATOM     14  C   UNL     1      45.507   4.613   8.811  0.00  0.00    +0.000 A 
ENDBRANCH   8   9
ENDBRANCH   5   8
ENDBRANCH   1   2
BRANCH   1  15
ATOM     15  N   UNL     1      48.138   7.745  15.290  0.00  0.00    +0.000 N 
ATOM     16  C   UNL     1      49.001   7.075  16.108  0.00  0.00    +0.000 C 
ATOM     17  O   UNL     1      50.031   6.543  15.704  0.00  0.00    +0.000 OA
ATOM     18  H   UNL     1      47.282   8.132  15.670  0.00  0.00    +0.000 HD
BRANCH  16  19
ATOM     19  C   UNL     1      48.632   7.054  17.530  0.00  0.00    +0.000 A 
ATOM     20  C   UNL     1      48.238   8.224  18.166  0.00  0.00    +0.000 A 
ATOM     21  S   UNL     1      47.900   8.016  19.825  0.00  0.00    +0.000 S 
ATOM     22  C   UNL     1      48.310   6.366  19.761  0.00  0.00    +0.000 A 
ATOM     23  N   UNL     1      48.300   5.597  20.882  0.00  0.00    +0.000 NA
ATOM     24  C   UNL     1      48.684   4.376  20.697  0.00  0.00    +0.000 A 
ATOM     25  N   UNL     1      49.047   3.850  19.489  0.00  0.00    +0.000 N 
ATOM     26  C   UNL     1      48.944   4.554  18.313  0.00  0.00    +0.000 A 
ATOM     27  O   UNL     1      49.057   3.989  17.231  0.00  0.00    +0.000 OA
ATOM     28  C   UNL     1      48.632   5.962  18.477  0.00  0.00    +0.000 A 
ATOM     29  H   UNL     1      49.275   2.870  19.396  0.00  0.00    +0.000 HD
ENDBRANCH  16  19
ENDBRANCH   1  15
BRANCH   1  30
ATOM     30  C   UNL     1      48.262   9.370  13.440  0.00  0.00    +0.000 C 
BRANCH  30  31
ATOM     31  O   UNL     1      49.566   9.807  13.034  0.00  0.00    +0.000 OA
BRANCH  31  33
ATOM     32  C   UNL     1      48.566  10.742  11.085  0.00  0.00    +0.000 C 
ATOM     33  C   UNL     1      49.693   9.880  11.617  0.00  0.00    +0.000 C 
ENDBRANCH  31  33
ENDBRANCH  30  31
ENDBRANCH   1  30
TORSDOF 8
ENDMDL
MODEL 7
REMARK VINA RESULT:    -6.642      3.744      6.070
REMARK INTER + INTRA:         -11.003
REMARK INTER:                  -9.339
REMARK INTRA:                  -1.665
REMARK UNBOUND:                -1.255
REMARK  Name = 
REMARK  9 active torsions:
REMARK  status: ('A' for Active; 'I' for Inactive)
REMARK    1  A    between atoms: C_1  and  C_2
REMARK    2  A    between atoms: C_2  and  O_3
REMARK    3  A    between atoms: O_3  and  C_4
REMARK    4  A    between atoms: C_4  and  C_5
REMARK    5  A    between atoms: C_5  and  N_6
REMARK    6  A    between atoms: C_5  and  C_19
REMARK    7  A    between atoms: C_7  and  C_9
REMARK    8  A    between atoms: C_22  and  O_23
REMARK    9  A    between atoms: O_23  and  C_24
REMARK                            x       y       z     vdW  Elec       q    Type
REMARK                         _______ _______ _______ _____ _____    ______ ____
ROOT
ATOM      1  C   UNL     1      49.136   6.313  16.944  0.00  0.00    +0.000 C 
ENDROOT
BRANCH   1   2
ATOM      2  C   UNL     1      48.305   5.588  15.895  0.00  0.00    +0.000 A 
ATOM      3  C   UNL     1      48.184   6.165  14.622  0.00  0.00    +0.000 A 
ATOM      4  C   UNL     1      47.390   5.570  13.640  0.00  0.00    +0.000 A 
ATOM      5  C   UNL     1      46.761   4.348  13.886  0.00  0.00    +0.000 A 
ATOM      6  C   UNL     1      46.843   3.782  15.155  0.00  0.00    +0.000 A 
ATOM      7  C   UNL     1      47.602   4.403  16.154  0.00  0.00    +0.000 A 
BRANCH   5   8
ATOM      8  O   UNL     1      46.000   3.666  12.963  0.00  0.00    +0.000 OA
BRANCH   8   9
ATOM      9  C   UNL     1      44.862   4.251  12.451  0.00  0.00    +0.000 A 
ATOM     10  C   UNL     1      43.821   4.757  13.227  0.00  0.00    +0.000 A 
ATOM     11  C   UNL     1      42.713   5.266  12.579  0.00  0.00    +0.000 A 
ATOM     12  N   UNL     1      42.606   5.360  11.236  0.00  0.00    +0.000 NA
ATOM     13  C   UNL     1      43.662   4.932  10.513  0.00  0.00    +0.000 A 
ATOM     14  C   UNL     1      44.801   4.374  11.067  0.00  0.00    +0.000 A 
ENDBRANCH   8   9
ENDBRANCH   5   8
ENDBRANCH   1   2
BRANCH   1  15
ATOM     15  N   UNL     1      50.163   5.460  17.518  0.00  0.00    +0.000 N 
ATOM     16  C   UNL     1      51.475   5.487  17.142  0.00  0.00    +0.000 C 
ATOM     17  O   UNL     1      51.913   6.258  16.294  0.00  0.00    +0.000 OA
ATOM     18  H   UNL     1      49.847   4.776  18.196  0.00  0.00    +0.000 HD
BRANCH  16  19
ATOM     19  C   UNL     1      52.352   4.541  17.847  0.00  0.00    +0.000 A 
ATOM     20  C   UNL     1      53.422   5.009  18.597  0.00  0.00    +0.000 A 
ATOM     21  S   UNL     1      54.357   3.767  19.298  0.00  0.00    +0.000 S 
ATOM     22  C   UNL     1      53.390   2.560  18.588  0.00  0.00    +0.000 A 
ATOM     23  N   UNL     1      53.691   1.242  18.738  0.00  0.00    +0.000 NA
ATOM     24  C   UNL     1      52.903   0.439  18.101  0.00  0.00    +0.000 A 
ATOM     25  N   UNL     1      51.828   0.832  17.355  0.00  0.00    +0.000 N 
ATOM     26  C   UNL     1      51.413   2.140  17.286  0.00  0.00    +0.000 A 
ATOM     27  O   UNL     1      50.324   2.429  16.802  0.00  0.00    +0.000 OA
ATOM     28  C   UNL     1      52.326   3.097  17.884  0.00  0.00    +0.000 A 
ATOM     29  H   UNL     1      51.211   0.152  16.934  0.00  0.00    +0.000 HD
ENDBRANCH  16  19
ENDBRANCH   1  15
BRANCH   1  30
ATOM     30  C   UNL     1      48.218   6.878  18.053  0.00  0.00    +0.000 C 
BRANCH  30  31
ATOM     31  O   UNL     1      48.772   6.567  19.338  0.00  0.00    +0.000 OA
BRANCH  31  33
ATOM     32  C   UNL     1      48.652   4.682  20.789  0.00  0.00    +0.000 C 
ATOM     33  C   UNL     1      47.873   5.810  20.144  0.00  0.00    +0.000 C 
ENDBRANCH  31  33
ENDBRANCH  30  31
ENDBRANCH   1  30
TORSDOF 8
ENDMDL
MODEL 8
REMARK VINA RESULT:    -6.559      2.537      4.989
REMARK INTER + INTRA:         -10.881
REMARK INTER:                 -10.619
REMARK INTRA:                  -0.262
REMARK UNBOUND:                -1.255
REMARK  Name = 
REMARK  9 active torsions:
REMARK  status: ('A' for Active; 'I' for Inactive)
REMARK    1  A    between atoms: C_1  and  C_2
REMARK    2  A    between atoms: C_2  and  O_3
REMARK    3  A    between atoms: O_3  and  C_4
REMARK    4  A    between atoms: C_4  and  C_5
REMARK    5  A    between atoms: C_5  and  N_6
REMARK    6  A    between atoms: C_5  and  C_19
REMARK    7  A    between atoms: C_7  and  C_9
REMARK    8  A    between atoms: C_22  and  O_23
REMARK    9  A    between atoms: O_23  and  C_24
REMARK                            x       y       z     vdW  Elec       q    Type
REMARK                         _______ _______ _______ _____ _____    ______ ____
ROOT
ATOM      1  C   UNL     1      46.260   5.585  13.911  0.00  0.00    +0.000 C 
ENDROOT
BRANCH   1   2
ATOM      2  C   UNL     1      45.860   5.098  12.526  0.00  0.00    +0.000 A 
ATOM      3  C   UNL     1      45.378   3.787  12.390  0.00  0.00    +0.000 A 
ATOM      4  C   UNL     1      45.048   3.273  11.136  0.00  0.00    +0.000 A 
ATOM      5  C   UNL     1      45.123   4.080   9.999  0.00  0.00    +0.000 A 
ATOM      6  C   UNL     1      45.633   5.371  10.113  0.00  0.00    +0.000 A 
ATOM      7  C   UNL     1      46.008   5.871  11.364  0.00  0.00    +0.000 A 
BRANCH   5   8
ATOM      8  O   UNL     1      44.773   3.672   8.731  0.00  0.00    +0.000 OA
BRANCH   8   9
ATOM      9  C   UNL     1      45.676   2.964   7.969  0.00  0.00    +0.000 A 
ATOM     10  C   UNL     1      46.366   3.488   6.878  0.00  0.00    +0.000 A 
ATOM     11  C   UNL     1      47.201   2.645   6.169  0.00  0.00    +0.000 A 
ATOM     12  N   UNL     1      47.435   1.360   6.511  0.00  0.00    +0.000 NA
ATOM     13  C   UNL     1      46.811   0.903   7.617  0.00  0.00    +0.000 A 
ATOM     14  C   UNL     1      45.930   1.657   8.372  0.00  0.00    +0.000 A 
ENDBRANCH   8   9
ENDBRANCH   5   8
ENDBRANCH   1   2
BRANCH   1  15
ATOM     15  N   UNL     1      46.948   6.865  13.866  0.00  0.00    +0.000 N 
ATOM     16  C   UNL     1      48.269   7.010  13.556  0.00  0.00    +0.000 C 
ATOM     17  O   UNL     1      48.996   6.066  13.262  0.00  0.00    +0.000 OA
ATOM     18  H   UNL     1      46.403   7.674  14.140  0.00  0.00    +0.000 HD
BRANCH  16  19
ATOM     19  C   UNL     1      48.771   8.391  13.568  0.00  0.00    +0.000 A 
ATOM     20  C   UNL     1      48.347   9.278  14.549  0.00  0.00    +0.000 A 
ATOM     21  S   UNL     1      48.993  10.848  14.372  0.00  0.00    +0.000 S 
ATOM     22  C   UNL     1      49.827  10.407  12.956  0.00  0.00    +0.000 A 
ATOM     23  N   UNL     1      50.540  11.323  12.249  0.00  0.00    +0.000 NA
ATOM     24  C   UNL     1      51.078  10.863  11.167  0.00  0.00    +0.000 A 
ATOM     25  N   UNL     1      50.991   9.566  10.746  0.00  0.00    +0.000 N 
ATOM     26  C   UNL     1      50.393   8.582  11.497  0.00  0.00    +0.000 A 
ATOM     27  O   UNL     1      50.530   7.399  11.205  0.00  0.00    +0.000 OA
ATOM     28  C   UNL     1      49.672   9.063  12.661  0.00  0.00    +0.000 A 
ATOM     29  H   UNL     1      51.488   9.251   9.925  0.00  0.00    +0.000 HD
ENDBRANCH  16  19
ENDBRANCH   1  15
BRANCH   1  30
ATOM     30  C   UNL     1      47.137   4.524  14.616  0.00  0.00    +0.000 C 
BRANCH  30  31
ATOM     31  O   UNL     1      46.440   4.009  15.758  0.00  0.00    +0.000 OA
BRANCH  31  33
ATOM     32  C   UNL     1      48.505   4.795  16.648  0.00  0.00    +0.000 C 
ATOM     33  C   UNL     1      47.105   4.319  16.979  0.00  0.00    +0.000 C 
ENDBRANCH  31  33
ENDBRANCH  30  31
ENDBRANCH   1  30
TORSDOF 8
ENDMDL
MODEL 9
REMARK VINA RESULT:    -6.401      2.649      5.103
REMARK INTER + INTRA:         -10.650
REMARK INTER:                  -9.182
REMARK INTRA:                  -1.468
REMARK UNBOUND:                -1.255
REMARK  Name = 
REMARK  9 active torsions:
REMARK  status: ('A' for Active; 'I' for Inactive)
REMARK    1  A    between atoms: C_1  and  C_2
REMARK    2  A    between atoms: C_2  and  O_3
REMARK    3  A    between atoms: O_3  and  C_4
REMARK    4  A    between atoms: C_4  and  C_5
REMARK    5  A    between atoms: C_5  and  N_6
REMARK    6  A    between atoms: C_5  and  C_19
REMARK    7  A    between atoms: C_7  and  C_9
REMARK    8  A    between atoms: C_22  and  O_23
REMARK    9  A    between atoms: O_23  and  C_24
REMARK                            x       y       z     vdW  Elec       q    Type
REMARK                         _______ _______ _______ _____ _____    ______ ____
ROOT
ATOM      1  C   UNL     1      47.339   5.645  14.748  0.00  0.00    +0.000 C 
ENDROOT
BRANCH   1   2
ATOM      2  C   UNL     1      46.607   5.190  13.493  0.00  0.00    +0.000 A 
ATOM      3  C   UNL     1      46.379   6.128  12.475  0.00  0.00    +0.000 A 
ATOM      4  C   UNL     1      45.666   5.778  11.327  0.00  0.00    +0.000 A 
ATOM      5  C   UNL     1      45.231   4.465  11.139  0.00  0.00    +0.000 A 
ATOM      6  C   UNL     1      45.420   3.532  12.156  0.00  0.00    +0.000 A 
ATOM      7  C   UNL     1      46.094   3.895  13.327  0.00  0.00    +0.000 A 
BRANCH   5   8
ATOM      8  O   UNL     1      44.565   4.019  10.019  0.00  0.00    +0.000 OA
BRANCH   8   9
ATOM      9  C   UNL     1      45.250   3.314   9.054  0.00  0.00    +0.000 A 
ATOM     10  C   UNL     1      45.357   1.925   9.022  0.00  0.00    +0.000 A 
ATOM     11  C   UNL     1      46.125   1.353   8.025  0.00  0.00    +0.000 A 
ATOM     12  N   UNL     1      46.725   2.059   7.043  0.00  0.00    +0.000 NA
ATOM     13  C   UNL     1      46.541   3.396   7.057  0.00  0.00    +0.000 A 
ATOM     14  C   UNL     1      45.820   4.064   8.031  0.00  0.00    +0.000 A 
ENDBRANCH   8   9
ENDBRANCH   5   8
ENDBRANCH   1   2
BRANCH   1  15
ATOM     15  N   UNL     1      48.638   6.225  14.448  0.00  0.00    +0.000 N 
ATOM     16  C   UNL     1      49.131   7.344  15.053  0.00  0.00    +0.000 C 
ATOM     17  O   UNL     1      48.527   7.954  15.931  0.00  0.00    +0.000 OA
ATOM     18  H   UNL     1      49.162   5.783  13.701  0.00  0.00    +0.000 HD
BRANCH  16  19
ATOM     19  C   UNL     1      50.466   7.766  14.605  0.00  0.00    +0.000 A 
ATOM     20  C   UNL     1      51.544   7.710  15.477  0.00  0.00    +0.000 A 
ATOM     21  S   UNL     1      52.999   8.288  14.800  0.00  0.00    +0.000 S 
ATOM     22  C   UNL     1      52.228   8.674  13.332  0.00  0.00    +0.000 A 
ATOM     23  N   UNL     1      52.908   9.279  12.322  0.00  0.00    +0.000 NA
ATOM     24  C   UNL     1      52.187   9.561  11.287  0.00  0.00    +0.000 A 
ATOM     25  N   UNL     1      50.858   9.269  11.161  0.00  0.00    +0.000 N 
ATOM     26  C   UNL     1      50.168   8.542  12.102  0.00  0.00    +0.000 A 
ATOM     27  O   UNL     1      49.049   8.102  11.859  0.00  0.00    +0.000 OA
ATOM     28  C   UNL     1      50.896   8.301  13.334  0.00  0.00    +0.000 A 
ATOM     29  H   UNL     1      50.363   9.457  10.300  0.00  0.00    +0.000 HD
ENDBRANCH  16  19
ENDBRANCH   1  15
BRANCH   1  30
ATOM     30  C   UNL     1      47.488   4.464  15.735  0.00  0.00    +0.000 C 
BRANCH  30  31
ATOM     31  O   UNL     1      47.536   4.965  17.078  0.00  0.00    +0.000 OA
BRANCH  31  33
ATOM     32  C   UNL     1      48.708   2.898  17.249  0.00  0.00    +0.000 C 
ATOM     33  C   UNL     1      47.953   3.970  18.009  0.00  0.00    +0.000 C 
ENDBRANCH  31  33
ENDBRANCH  30  31
ENDBRANCH   1  30
TORSDOF 8
ENDMDL
