MODEL 1
REMARK VINA RESULT:    -8.869      0.000      0.000
REMARK INTER + INTRA:         -11.996
REMARK INTER:                 -11.462
REMARK INTRA:                  -0.535
REMARK UNBOUND:                -0.535
REMARK  Name = 
REMARK  5 active torsions:
REMARK  status: ('A' for Active; 'I' for Inactive)
REMARK    1  A    between atoms: C_2  and  C_4
REMARK    2  A    between atoms: C_7  and  N_8
REMARK    3  A    between atoms: N_8  and  C_9
REMARK    4  A    between atoms: C_9  and  C_10
REMARK    5  A    between atoms: C_14  and  C_15
REMARK                            x       y       z     vdW  Elec       q    Type
REMARK                         _______ _______ _______ _____ _____    ______ ____
ROOT
ATOM      1  C   UNL     1      43.886   4.508  11.304  0.00  0.00    +0.000 C 
ENDROOT
BRANCH   1   2
ATOM      2  C   UNL     1      45.090   5.119  11.973  0.00  0.00    +0.000 A 
ATOM      3  C   UNL     1      45.683   6.267  11.465  0.00  0.00    +0.000 A 
ATOM      4  N   UNL     1      46.764   6.861  12.012  0.00  0.00    +0.000 NA
ATOM      5  C   UNL     1      47.290   6.276  13.119  0.00  0.00    +0.000 A 
ATOM      6  C   UNL     1      46.784   5.131  13.739  0.00  0.00    +0.000 A 
ATOM      7  C   UNL     1      45.650   4.562  13.132  0.00  0.00    +0.000 A 
BRANCH   6   8
ATOM      8  C   UNL     1      47.426   4.563  14.939  0.00  0.00    +0.000 A 
ATOM      9  C   UNL     1      47.882   5.348  16.003  0.00  0.00    +0.000 A 
ATOM     10  C   UNL     1      48.455   4.734  17.117  0.00  0.00    +0.000 A 
ATOM     11  C   UNL     1      48.560   3.355  17.142  0.00  0.00    +0.000 A 
ATOM     12  F   UNL     1      49.101   2.735  18.196  0.00  0.00    +0.000 F 
ATOM     13  C   UNL     1      48.102   2.636  16.057  0.00  0.00    +0.000 A 
ATOM     14  N   UNL     1      47.546   3.208  14.958  0.00  0.00    +0.000 NA
ENDBRANCH   6   8
ENDBRANCH   1   2
BRANCH   1  15
ATOM     15  N   UNL     1      43.907   4.831   9.882  0.00  0.00    +0.000 N 
ATOM     16  H   UNL     1      44.130   5.809   9.717  0.00  0.00    +0.000 HD
BRANCH  15  20
ATOM     17  C   UNL     1      46.398   2.333   7.758  0.00  0.00    +0.000 A 
ATOM     18  C   UNL     1      46.400   3.697   7.523  0.00  0.00    +0.000 A 
ATOM     19  N   UNL     1      45.584   4.559   8.194  0.00  0.00    +0.000 NA
ATOM     20  C   UNL     1      44.753   4.017   9.110  0.00  0.00    +0.000 A 
ATOM     21  C   UNL     1      44.772   2.632   9.334  0.00  0.00    +0.000 A 
ATOM     22  N   UNL     1      45.573   1.754   8.672  0.00  0.00    +0.000 NA
BRANCH  17  24
ATOM     23  N   UNL     1      48.469   2.040   6.538  0.00  0.00    +0.000 N 
ATOM     24  C   UNL     1      47.329   1.446   7.007  0.00  0.00    +0.000 C 
ATOM     25  O   UNL     1      47.094   0.259   6.820  0.00  0.00    +0.000 OA
ATOM     26  H   UNL     1      49.139   1.493   6.017  0.00  0.00    +0.000 HD
ATOM     27  H   UNL     1      48.639   3.025   6.710  0.00  0.00    +0.000 HD
ENDBRANCH  17  24
ENDBRANCH  15  20
ENDBRANCH   1  15
TORSDOF 5
ENDMDL
MODEL 2
REMARK VINA RESULT:    -8.506      4.065      7.448
REMARK INTER + INTRA:         -11.527
REMARK INTER:                 -10.783
REMARK INTRA:                  -0.743
REMARK UNBOUND:                -0.535
REMARK  Name = 
REMARK  5 active torsions:
REMARK  status: ('A' for Active; 'I' for Inactive)
REMARK    1  A    between atoms: C_2  and  C_4
REMARK    2  A    between atoms: C_7  and  N_8
REMARK    3  A    between atoms: N_8  and  C_9
REMARK    4  A    between atoms: C_9  and  C_10
REMARK    5  A    between atoms: C_14  and  C_15
REMARK                            x       y       z     vdW  Elec       q    Type
REMARK                         _______ _______ _______ _____ _____    ______ ____
ROOT
ATOM      1  C   UNL     1      43.445   6.201  11.320  0.00  0.00    +0.000 C 
ENDROOT
BRANCH   1   2
ATOM      2  C   UNL     1      43.704   4.788  10.865  0.00  0.00    +0.000 A 
ATOM      3  C   UNL     1      43.099   3.712  11.501  0.00  0.00    +0.000 A 
ATOM      4  N   UNL     1      43.292   2.424  11.148  0.00  0.00    +0.000 NA
ATOM      5  C   UNL     1      44.139   2.193  10.112  0.00  0.00    +0.000 A 
ATOM      6  C   UNL     1      44.798   3.182   9.378  0.00  0.00    +0.000 A 
ATOM      7  C   UNL     1      44.551   4.506   9.783  0.00  0.00    +0.000 A 
BRANCH   6   8
ATOM      8  C   UNL     1      45.705   2.835   8.268  0.00  0.00    +0.000 A 
ATOM      9  C   UNL     1      46.304   1.578   8.138  0.00  0.00    +0.000 A 
ATOM     10  C   UNL     1      47.130   1.317   7.044  0.00  0.00    +0.000 A 
ATOM     11  C   UNL     1      47.338   2.315   6.109  0.00  0.00    +0.000 A 
ATOM     12  F   UNL     1      48.121   2.097   5.047  0.00  0.00    +0.000 F 
ATOM     13  C   UNL     1      46.728   3.538   6.299  0.00  0.00    +0.000 A 
ATOM     14  N   UNL     1      45.925   3.820   7.357  0.00  0.00    +0.000 NA
ENDBRANCH   6   8
ENDBRANCH   1   2
BRANCH   1  15
ATOM     15  N   UNL     1      43.801   6.329  12.728  0.00  0.00    +0.000 N 
ATOM     16  H   UNL     1      43.434   5.562  13.284  0.00  0.00    +0.000 HD
BRANCH  15  20
ATOM     17  C   UNL     1      47.844   6.860  13.300  0.00  0.00    +0.000 A 
ATOM     18  C   UNL     1      47.224   5.686  13.693  0.00  0.00    +0.000 A 
ATOM     19  N   UNL     1      45.887   5.473  13.535  0.00  0.00    +0.000 NA
ATOM     20  C   UNL     1      45.177   6.475  12.973  0.00  0.00    +0.000 A 
ATOM     21  C   UNL     1      45.827   7.653  12.578  0.00  0.00    +0.000 A 
ATOM     22  N   UNL     1      47.158   7.888  12.732  0.00  0.00    +0.000 NA
BRANCH  17  24
ATOM     23  N   UNL     1      50.037   7.215  12.335  0.00  0.00    +0.000 N 
ATOM     24  C   UNL     1      49.313   7.024  13.481  0.00  0.00    +0.000 C 
ATOM     25  O   UNL     1      49.844   6.989  14.584  0.00  0.00    +0.000 OA
ATOM     26  H   UNL     1      51.038   7.328  12.391  0.00  0.00    +0.000 HD
ATOM     27  H   UNL     1      49.570   7.241  11.435  0.00  0.00    +0.000 HD
ENDBRANCH  17  24
ENDBRANCH  15  20
ENDBRANCH   1  15
TORSDOF 5
ENDMDL
MODEL 3
REMARK VINA RESULT:    -8.467      2.359      3.177
REMARK INTER + INTRA:         -11.476
REMARK INTER:                 -10.761
REMARK INTRA:                  -0.715
REMARK UNBOUND:                -0.535
REMARK  Name = 
REMARK  5 active torsions:
REMARK  status: ('A' for Active; 'I' for Inactive)
REMARK    1  A    between atoms: C_2  and  C_4
REMARK    2  A    between atoms: C_7  and  N_8
REMARK    3  A    between atoms: N_8  and  C_9
REMARK    4  A    between atoms: C_9  and  C_10
REMARK    5  A    between atoms: C_14  and  C_15
REMARK                            x       y       z     vdW  Elec       q    Type
REMARK                         _______ _______ _______ _____ _____    ______ ____
ROOT
ATOM      1  C   UNL     1      44.253   5.713  10.756  0.00  0.00    +0.000 C 
ENDROOT
BRANCH   1   2
ATOM      2  C   UNL     1      45.239   5.448  11.864  0.00  0.00    +0.000 A 
ATOM      3  C   UNL     1      45.009   4.446  12.799  0.00  0.00    +0.000 A 
ATOM      4  N   UNL     1      45.847   4.160  13.817  0.00  0.00    +0.000 NA
ATOM      5  C   UNL     1      46.970   4.917  13.917  0.00  0.00    +0.000 A 
ATOM      6  C   UNL     1      47.328   5.942  13.037  0.00  0.00    +0.000 A 
ATOM      7  C   UNL     1      46.423   6.188  11.990  0.00  0.00    +0.000 A 
BRANCH   6   8
ATOM      8  C   UNL     1      48.570   6.715  13.228  0.00  0.00    +0.000 A 
ATOM      9  C   UNL     1      49.205   7.406  12.191  0.00  0.00    +0.000 A 
ATOM     10  C   UNL     1      50.363   8.138  12.458  0.00  0.00    +0.000 A 
ATOM     11  C   UNL     1      50.858   8.161  13.749  0.00  0.00    +0.000 A 
ATOM     12  F   UNL     1      51.964   8.856  14.038  0.00  0.00    +0.000 F 
ATOM     13  C   UNL     1      50.193   7.450  14.727  0.00  0.00    +0.000 A 
ATOM     14  N   UNL     1      49.068   6.726  14.494  0.00  0.00    +0.000 NA
ENDBRANCH   6   8
ENDBRANCH   1   2
BRANCH   1  15
ATOM     15  N   UNL     1      43.774   4.445  10.219  0.00  0.00    +0.000 N 
ATOM     16  H   UNL     1      42.865   4.538   9.776  0.00  0.00    +0.000 HD
BRANCH  15  20
ATOM     17  C   UNL     1      46.429   2.467   7.769  0.00  0.00    +0.000 A 
ATOM     18  C   UNL     1      46.210   3.826   7.621  0.00  0.00    +0.000 A 
ATOM     19  N   UNL     1      45.332   4.518   8.401  0.00  0.00    +0.000 NA
ATOM     20  C   UNL     1      44.667   3.809   9.339  0.00  0.00    +0.000 A 
ATOM     21  C   UNL     1      44.908   2.434   9.473  0.00  0.00    +0.000 A 
ATOM     22  N   UNL     1      45.775   1.724   8.703  0.00  0.00    +0.000 NA
BRANCH  17  24
ATOM     23  N   UNL     1      48.485   2.526   6.490  0.00  0.00    +0.000 N 
ATOM     24  C   UNL     1      47.418   1.772   6.899  0.00  0.00    +0.000 C 
ATOM     25  O   UNL     1      47.288   0.600   6.568  0.00  0.00    +0.000 OA
ATOM     26  H   UNL     1      49.187   2.113   5.895  0.00  0.00    +0.000 HD
ATOM     27  H   UNL     1      48.567   3.493   6.782  0.00  0.00    +0.000 HD
ENDBRANCH  17  24
ENDBRANCH  15  20
ENDBRANCH   1  15
TORSDOF 5
ENDMDL
MODEL 4
REMARK VINA RESULT:    -8.461      3.951      7.251
REMARK INTER + INTRA:         -11.469
REMARK INTER:                 -10.658
REMARK INTRA:                  -0.811
REMARK UNBOUND:                -0.535
REMARK  Name = 
REMARK  5 active torsions:
REMARK  status: ('A' for Active; 'I' for Inactive)
REMARK    1  A    between atoms: C_2  and  C_4
REMARK    2  A    between atoms: C_7  and  N_8
REMARK    3  A    between atoms: N_8  and  C_9
REMARK    4  A    between atoms: C_9  and  C_10
REMARK    5  A    between atoms: C_14  and  C_15
REMARK                            x       y       z     vdW  Elec       q    Type
REMARK                         _______ _______ _______ _____ _____    ______ ____
ROOT
ATOM      1  C   UNL     1      43.297   6.142  11.457  0.00  0.00    +0.000 C 
ENDROOT
BRANCH   1   2
ATOM      2  C   UNL     1      43.605   4.740  10.999  0.00  0.00    +0.000 A 
ATOM      3  C   UNL     1      43.062   3.641  11.652  0.00  0.00    +0.000 A 
ATOM      4  N   UNL     1      43.302   2.361  11.298  0.00  0.00    +0.000 NA
ATOM      5  C   UNL     1      44.133   2.163  10.243  0.00  0.00    +0.000 A 
ATOM      6  C   UNL     1      44.732   3.177   9.491  0.00  0.00    +0.000 A 
ATOM      7  C   UNL     1      44.438   4.491   9.899  0.00  0.00    +0.000 A 
BRANCH   6   8
ATOM      8  C   UNL     1      45.626   2.865   8.360  0.00  0.00    +0.000 A 
ATOM      9  C   UNL     1      45.948   3.793   7.365  0.00  0.00    +0.000 A 
ATOM     10  C   UNL     1      46.825   3.430   6.341  0.00  0.00    +0.000 A 
ATOM     11  C   UNL     1      47.356   2.153   6.336  0.00  0.00    +0.000 A 
ATOM     12  F   UNL     1      48.202   1.775   5.371  0.00  0.00    +0.000 F 
ATOM     13  C   UNL     1      46.991   1.279   7.340  0.00  0.00    +0.000 A 
ATOM     14  N   UNL     1      46.137   1.605   8.343  0.00  0.00    +0.000 NA
ENDBRANCH   6   8
ENDBRANCH   1   2
BRANCH   1  15
ATOM     15  N   UNL     1      43.866   6.355  12.783  0.00  0.00    +0.000 N 
ATOM     16  H   UNL     1      43.632   5.600  13.422  0.00  0.00    +0.000 HD
BRANCH  15  20
ATOM     17  C   UNL     1      47.917   7.084  12.667  0.00  0.00    +0.000 A 
ATOM     18  C   UNL     1      47.424   5.927  13.247  0.00  0.00    +0.000 A 
ATOM     19  N   UNL     1      46.092   5.651  13.318  0.00  0.00    +0.000 NA
ATOM     20  C   UNL     1      45.254   6.573  12.796  0.00  0.00    +0.000 A 
ATOM     21  C   UNL     1      45.776   7.735  12.210  0.00  0.00    +0.000 A 
ATOM     22  N   UNL     1      47.101   8.033  12.133  0.00  0.00    +0.000 NA
BRANCH  17  24
ATOM     23  N   UNL     1      50.044   7.316  13.802  0.00  0.00    +0.000 N 
ATOM     24  C   UNL     1      49.386   7.318  12.602  0.00  0.00    +0.000 C 
ATOM     25  O   UNL     1      49.972   7.501  11.542  0.00  0.00    +0.000 OA
ATOM     26  H   UNL     1      51.041   7.473  13.824  0.00  0.00    +0.000 HD
ATOM     27  H   UNL     1      49.532   7.160  14.663  0.00  0.00    +0.000 HD
ENDBRANCH  17  24
ENDBRANCH  15  20
ENDBRANCH   1  15
TORSDOF 5
ENDMDL
MODEL 5
REMARK VINA RESULT:    -8.029      3.672      7.682
REMARK INTER + INTRA:         -10.910
REMARK INTER:                 -10.593
REMARK INTRA:                  -0.317
REMARK UNBOUND:                -0.535
REMARK  Name = 
REMARK  5 active torsions:
REMARK  status: ('A' for Active; 'I' for Inactive)
REMARK    1  A    between atoms: C_2  and  C_4
REMARK    2  A    between atoms: C_7  and  N_8
REMARK    3  A    between atoms: N_8  and  C_9
REMARK    4  A    between atoms: C_9  and  C_10
REMARK    5  A    between atoms: C_14  and  C_15
REMARK                            x       y       z     vdW  Elec       q    Type
REMARK                         _______ _______ _______ _____ _____    ______ ____
ROOT
ATOM      1  C   UNL     1      45.992   7.226  12.465  0.00  0.00    +0.000 C 
ENDROOT
BRANCH   1   2
ATOM      2  C   UNL     1      45.189   6.306  11.582  0.00  0.00    +0.000 A 
ATOM      3  C   UNL     1      43.805   6.250  11.680  0.00  0.00    +0.000 A 
ATOM      4  N   UNL     1      43.028   5.446  10.924  0.00  0.00    +0.000 NA
ATOM      5  C   UNL     1      43.664   4.648  10.028  0.00  0.00    +0.000 A 
ATOM      6  C   UNL     1      45.045   4.617   9.817  0.00  0.00    +0.000 A 
ATOM      7  C   UNL     1      45.802   5.484  10.625  0.00  0.00    +0.000 A 
BRANCH   6   8
ATOM      8  C   UNL     1      45.647   3.711   8.821  0.00  0.00    +0.000 A 
ATOM      9  C   UNL     1      45.666   2.321   8.969  0.00  0.00    +0.000 A 
ATOM     10  C   UNL     1      46.231   1.529   7.968  0.00  0.00    +0.000 A 
ATOM     11  C   UNL     1      46.762   2.142   6.848  0.00  0.00    +0.000 A 
ATOM     12  F   UNL     1      47.308   1.412   5.870  0.00  0.00    +0.000 F 
ATOM     13  C   UNL     1      46.723   3.519   6.766  0.00  0.00    +0.000 A 
ATOM     14  N   UNL     1      46.185   4.313   7.727  0.00  0.00    +0.000 NA
ENDBRANCH   6   8
ENDBRANCH   1   2
BRANCH   1  15
ATOM     15  N   UNL     1      47.314   6.653  12.687  0.00  0.00    +0.000 N 
ATOM     16  H   UNL     1      48.043   7.360  12.670  0.00  0.00    +0.000 HD
BRANCH  15  20
ATOM     17  C   UNL     1      47.478   4.354  16.099  0.00  0.00    +0.000 A 
ATOM     18  C   UNL     1      48.286   5.470  15.961  0.00  0.00    +0.000 A 
ATOM     19  N   UNL     1      48.274   6.252  14.844  0.00  0.00    +0.000 NA
ATOM     20  C   UNL     1      47.429   5.883  13.857  0.00  0.00    +0.000 A 
ATOM     21  C   UNL     1      46.617   4.751  14.022  0.00  0.00    +0.000 A 
ATOM     22  N   UNL     1      46.618   3.955  15.124  0.00  0.00    +0.000 NA
BRANCH  17  24
ATOM     23  N   UNL     1      48.569   3.822  18.195  0.00  0.00    +0.000 N 
ATOM     24  C   UNL     1      47.523   3.553  17.354  0.00  0.00    +0.000 C 
ATOM     25  O   UNL     1      46.679   2.706  17.619  0.00  0.00    +0.000 OA
ATOM     26  H   UNL     1      48.657   3.308  19.060  0.00  0.00    +0.000 HD
ATOM     27  H   UNL     1      49.251   4.530  17.950  0.00  0.00    +0.000 HD
ENDBRANCH  17  24
ENDBRANCH  15  20
ENDBRANCH   1  15
TORSDOF 5
ENDMDL
MODEL 6
REMARK VINA RESULT:    -7.889      3.912      8.034
REMARK INTER + INTRA:         -10.730
REMARK INTER:                 -10.155
REMARK INTRA:                  -0.575
REMARK UNBOUND:                -0.535
REMARK  Name = 
REMARK  5 active torsions:
REMARK  status: ('A' for Active; 'I' for Inactive)
REMARK    1  A    between atoms: C_2  and  C_4
REMARK    2  A    between atoms: C_7  and  N_8
REMARK    3  A    between atoms: N_8  and  C_9
REMARK    4  A    between atoms: C_9  and  C_10
REMARK    5  A    between atoms: C_14  and  C_15
REMARK                            x       y       z     vdW  Elec       q    Type
REMARK                         _______ _______ _______ _____ _____    ______ ____
ROOT
ATOM      1  C   UNL     1      45.012   5.809  12.836  0.00  0.00    +0.000 C 
ENDROOT
BRANCH   1   2
ATOM      2  C   UNL     1      44.618   4.664  11.939  0.00  0.00    +0.000 A 
ATOM      3  C   UNL     1      43.532   3.855  12.249  0.00  0.00    +0.000 A 
ATOM      4  N   UNL     1      43.131   2.812  11.494  0.00  0.00    +0.000 NA
ATOM      5  C   UNL     1      43.854   2.553  10.374  0.00  0.00    +0.000 A 
ATOM      6  C   UNL     1      44.955   3.294   9.939  0.00  0.00    +0.000 A 
ATOM      7  C   UNL     1      45.322   4.376  10.760  0.00  0.00    +0.000 A 
BRANCH   6   8
ATOM      8  C   UNL     1      45.683   2.934   8.708  0.00  0.00    +0.000 A 
ATOM      9  C   UNL     1      45.970   3.855   7.696  0.00  0.00    +0.000 A 
ATOM     10  C   UNL     1      46.688   3.442   6.572  0.00  0.00    +0.000 A 
ATOM     11  C   UNL     1      47.099   2.124   6.486  0.00  0.00    +0.000 A 
ATOM     12  F   UNL     1      47.791   1.698   5.424  0.00  0.00    +0.000 F 
ATOM     13  C   UNL     1      46.774   1.261   7.512  0.00  0.00    +0.000 A 
ATOM     14  N   UNL     1      46.073   1.634   8.613  0.00  0.00    +0.000 NA
ENDBRANCH   6   8
ENDBRANCH   1   2
BRANCH   1  15
ATOM     15  N   UNL     1      46.466   5.888  12.911  0.00  0.00    +0.000 N 
ATOM     16  H   UNL     1      46.809   6.816  12.683  0.00  0.00    +0.000 HD
BRANCH  15  20
ATOM     17  C   UNL     1      48.224   4.719  16.446  0.00  0.00    +0.000 A 
ATOM     18  C   UNL     1      47.124   4.042  15.948  0.00  0.00    +0.000 A 
ATOM     19  N   UNL     1      46.503   4.402  14.789  0.00  0.00    +0.000 NA
ATOM     20  C   UNL     1      47.011   5.470  14.137  0.00  0.00    +0.000 A 
ATOM     21  C   UNL     1      48.130   6.137  14.658  0.00  0.00    +0.000 A 
ATOM     22  N   UNL     1      48.760   5.798  15.815  0.00  0.00    +0.000 NA
BRANCH  17  24
ATOM     23  N   UNL     1      48.044   3.662  18.618  0.00  0.00    +0.000 N 
ATOM     24  C   UNL     1      48.871   4.263  17.708  0.00  0.00    +0.000 C 
ATOM     25  O   UNL     1      50.067   4.415  17.922  0.00  0.00    +0.000 OA
ATOM     26  H   UNL     1      48.421   3.335  19.495  0.00  0.00    +0.000 HD
ATOM     27  H   UNL     1      47.057   3.548  18.413  0.00  0.00    +0.000 HD
ENDBRANCH  17  24
ENDBRANCH  15  20
ENDBRANCH   1  15
TORSDOF 5
ENDMDL
MODEL 7
REMARK VINA RESULT:    -7.243      4.399      7.284
REMARK INTER + INTRA:          -9.895
REMARK INTER:                  -9.178
REMARK INTRA:                  -0.717
REMARK UNBOUND:                -0.535
REMARK  Name = 
REMARK  5 active torsions:
REMARK  status: ('A' for Active; 'I' for Inactive)
REMARK    1  A    between atoms: C_2  and  C_4
REMARK    2  A    between atoms: C_7  and  N_8
REMARK    3  A    between atoms: N_8  and  C_9
REMARK    4  A    between atoms: C_9  and  C_10
REMARK    5  A    between atoms: C_14  and  C_15
REMARK                            x       y       z     vdW  Elec       q    Type
REMARK                         _______ _______ _______ _____ _____    ______ ____
ROOT
ATOM      1  C   UNL     1      44.824   7.657  11.908  0.00  0.00    +0.000 C 
ENDROOT
BRANCH   1   2
ATOM      2  C   UNL     1      44.419   6.275  11.464  0.00  0.00    +0.000 A 
ATOM      3  C   UNL     1      43.322   5.637  12.029  0.00  0.00    +0.000 A 
ATOM      4  N   UNL     1      42.910   4.400  11.682  0.00  0.00    +0.000 NA
ATOM      5  C   UNL     1      43.632   3.759  10.728  0.00  0.00    +0.000 A 
ATOM      6  C   UNL     1      44.744   4.291  10.069  0.00  0.00    +0.000 A 
ATOM      7  C   UNL     1      45.121   5.587  10.464  0.00  0.00    +0.000 A 
BRANCH   6   8
ATOM      8  C   UNL     1      45.470   3.516   9.045  0.00  0.00    +0.000 A 
ATOM      9  C   UNL     1      45.567   2.122   9.072  0.00  0.00    +0.000 A 
ATOM     10  C   UNL     1      46.249   1.458   8.050  0.00  0.00    +0.000 A 
ATOM     11  C   UNL     1      46.817   2.202   7.031  0.00  0.00    +0.000 A 
ATOM     12  F   UNL     1      47.474   1.597   6.036  0.00  0.00    +0.000 F 
ATOM     13  C   UNL     1      46.696   3.576   7.067  0.00  0.00    +0.000 A 
ATOM     14  N   UNL     1      46.043   4.246   8.051  0.00  0.00    +0.000 NA
ENDBRANCH   6   8
ENDBRANCH   1   2
BRANCH   1  15
ATOM     15  N   UNL     1      45.705   7.554  13.066  0.00  0.00    +0.000 N 
ATOM     16  H   UNL     1      45.550   6.696  13.587  0.00  0.00    +0.000 HD
BRANCH  15  20
ATOM     17  C   UNL     1      49.669   8.044  12.065  0.00  0.00    +0.000 A 
ATOM     18  C   UNL     1      49.247   6.912  12.743  0.00  0.00    +0.000 A 
ATOM     19  N   UNL     1      47.948   6.715  13.104  0.00  0.00    +0.000 NA
ATOM     20  C   UNL     1      47.073   7.689  12.774  0.00  0.00    +0.000 A 
ATOM     21  C   UNL     1      47.523   8.825  12.085  0.00  0.00    +0.000 A 
ATOM     22  N   UNL     1      48.815   9.044  11.720  0.00  0.00    +0.000 NA
BRANCH  17  24
ATOM     23  N   UNL     1      51.591   7.232  10.835  0.00  0.00    +0.000 N 
ATOM     24  C   UNL     1      51.100   8.191  11.679  0.00  0.00    +0.000 C 
ATOM     25  O   UNL     1      51.797   9.111  12.089  0.00  0.00    +0.000 OA
ATOM     26  H   UNL     1      52.555   7.273  10.540  0.00  0.00    +0.000 HD
ATOM     27  H   UNL     1      50.990   6.483  10.511  0.00  0.00    +0.000 HD
ENDBRANCH  17  24
ENDBRANCH  15  20
ENDBRANCH   1  15
TORSDOF 5
ENDMDL
MODEL 8
REMARK VINA RESULT:    -6.509      4.215      8.190
REMARK INTER + INTRA:          -8.946
REMARK INTER:                  -8.333
REMARK INTRA:                  -0.614
REMARK UNBOUND:                -0.535
REMARK  Name = 
REMARK  5 active torsions:
REMARK  status: ('A' for Active; 'I' for Inactive)
REMARK    1  A    between atoms: C_2  and  C_4
REMARK    2  A    between atoms: C_7  and  N_8
REMARK    3  A    between atoms: N_8  and  C_9
REMARK    4  A    between atoms: C_9  and  C_10
REMARK    5  A    between atoms: C_14  and  C_15
REMARK                            x       y       z     vdW  Elec       q    Type
REMARK                         _______ _______ _______ _____ _____    ______ ____
ROOT
ATOM      1  C   UNL     1      48.069   7.996  13.568  0.00  0.00    +0.000 C 
ENDROOT
BRANCH   1   2
ATOM      2  C   UNL     1      46.863   7.753  12.699  0.00  0.00    +0.000 A 
ATOM      3  C   UNL     1      45.894   8.734  12.532  0.00  0.00    +0.000 A 
ATOM      4  N   UNL     1      44.788   8.579  11.774  0.00  0.00    +0.000 NA
ATOM      5  C   UNL     1      44.633   7.380  11.155  0.00  0.00    +0.000 A 
ATOM      6  C   UNL     1      45.537   6.316  11.226  0.00  0.00    +0.000 A 
ATOM      7  C   UNL     1      46.676   6.539  12.022  0.00  0.00    +0.000 A 
BRANCH   6   8
ATOM      8  C   UNL     1      45.282   5.047  10.521  0.00  0.00    +0.000 A 
ATOM      9  C   UNL     1      45.607   4.843   9.177  0.00  0.00    +0.000 A 
ATOM     10  C   UNL     1      45.359   3.602   8.588  0.00  0.00    +0.000 A 
ATOM     11  C   UNL     1      44.791   2.599   9.352  0.00  0.00    +0.000 A 
ATOM     12  F   UNL     1      44.544   1.397   8.819  0.00  0.00    +0.000 F 
ATOM     13  C   UNL     1      44.482   2.865  10.671  0.00  0.00    +0.000 A 
ATOM     14  N   UNL     1      44.708   4.064  11.267  0.00  0.00    +0.000 NA
ENDBRANCH   6   8
ENDBRANCH   1   2
BRANCH   1  15
ATOM     15  N   UNL     1      48.701   6.721  13.887  0.00  0.00    +0.000 N 
ATOM     16  H   UNL     1      49.690   6.717  13.652  0.00  0.00    +0.000 HD
BRANCH  15  20
ATOM     17  C   UNL     1      48.352   5.572  17.826  0.00  0.00    +0.000 A 
ATOM     18  C   UNL     1      47.853   4.774  16.811  0.00  0.00    +0.000 A 
ATOM     19  N   UNL     1      47.936   5.120  15.495  0.00  0.00    +0.000 NA
ATOM     20  C   UNL     1      48.530   6.300  15.217  0.00  0.00    +0.000 A 
ATOM     21  C   UNL     1      49.032   7.091  16.261  0.00  0.00    +0.000 A 
ATOM     22  N   UNL     1      48.955   6.766  17.580  0.00  0.00    +0.000 NA
BRANCH  17  24
ATOM     23  N   UNL     1      47.129   5.533  19.915  0.00  0.00    +0.000 N 
ATOM     24  C   UNL     1      48.250   5.127  19.243  0.00  0.00    +0.000 C 
ATOM     25  O   UNL     1      49.112   4.441  19.777  0.00  0.00    +0.000 OA
ATOM     26  H   UNL     1      47.003   5.267  20.881  0.00  0.00    +0.000 HD
ATOM     27  H   UNL     1      46.430   6.099  19.447  0.00  0.00    +0.000 HD
ENDBRANCH  17  24
ENDBRANCH  15  20
ENDBRANCH   1  15
TORSDOF 5
ENDMDL
MODEL 9
REMARK VINA RESULT:    -6.437      4.275      7.923
REMARK INTER + INTRA:          -8.853
REMARK INTER:                  -8.253
REMARK INTRA:                  -0.600
REMARK UNBOUND:                -0.535
REMARK  Name = 
REMARK  5 active torsions:
REMARK  status: ('A' for Active; 'I' for Inactive)
REMARK    1  A    between atoms: C_2  and  C_4
REMARK    2  A    between atoms: C_7  and  N_8
REMARK    3  A    between atoms: N_8  and  C_9
REMARK    4  A    between atoms: C_9  and  C_10
REMARK    5  A    between atoms: C_14  and  C_15
REMARK                            x       y       z     vdW  Elec       q    Type
REMARK                         _______ _______ _______ _____ _____    ______ ____
ROOT
ATOM      1  C   UNL     1      48.936   7.050  15.600  0.00  0.00    +0.000 C 
ENDROOT
BRANCH   1   2
ATOM      2  C   UNL     1      48.092   7.277  14.373  0.00  0.00    +0.000 A 
ATOM      3  C   UNL     1      47.947   8.548  13.831  0.00  0.00    +0.000 A 
ATOM      4  N   UNL     1      47.203   8.820  12.739  0.00  0.00    +0.000 NA
ATOM      5  C   UNL     1      46.562   7.773  12.158  0.00  0.00    +0.000 A 
ATOM      6  C   UNL     1      46.636   6.446  12.590  0.00  0.00    +0.000 A 
ATOM      7  C   UNL     1      47.434   6.220  13.726  0.00  0.00    +0.000 A 
BRANCH   6   8
ATOM      8  C   UNL     1      45.899   5.374  11.896  0.00  0.00    +0.000 A 
ATOM      9  C   UNL     1      45.497   5.467  10.560  0.00  0.00    +0.000 A 
ATOM     10  C   UNL     1      44.827   4.396   9.965  0.00  0.00    +0.000 A 
ATOM     11  C   UNL     1      44.574   3.264  10.717  0.00  0.00    +0.000 A 
ATOM     12  F   UNL     1      43.937   2.219  10.177  0.00  0.00    +0.000 F 
ATOM     13  C   UNL     1      44.986   3.237  12.034  0.00  0.00    +0.000 A 
ATOM     14  N   UNL     1      45.634   4.265  12.639  0.00  0.00    +0.000 NA
ENDBRANCH   6   8
ENDBRANCH   1   2
BRANCH   1  15
ATOM     15  N   UNL     1      48.308   6.033  16.437  0.00  0.00    +0.000 N 
ATOM     16  H   UNL     1      47.465   5.659  16.013  0.00  0.00    +0.000 HD
BRANCH  15  20
ATOM     17  C   UNL     1      50.936   3.035  17.468  0.00  0.00    +0.000 A 
ATOM     18  C   UNL     1      49.629   2.739  17.121  0.00  0.00    +0.000 A 
ATOM     19  N   UNL     1      48.722   3.700  16.785  0.00  0.00    +0.000 NA
ATOM     20  C   UNL     1      49.158   4.978  16.811  0.00  0.00    +0.000 A 
ATOM     21  C   UNL     1      50.488   5.253  17.162  0.00  0.00    +0.000 A 
ATOM     22  N   UNL     1      51.406   4.310  17.506  0.00  0.00    +0.000 NA
BRANCH  17  24
ATOM     23  N   UNL     1      51.374   0.668  17.740  0.00  0.00    +0.000 N 
ATOM     24  C   UNL     1      51.884   1.937  17.804  0.00  0.00    +0.000 C 
ATOM     25  O   UNL     1      53.048   2.151  18.120  0.00  0.00    +0.000 OA
ATOM     26  H   UNL     1      51.966  -0.119  17.961  0.00  0.00    +0.000 HD
ATOM     27  H   UNL     1      50.407   0.521  17.474  0.00  0.00    +0.000 HD
ENDBRANCH  17  24
ENDBRANCH  15  20
ENDBRANCH   1  15
TORSDOF 5
ENDMDL
