MODEL 1
REMARK VINA RESULT:    -8.548      0.000      0.000
REMARK INTER + INTRA:         -12.020
REMARK INTER:                 -11.546
REMARK INTRA:                  -0.474
REMARK UNBOUND:                -0.474
REMARK  Name = 
REMARK  6 active torsions:
REMARK  status: ('A' for Active; 'I' for Inactive)
REMARK    1  A    between atoms: C_2  and  C_25
REMARK    2  A    between atoms: N_3  and  C_4
REMARK    3  A    between atoms: C_4  and  C_5
REMARK    4  A    between atoms: C_8  and  C_9
REMARK    5  A    between atoms: C_9  and  N_10
REMARK    6  A    between atoms: C_11  and  C_13
REMARK                            x       y       z     vdW  Elec       q    Type
REMARK                         _______ _______ _______ _____ _____    ______ ____
ROOT
ATOM      1  C   UNL     1      43.550   4.579  11.982  0.00  0.00    +0.000 C 
ATOM      2  C   UNL     1      44.335   3.339  12.445  0.00  0.00    +0.000 C 
ATOM      3  C   UNL     1      45.848   3.564  12.446  0.00  0.00    +0.000 C 
ATOM      4  C   UNL     1      46.271   4.803  13.254  0.00  0.00    +0.000 C 
ATOM      5  C   UNL     1      45.502   6.031  12.742  0.00  0.00    +0.000 C 
ATOM      6  C   UNL     1      43.986   5.821  12.778  0.00  0.00    +0.000 C 
ENDROOT
BRANCH   1   7
ATOM      7  C   UNL     1      43.698   4.843  10.471  0.00  0.00    +0.000 C 
BRANCH   7  10
ATOM      8  O   UNL     1      45.656   5.162   8.498  0.00  0.00    +0.000 OA
ATOM      9  C   UNL     1      45.341   4.017   8.819  0.00  0.00    +0.000 C 
ATOM     10  N   UNL     1      44.382   3.774   9.778  0.00  0.00    +0.000 N 
ATOM     11  H   UNL     1      44.135   2.815   9.988  0.00  0.00    +0.000 HD
BRANCH   9  12
ATOM     12  C   UNL     1      45.957   2.850   8.229  0.00  0.00    +0.000 A 
ATOM     13  C   UNL     1      45.747   1.533   8.597  0.00  0.00    +0.000 A 
ATOM     14  N   UNL     1      46.461   0.584   7.890  0.00  0.00    +0.000 NA
ATOM     15  C   UNL     1      47.202   1.191   6.989  0.00  0.00    +0.000 A 
ATOM     16  S   UNL     1      47.085   2.901   6.939  0.00  0.00    +0.000 S 
ENDBRANCH   9  12
ENDBRANCH   7  10
ENDBRANCH   1   7
BRANCH   4  17
ATOM     17  C   UNL     1      46.074   4.623  14.772  0.00  0.00    +0.000 C 
BRANCH  17  18
ATOM     18  N   UNL     1      47.324   4.689  15.499  0.00  0.00    +0.000 N 
ATOM     19  C   UNL     1      47.484   4.130  16.742  0.00  0.00    +0.000 C 
ATOM     20  O   UNL     1      46.576   3.534  17.313  0.00  0.00    +0.000 OA
ATOM     21  H   UNL     1      48.053   5.289  15.124  0.00  0.00    +0.000 HD
BRANCH  19  22
ATOM     22  C   UNL     1      48.821   4.232  17.337  0.00  0.00    +0.000 A 
ATOM     23  C   UNL     1      49.189   5.406  17.982  0.00  0.00    +0.000 A 
ATOM     24  S   UNL     1      50.775   5.378  18.606  0.00  0.00    +0.000 S 
ATOM     25  C   UNL     1      51.042   3.810  18.003  0.00  0.00    +0.000 A 
ATOM     26  N   UNL     1      52.247   3.199  18.159  0.00  0.00    +0.000 NA
ATOM     27  C   UNL     1      52.325   2.029  17.624  0.00  0.00    +0.000 A 
ATOM     28  N   UNL     1      51.301   1.403  16.961  0.00  0.00    +0.000 N 
ATOM     29  C   UNL     1      50.044   1.949  16.854  0.00  0.00    +0.000 A 
ATOM     30  O   UNL     1      49.111   1.302  16.387  0.00  0.00    +0.000 OA
ATOM     31  C   UNL     1      49.920   3.294  17.376  0.00  0.00    +0.000 A 
ATOM     32  H   UNL     1      51.416   0.468  16.602  0.00  0.00    +0.000 HD
ENDBRANCH  19  22
ENDBRANCH  17  18
ENDBRANCH   4  17
TORSDOF 6
ENDMDL
MODEL 2
REMARK VINA RESULT:    -7.772      2.259      2.754
REMARK INTER + INTRA:         -10.972
REMARK INTER:                 -10.891
REMARK INTRA:                  -0.082
REMARK UNBOUND:                -0.474
REMARK  Name = 
REMARK  6 active torsions:
REMARK  status: ('A' for Active; 'I' for Inactive)
REMARK    1  A    between atoms: C_2  and  C_25
REMARK    2  A    between atoms: N_3  and  C_4
REMARK    3  A    between atoms: C_4  and  C_5
REMARK    4  A    between atoms: C_8  and  C_9
REMARK    5  A    between atoms: C_9  and  N_10
REMARK    6  A    between atoms: C_11  and  C_13
REMARK                            x       y       z     vdW  Elec       q    Type
REMARK                         _______ _______ _______ _____ _____    ______ ____
ROOT
ATOM      1  C   UNL     1      43.543   4.566  11.613  0.00  0.00    +0.000 C 
ATOM      2  C   UNL     1      44.293   4.375  12.943  0.00  0.00    +0.000 C 
ATOM      3  C   UNL     1      45.806   4.254  12.755  0.00  0.00    +0.000 C 
ATOM      4  C   UNL     1      46.410   5.424  11.959  0.00  0.00    +0.000 C 
ATOM      5  C   UNL     1      45.668   5.564  10.620  0.00  0.00    +0.000 C 
ATOM      6  C   UNL     1      44.157   5.726  10.809  0.00  0.00    +0.000 C 
ENDROOT
BRANCH   1   7
ATOM      7  C   UNL     1      43.520   3.285  10.757  0.00  0.00    +0.000 C 
BRANCH   7  10
ATOM      8  O   UNL     1      44.149   1.094   9.135  0.00  0.00    +0.000 OA
ATOM      9  C   UNL     1      44.865   2.091   9.061  0.00  0.00    +0.000 C 
ATOM     10  N   UNL     1      44.627   3.210   9.830  0.00  0.00    +0.000 N 
ATOM     11  H   UNL     1      45.262   3.995   9.756  0.00  0.00    +0.000 HD
BRANCH   9  12
ATOM     12  C   UNL     1      45.995   2.169   8.162  0.00  0.00    +0.000 A 
ATOM     13  C   UNL     1      46.810   1.122   7.770  0.00  0.00    +0.000 A 
ATOM     14  N   UNL     1      47.839   1.445   6.907  0.00  0.00    +0.000 NA
ATOM     15  C   UNL     1      47.791   2.733   6.647  0.00  0.00    +0.000 A 
ATOM     16  S   UNL     1      46.532   3.612   7.409  0.00  0.00    +0.000 S 
ENDBRANCH   9  12
ENDBRANCH   7  10
ENDBRANCH   1   7
BRANCH   4  17
ATOM     17  C   UNL     1      46.390   6.752  12.741  0.00  0.00    +0.000 C 
BRANCH  17  18
ATOM     18  N   UNL     1      46.947   6.614  14.069  0.00  0.00    +0.000 N 
ATOM     19  C   UNL     1      48.297   6.538  14.299  0.00  0.00    +0.000 C 
ATOM     20  O   UNL     1      49.120   6.588  13.389  0.00  0.00    +0.000 OA
ATOM     21  H   UNL     1      46.300   6.430  14.831  0.00  0.00    +0.000 HD
BRANCH  19  22
ATOM     22  C   UNL     1      48.718   6.450  15.702  0.00  0.00    +0.000 A 
ATOM     23  C   UNL     1      49.570   7.419  16.216  0.00  0.00    +0.000 A 
ATOM     24  S   UNL     1      49.983   7.173  17.851  0.00  0.00    +0.000 S 
ATOM     25  C   UNL     1      49.070   5.739  17.920  0.00  0.00    +0.000 A 
ATOM     26  N   UNL     1      49.034   4.990  19.055  0.00  0.00    +0.000 NA
ATOM     27  C   UNL     1      48.333   3.912  18.960  0.00  0.00    +0.000 A 
ATOM     28  N   UNL     1      47.650   3.520  17.838  0.00  0.00    +0.000 N 
ATOM     29  C   UNL     1      47.592   4.288  16.700  0.00  0.00    +0.000 A 
ATOM     30  O   UNL     1      46.852   3.984  15.769  0.00  0.00    +0.000 OA
ATOM     31  C   UNL     1      48.419   5.477  16.727  0.00  0.00    +0.000 A 
ATOM     32  H   UNL     1      47.086   2.684  17.845  0.00  0.00    +0.000 HD
ENDBRANCH  19  22
ENDBRANCH  17  18
ENDBRANCH   4  17
TORSDOF 6
ENDMDL
MODEL 3
REMARK VINA RESULT:    -7.509      4.066      4.915
REMARK INTER + INTRA:         -10.617
REMARK INTER:                  -9.879
REMARK INTRA:                  -0.738
REMARK UNBOUND:                -0.474
REMARK  Name = 
REMARK  6 active torsions:
REMARK  status: ('A' for Active; 'I' for Inactive)
REMARK    1  A    between atoms: C_2  and  C_25
REMARK    2  A    between atoms: N_3  and  C_4
REMARK    3  A    between atoms: C_4  and  C_5
REMARK    4  A    between atoms: C_8  and  C_9
REMARK    5  A    between atoms: C_9  and  N_10
REMARK    6  A    between atoms: C_11  and  C_13
REMARK                            x       y       z     vdW  Elec       q    Type
REMARK                         _______ _______ _______ _____ _____    ______ ____
ROOT
ATOM      1  C   UNL     1      44.367   3.668  12.250  0.00  0.00    +0.000 C 
ATOM      2  C   UNL     1      45.743   4.281  11.934  0.00  0.00    +0.000 C 
ATOM      3  C   UNL     1      45.648   5.511  11.031  0.00  0.00    +0.000 C 
ATOM      4  C   UNL     1      44.691   6.586  11.576  0.00  0.00    +0.000 C 
ATOM      5  C   UNL     1      43.316   5.954  11.842  0.00  0.00    +0.000 C 
ATOM      6  C   UNL     1      43.406   4.746  12.779  0.00  0.00    +0.000 C 
ENDROOT
BRANCH   1   7
ATOM      7  C   UNL     1      43.743   2.956  11.034  0.00  0.00    +0.000 C 
BRANCH   7  10
ATOM      8  O   UNL     1      44.162   3.917   8.440  0.00  0.00    +0.000 OA
ATOM      9  C   UNL     1      44.878   3.000   8.839  0.00  0.00    +0.000 C 
ATOM     10  N   UNL     1      44.733   2.466  10.102  0.00  0.00    +0.000 N 
ATOM     11  H   UNL     1      45.327   1.693  10.374  0.00  0.00    +0.000 HD
BRANCH   9  12
ATOM     12  C   UNL     1      45.926   2.426   8.025  0.00  0.00    +0.000 A 
ATOM     13  C   UNL     1      46.318   1.099   8.003  0.00  0.00    +0.000 A 
ATOM     14  N   UNL     1      47.358   0.788   7.147  0.00  0.00    +0.000 NA
ATOM     15  C   UNL     1      47.739   1.881   6.523  0.00  0.00    +0.000 A 
ATOM     16  S   UNL     1      46.888   3.316   6.921  0.00  0.00    +0.000 S 
ENDBRANCH   9  12
ENDBRANCH   7  10
ENDBRANCH   1   7
BRANCH   4  17
ATOM     17  C   UNL     1      45.232   7.282  12.840  0.00  0.00    +0.000 C 
BRANCH  17  18
ATOM     18  N   UNL     1      46.617   7.677  12.698  0.00  0.00    +0.000 N 
ATOM     19  C   UNL     1      46.992   8.971  12.436  0.00  0.00    +0.000 C 
ATOM     20  O   UNL     1      46.173   9.877  12.310  0.00  0.00    +0.000 OA
ATOM     21  H   UNL     1      47.313   6.939  12.658  0.00  0.00    +0.000 HD
BRANCH  19  22
ATOM     22  C   UNL     1      48.434   9.233  12.368  0.00  0.00    +0.000 A 
ATOM     23  C   UNL     1      48.923  10.080  11.382  0.00  0.00    +0.000 A 
ATOM     24  S   UNL     1      50.616  10.273  11.421  0.00  0.00    +0.000 S 
ATOM     25  C   UNL     1      50.761   9.200  12.733  0.00  0.00    +0.000 A 
ATOM     26  N   UNL     1      51.982   8.881  13.241  0.00  0.00    +0.000 NA
ATOM     27  C   UNL     1      51.952   8.030  14.209  0.00  0.00    +0.000 A 
ATOM     28  N   UNL     1      50.808   7.480  14.729  0.00  0.00    +0.000 N 
ATOM     29  C   UNL     1      49.552   7.837  14.302  0.00  0.00    +0.000 A 
ATOM     30  O   UNL     1      48.549   7.442  14.887  0.00  0.00    +0.000 OA
ATOM     31  C   UNL     1      49.531   8.738  13.168  0.00  0.00    +0.000 A 
ATOM     32  H   UNL     1      50.853   6.851  15.517  0.00  0.00    +0.000 HD
ENDBRANCH  19  22
ENDBRANCH  17  18
ENDBRANCH   4  17
TORSDOF 6
ENDMDL
MODEL 4
REMARK VINA RESULT:    -7.344      3.678      4.588
REMARK INTER + INTRA:         -10.394
REMARK INTER:                  -9.380
REMARK INTRA:                  -1.014
REMARK UNBOUND:                -0.474
REMARK  Name = 
REMARK  6 active torsions:
REMARK  status: ('A' for Active; 'I' for Inactive)
REMARK    1  A    between atoms: C_2  and  C_25
REMARK    2  A    between atoms: N_3  and  C_4
REMARK    3  A    between atoms: C_4  and  C_5
REMARK    4  A    between atoms: C_8  and  C_9
REMARK    5  A    between atoms: C_9  and  N_10
REMARK    6  A    between atoms: C_11  and  C_13
REMARK                            x       y       z     vdW  Elec       q    Type
REMARK                         _______ _______ _______ _____ _____    ______ ____
ROOT
ATOM      1  C   UNL     1      44.190   4.479  11.378  0.00  0.00    +0.000 C 
ATOM      2  C   UNL     1      45.707   4.677  11.541  0.00  0.00    +0.000 C 
ATOM      3  C   UNL     1      46.174   6.063  11.096  0.00  0.00    +0.000 C 
ATOM      4  C   UNL     1      45.405   7.206  11.781  0.00  0.00    +0.000 C 
ATOM      5  C   UNL     1      43.897   7.005  11.566  0.00  0.00    +0.000 C 
ATOM      6  C   UNL     1      43.421   5.632  12.049  0.00  0.00    +0.000 C 
ENDROOT
BRANCH   1   7
ATOM      7  C   UNL     1      43.765   4.351   9.902  0.00  0.00    +0.000 C 
BRANCH   7  10
ATOM      8  O   UNL     1      44.329   1.704   9.194  0.00  0.00    +0.000 OA
ATOM      9  C   UNL     1      45.051   2.589   8.739  0.00  0.00    +0.000 C 
ATOM     10  N   UNL     1      44.844   3.918   9.044  0.00  0.00    +0.000 N 
ATOM     11  H   UNL     1      45.482   4.608   8.668  0.00  0.00    +0.000 HD
BRANCH   9  12
ATOM     12  C   UNL     1      46.154   2.308   7.848  0.00  0.00    +0.000 A 
ATOM     13  C   UNL     1      46.827   1.105   7.725  0.00  0.00    +0.000 A 
ATOM     14  N   UNL     1      47.861   1.081   6.808  0.00  0.00    +0.000 NA
ATOM     15  C   UNL     1      47.958   2.263   6.241  0.00  0.00    +0.000 A 
ATOM     16  S   UNL     1      46.835   3.448   6.765  0.00  0.00    +0.000 S 
ENDBRANCH   9  12
ENDBRANCH   7  10
ENDBRANCH   1   7
BRANCH   4  17
ATOM     17  C   UNL     1      45.735   7.335  13.280  0.00  0.00    +0.000 C 
BRANCH  17  18
ATOM     18  N   UNL     1      47.114   7.708  13.508  0.00  0.00    +0.000 N 
ATOM     19  C   UNL     1      48.044   6.830  14.006  0.00  0.00    +0.000 C 
ATOM     20  O   UNL     1      47.762   5.667  14.284  0.00  0.00    +0.000 OA
ATOM     21  H   UNL     1      47.354   8.691  13.423  0.00  0.00    +0.000 HD
BRANCH  19  22
ATOM     22  C   UNL     1      49.415   7.333  14.138  0.00  0.00    +0.000 A 
ATOM     23  C   UNL     1      50.062   7.223  15.362  0.00  0.00    +0.000 A 
ATOM     24  S   UNL     1      51.641   7.867  15.363  0.00  0.00    +0.000 S 
ATOM     25  C   UNL     1      51.502   8.351  13.739  0.00  0.00    +0.000 A 
ATOM     26  N   UNL     1      52.514   9.020  13.122  0.00  0.00    +0.000 NA
ATOM     27  C   UNL     1      52.264   9.358  11.903  0.00  0.00    +0.000 A 
ATOM     28  N   UNL     1      51.100   9.075  11.237  0.00  0.00    +0.000 N 
ATOM     29  C   UNL     1      50.088   8.331  11.794  0.00  0.00    +0.000 A 
ATOM     30  O   UNL     1      49.126   7.967  11.124  0.00  0.00    +0.000 OA
ATOM     31  C   UNL     1      50.287   7.984  13.187  0.00  0.00    +0.000 A 
ATOM     32  H   UNL     1      50.985   9.333  10.268  0.00  0.00    +0.000 HD
ENDBRANCH  19  22
ENDBRANCH  17  18
ENDBRANCH   4  17
TORSDOF 6
ENDMDL
MODEL 5
REMARK VINA RESULT:    -7.152      1.956      2.653
REMARK INTER + INTRA:         -10.134
REMARK INTER:                  -9.297
REMARK INTRA:                  -0.837
REMARK UNBOUND:                -0.474
REMARK  Name = 
REMARK  6 active torsions:
REMARK  status: ('A' for Active; 'I' for Inactive)
REMARK    1  A    between atoms: C_2  and  C_25
REMARK    2  A    between atoms: N_3  and  C_4
REMARK    3  A    between atoms: C_4  and  C_5
REMARK    4  A    between atoms: C_8  and  C_9
REMARK    5  A    between atoms: C_9  and  N_10
REMARK    6  A    between atoms: C_11  and  C_13
REMARK                            x       y       z     vdW  Elec       q    Type
REMARK                         _______ _______ _______ _____ _____    ______ ____
ROOT
ATOM      1  C   UNL     1      43.414   4.389  11.709  0.00  0.00    +0.000 C 
ATOM      2  C   UNL     1      44.298   3.170  12.020  0.00  0.00    +0.000 C 
ATOM      3  C   UNL     1      45.778   3.533  12.157  0.00  0.00    +0.000 C 
ATOM      4  C   UNL     1      46.030   4.656  13.178  0.00  0.00    +0.000 C 
ATOM      5  C   UNL     1      45.164   5.873  12.819  0.00  0.00    +0.000 C 
ATOM      6  C   UNL     1      43.678   5.519  12.720  0.00  0.00    +0.000 C 
ENDROOT
BRANCH   1   7
ATOM      7  C   UNL     1      43.609   4.912  10.273  0.00  0.00    +0.000 C 
BRANCH   7  10
ATOM      8  O   UNL     1      45.904   5.457   8.768  0.00  0.00    +0.000 OA
ATOM      9  C   UNL     1      45.436   4.321   8.717  0.00  0.00    +0.000 C 
ATOM     10  N   UNL     1      44.305   3.972   9.423  0.00  0.00    +0.000 N 
ATOM     11  H   UNL     1      43.941   3.032   9.326  0.00  0.00    +0.000 HD
BRANCH   9  12
ATOM     12  C   UNL     1      46.039   3.270   7.928  0.00  0.00    +0.000 A 
ATOM     13  C   UNL     1      46.724   3.425   6.736  0.00  0.00    +0.000 A 
ATOM     14  N   UNL     1      47.203   2.265   6.157  0.00  0.00    +0.000 NA
ATOM     15  C   UNL     1      46.883   1.242   6.919  0.00  0.00    +0.000 A 
ATOM     16  S   UNL     1      46.006   1.608   8.347  0.00  0.00    +0.000 S 
ENDBRANCH   9  12
ENDBRANCH   7  10
ENDBRANCH   1   7
BRANCH   4  17
ATOM     17  C   UNL     1      45.776   4.210  14.632  0.00  0.00    +0.000 C 
BRANCH  17  18
ATOM     18  N   UNL     1      46.769   4.733  15.547  0.00  0.00    +0.000 N 
ATOM     19  C   UNL     1      47.851   3.998  15.959  0.00  0.00    +0.000 C 
ATOM     20  O   UNL     1      48.049   2.850  15.572  0.00  0.00    +0.000 OA
ATOM     21  H   UNL     1      46.570   5.622  15.996  0.00  0.00    +0.000 HD
BRANCH  19  22
ATOM     22  C   UNL     1      48.801   4.674  16.849  0.00  0.00    +0.000 A 
ATOM     23  C   UNL     1      49.060   4.134  18.102  0.00  0.00    +0.000 A 
ATOM     24  S   UNL     1      50.170   5.040  19.024  0.00  0.00    +0.000 S 
ATOM     25  C   UNL     1      50.316   6.210  17.798  0.00  0.00    +0.000 A 
ATOM     26  N   UNL     1      51.100   7.308  17.971  0.00  0.00    +0.000 NA
ATOM     27  C   UNL     1      51.093   8.131  16.979  0.00  0.00    +0.000 A 
ATOM     28  N   UNL     1      50.386   7.948  15.818  0.00  0.00    +0.000 N 
ATOM     29  C   UNL     1      49.650   6.815  15.568  0.00  0.00    +0.000 A 
ATOM     30  O   UNL     1      49.153   6.614  14.465  0.00  0.00    +0.000 OA
ATOM     31  C   UNL     1      49.566   5.889  16.679  0.00  0.00    +0.000 A 
ATOM     32  H   UNL     1      50.458   8.612  15.062  0.00  0.00    +0.000 HD
ENDBRANCH  19  22
ENDBRANCH  17  18
ENDBRANCH   4  17
TORSDOF 6
ENDMDL
MODEL 6
REMARK VINA RESULT:    -6.840      3.451      9.665
REMARK INTER + INTRA:          -9.713
REMARK INTER:                  -9.391
REMARK INTRA:                  -0.322
REMARK UNBOUND:                -0.474
REMARK  Name = 
REMARK  6 active torsions:
REMARK  status: ('A' for Active; 'I' for Inactive)
REMARK    1  A    between atoms: C_2  and  C_25
REMARK    2  A    between atoms: N_3  and  C_4
REMARK    3  A    between atoms: C_4  and  C_5
REMARK    4  A    between atoms: C_8  and  C_9
REMARK    5  A    between atoms: C_9  and  N_10
REMARK    6  A    between atoms: C_11  and  C_13
REMARK                            x       y       z     vdW  Elec       q    Type
REMARK                         _______ _______ _______ _____ _____    ______ ____
ROOT
ATOM      1  C   UNL     1      48.633   5.037  19.850  0.00  0.00    +0.000 C 
ATOM      2  C   UNL     1      48.116   5.918  18.699  0.00  0.00    +0.000 C 
ATOM      3  C   UNL     1      48.829   5.638  17.375  0.00  0.00    +0.000 C 
ATOM      4  C   UNL     1      48.794   4.152  16.975  0.00  0.00    +0.000 C 
ATOM      5  C   UNL     1      49.353   3.302  18.126  0.00  0.00    +0.000 C 
ATOM      6  C   UNL     1      48.614   3.553  19.443  0.00  0.00    +0.000 C 
ENDROOT
BRANCH   1   7
ATOM      7  C   UNL     1      50.046   5.437  20.314  0.00  0.00    +0.000 C 
BRANCH   7  10
ATOM      8  O   UNL     1      52.659   5.755  19.366  0.00  0.00    +0.000 OA
ATOM      9  C   UNL     1      52.288   4.622  19.668  0.00  0.00    +0.000 C 
ATOM     10  N   UNL     1      51.016   4.380  20.138  0.00  0.00    +0.000 N 
ATOM     11  H   UNL     1      50.747   3.426  20.347  0.00  0.00    +0.000 HD
BRANCH   9  12
ATOM     12  C   UNL     1      53.156   3.471  19.567  0.00  0.00    +0.000 A 
ATOM     13  C   UNL     1      54.087   3.055  20.503  0.00  0.00    +0.000 A 
ATOM     14  N   UNL     1      54.812   1.925  20.177  0.00  0.00    +0.000 NA
ATOM     15  C   UNL     1      54.420   1.490  19.000  0.00  0.00    +0.000 A 
ATOM     16  S   UNL     1      53.183   2.395  18.232  0.00  0.00    +0.000 S 
ENDBRANCH   9  12
ENDBRANCH   7  10
ENDBRANCH   1   7
BRANCH   4  17
ATOM     17  C   UNL     1      47.386   3.675  16.571  0.00  0.00    +0.000 C 
BRANCH  17  18
ATOM     18  N   UNL     1      46.764   4.555  15.605  0.00  0.00    +0.000 N 
ATOM     19  C   UNL     1      46.842   4.337  14.252  0.00  0.00    +0.000 C 
ATOM     20  O   UNL     1      47.441   3.376  13.777  0.00  0.00    +0.000 OA
ATOM     21  H   UNL     1      46.380   5.431  15.947  0.00  0.00    +0.000 HD
BRANCH  19  22
ATOM     22  C   UNL     1      46.122   5.284  13.394  0.00  0.00    +0.000 A 
ATOM     23  C   UNL     1      46.668   6.539  13.162  0.00  0.00    +0.000 A 
ATOM     24  S   UNL     1      45.710   7.531  12.161  0.00  0.00    +0.000 S 
ATOM     25  C   UNL     1      44.509   6.333  12.034  0.00  0.00    +0.000 A 
ATOM     26  N   UNL     1      43.365   6.563  11.335  0.00  0.00    +0.000 NA
ATOM     27  C   UNL     1      42.525   5.585  11.348  0.00  0.00    +0.000 A 
ATOM     28  N   UNL     1      42.732   4.388  11.983  0.00  0.00    +0.000 N 
ATOM     29  C   UNL     1      43.905   4.083  12.629  0.00  0.00    +0.000 A 
ATOM     30  O   UNL     1      44.117   2.953  13.057  0.00  0.00    +0.000 OA
ATOM     31  C   UNL     1      44.857   5.173  12.705  0.00  0.00    +0.000 A 
ATOM     32  H   UNL     1      42.050   3.647  11.919  0.00  0.00    +0.000 HD
ENDBRANCH  19  22
ENDBRANCH  17  18
ENDBRANCH   4  17
TORSDOF 6
ENDMDL
MODEL 7
REMARK VINA RESULT:    -6.727      5.170      8.119
REMARK INTER + INTRA:          -9.561
REMARK INTER:                  -8.715
REMARK INTRA:                  -0.846
REMARK UNBOUND:                -0.474
REMARK  Name = 
REMARK  6 active torsions:
REMARK  status: ('A' for Active; 'I' for Inactive)
REMARK    1  A    between atoms: C_2  and  C_25
REMARK    2  A    between atoms: N_3  and  C_4
REMARK    3  A    between atoms: C_4  and  C_5
REMARK    4  A    between atoms: C_8  and  C_9
REMARK    5  A    between atoms: C_9  and  N_10
REMARK    6  A    between atoms: C_11  and  C_13
REMARK                            x       y       z     vdW  Elec       q    Type
REMARK                         _______ _______ _______ _____ _____    ______ ____
ROOT
ATOM      1  C   UNL     1      50.137   8.172  13.041  0.00  0.00    +0.000 C 
ATOM      2  C   UNL     1      49.179   9.220  13.633  0.00  0.00    +0.000 C 
ATOM      3  C   UNL     1      48.085   9.642  12.651  0.00  0.00    +0.000 C 
ATOM      4  C   UNL     1      47.295   8.451  12.081  0.00  0.00    +0.000 C 
ATOM      5  C   UNL     1      48.274   7.442  11.461  0.00  0.00    +0.000 C 
ATOM      6  C   UNL     1      49.346   6.989  12.456  0.00  0.00    +0.000 C 
ENDROOT
BRANCH   1   7
ATOM      7  C   UNL     1      51.071   8.763  11.968  0.00  0.00    +0.000 C 
BRANCH   7  10
ATOM      8  O   UNL     1      52.544   9.241   9.638  0.00  0.00    +0.000 OA
ATOM      9  C   UNL     1      52.377   8.074   9.986  0.00  0.00    +0.000 C 
ATOM     10  N   UNL     1      51.660   7.753  11.118  0.00  0.00    +0.000 N 
ATOM     11  H   UNL     1      51.525   6.776  11.348  0.00  0.00    +0.000 HD
BRANCH   9  12
ATOM     12  C   UNL     1      52.927   6.959   9.248  0.00  0.00    +0.000 A 
ATOM     13  C   UNL     1      53.808   6.007   9.729  0.00  0.00    +0.000 A 
ATOM     14  N   UNL     1      54.206   5.038   8.827  0.00  0.00    +0.000 NA
ATOM     15  C   UNL     1      53.618   5.262   7.672  0.00  0.00    +0.000 A 
ATOM     16  S   UNL     1      52.574   6.621   7.605  0.00  0.00    +0.000 S 
ENDBRANCH   9  12
ENDBRANCH   7  10
ENDBRANCH   1   7
BRANCH   4  17
ATOM     17  C   UNL     1      46.397   7.771  13.132  0.00  0.00    +0.000 C 
BRANCH  17  18
ATOM     18  N   UNL     1      45.899   6.489  12.682  0.00  0.00    +0.000 N 
ATOM     19  C   UNL     1      44.825   6.369  11.837  0.00  0.00    +0.000 C 
ATOM     20  O   UNL     1      44.221   7.347  11.405  0.00  0.00    +0.000 OA
ATOM     21  H   UNL     1      46.281   5.657  13.124  0.00  0.00    +0.000 HD
BRANCH  19  22
ATOM     22  C   UNL     1      44.464   5.008  11.426  0.00  0.00    +0.000 A 
ATOM     23  C   UNL     1      43.645   4.247  12.249  0.00  0.00    +0.000 A 
ATOM     24  S   UNL     1      43.328   2.684  11.646  0.00  0.00    +0.000 S 
ATOM     25  C   UNL     1      44.307   2.955  10.281  0.00  0.00    +0.000 A 
ATOM     26  N   UNL     1      44.507   1.974   9.360  0.00  0.00    +0.000 NA
ATOM     27  C   UNL     1      45.298   2.300   8.396  0.00  0.00    +0.000 A 
ATOM     28  N   UNL     1      45.897   3.526   8.258  0.00  0.00    +0.000 N 
ATOM     29  C   UNL     1      45.657   4.570   9.118  0.00  0.00    +0.000 A 
ATOM     30  O   UNL     1      46.088   5.694   8.885  0.00  0.00    +0.000 OA
ATOM     31  C   UNL     1      44.830   4.237  10.261  0.00  0.00    +0.000 A 
ATOM     32  H   UNL     1      46.473   3.729   7.455  0.00  0.00    +0.000 HD
ENDBRANCH  19  22
ENDBRANCH  17  18
ENDBRANCH   4  17
TORSDOF 6
ENDMDL
MODEL 8
REMARK VINA RESULT:    -6.648      3.634      9.839
REMARK INTER + INTRA:          -9.454
REMARK INTER:                  -8.903
REMARK INTRA:                  -0.552
REMARK UNBOUND:                -0.474
REMARK  Name = 
REMARK  6 active torsions:
REMARK  status: ('A' for Active; 'I' for Inactive)
REMARK    1  A    between atoms: C_2  and  C_25
REMARK    2  A    between atoms: N_3  and  C_4
REMARK    3  A    between atoms: C_4  and  C_5
REMARK    4  A    between atoms: C_8  and  C_9
REMARK    5  A    between atoms: C_9  and  N_10
REMARK    6  A    between atoms: C_11  and  C_13
REMARK                            x       y       z     vdW  Elec       q    Type
REMARK                         _______ _______ _______ _____ _____    ______ ____
ROOT
ATOM      1  C   UNL     1      50.563   5.165  17.559  0.00  0.00    +0.000 C 
ATOM      2  C   UNL     1      50.288   3.668  17.785  0.00  0.00    +0.000 C 
ATOM      3  C   UNL     1      48.964   3.413  18.507  0.00  0.00    +0.000 C 
ATOM      4  C   UNL     1      47.763   4.085  17.818  0.00  0.00    +0.000 C 
ATOM      5  C   UNL     1      48.050   5.584  17.644  0.00  0.00    +0.000 C 
ATOM      6  C   UNL     1      49.355   5.839  16.885  0.00  0.00    +0.000 C 
ENDROOT
BRANCH   1   7
ATOM      7  C   UNL     1      50.920   5.904  18.863  0.00  0.00    +0.000 C 
BRANCH   7  10
ATOM      8  O   UNL     1      49.528   7.064  20.994  0.00  0.00    +0.000 OA
ATOM      9  C   UNL     1      49.732   7.752  19.996  0.00  0.00    +0.000 C 
ATOM     10  N   UNL     1      50.406   7.254  18.901  0.00  0.00    +0.000 N 
ATOM     11  H   UNL     1      50.524   7.850  18.091  0.00  0.00    +0.000 HD
BRANCH   9  12
ATOM     12  C   UNL     1      49.297   9.127  19.900  0.00  0.00    +0.000 A 
ATOM     13  C   UNL     1      49.714  10.180  20.695  0.00  0.00    +0.000 A 
ATOM     14  N   UNL     1      49.145  11.410  20.420  0.00  0.00    +0.000 NA
ATOM     15  C   UNL     1      48.307  11.278  19.416  0.00  0.00    +0.000 A 
ATOM     16  S   UNL     1      48.157   9.702  18.756  0.00  0.00    +0.000 S 
ENDBRANCH   9  12
ENDBRANCH   7  10
ENDBRANCH   1   7
BRANCH   4  17
ATOM     17  C   UNL     1      47.406   3.431  16.469  0.00  0.00    +0.000 C 
BRANCH  17  18
ATOM     18  N   UNL     1      46.766   4.360  15.562  0.00  0.00    +0.000 N 
ATOM     19  C   UNL     1      46.845   4.233  14.198  0.00  0.00    +0.000 C 
ATOM     20  O   UNL     1      47.462   3.317  13.661  0.00  0.00    +0.000 OA
ATOM     21  H   UNL     1      46.366   5.204  15.962  0.00  0.00    +0.000 HD
BRANCH  19  22
ATOM     22  C   UNL     1      46.105   5.220  13.405  0.00  0.00    +0.000 A 
ATOM     23  C   UNL     1      46.635   6.492  13.239  0.00  0.00    +0.000 A 
ATOM     24  S   UNL     1      45.654   7.529  12.309  0.00  0.00    +0.000 S 
ATOM     25  C   UNL     1      44.464   6.327  12.126  0.00  0.00    +0.000 A 
ATOM     26  N   UNL     1      43.310   6.585  11.454  0.00  0.00    +0.000 NA
ATOM     27  C   UNL     1      42.481   5.598  11.421  0.00  0.00    +0.000 A 
ATOM     28  N   UNL     1      42.707   4.368  11.984  0.00  0.00    +0.000 N 
ATOM     29  C   UNL     1      43.892   4.040  12.597  0.00  0.00    +0.000 A 
ATOM     30  O   UNL     1      44.120   2.889  12.957  0.00  0.00    +0.000 OA
ATOM     31  C   UNL     1      44.832   5.134  12.725  0.00  0.00    +0.000 A 
ATOM     32  H   UNL     1      42.032   3.625  11.884  0.00  0.00    +0.000 HD
ENDBRANCH  19  22
ENDBRANCH  17  18
ENDBRANCH   4  17
TORSDOF 6
ENDMDL
MODEL 9
REMARK VINA RESULT:    -6.600      3.171      9.146
REMARK INTER + INTRA:          -9.389
REMARK INTER:                  -8.705
REMARK INTRA:                  -0.684
REMARK UNBOUND:                -0.474
REMARK  Name = 
REMARK  6 active torsions:
REMARK  status: ('A' for Active; 'I' for Inactive)
REMARK    1  A    between atoms: C_2  and  C_25
REMARK    2  A    between atoms: N_3  and  C_4
REMARK    3  A    between atoms: C_4  and  C_5
REMARK    4  A    between atoms: C_8  and  C_9
REMARK    5  A    between atoms: C_9  and  N_10
REMARK    6  A    between atoms: C_11  and  C_13
REMARK                            x       y       z     vdW  Elec       q    Type
REMARK                         _______ _______ _______ _____ _____    ______ ____
ROOT
ATOM      1  C   UNL     1      49.268   8.207  14.934  0.00  0.00    +0.000 C 
ATOM      2  C   UNL     1      48.739   9.448  14.194  0.00  0.00    +0.000 C 
ATOM      3  C   UNL     1      48.926   9.357  12.679  0.00  0.00    +0.000 C 
ATOM      4  C   UNL     1      48.329   8.074  12.074  0.00  0.00    +0.000 C 
ATOM      5  C   UNL     1      48.906   6.852  12.805  0.00  0.00    +0.000 C 
ATOM      6  C   UNL     1      48.684   6.923  14.318  0.00  0.00    +0.000 C 
ENDROOT
BRANCH   1   7
ATOM      7  C   UNL     1      50.807   8.134  14.943  0.00  0.00    +0.000 C 
BRANCH   7  10
ATOM      8  O   UNL     1      50.932   7.535  17.672  0.00  0.00    +0.000 OA
ATOM      9  C   UNL     1      51.330   6.686  16.876  0.00  0.00    +0.000 C 
ATOM     10  N   UNL     1      51.307   6.905  15.515  0.00  0.00    +0.000 N 
ATOM     11  H   UNL     1      51.672   6.188  14.901  0.00  0.00    +0.000 HD
BRANCH   9  12
ATOM     12  C   UNL     1      51.835   5.400  17.302  0.00  0.00    +0.000 A 
ATOM     13  C   UNL     1      53.164   5.042  17.441  0.00  0.00    +0.000 A 
ATOM     14  N   UNL     1      53.404   3.745  17.854  0.00  0.00    +0.000 NA
ATOM     15  C   UNL     1      52.253   3.134  18.031  0.00  0.00    +0.000 A 
ATOM     16  S   UNL     1      50.846   4.063  17.718  0.00  0.00    +0.000 S 
ENDBRANCH   9  12
ENDBRANCH   7  10
ENDBRANCH   1   7
BRANCH   4  17
ATOM     17  C   UNL     1      46.788   8.058  12.107  0.00  0.00    +0.000 C 
BRANCH  17  18
ATOM     18  N   UNL     1      46.248   6.737  11.865  0.00  0.00    +0.000 N 
ATOM     19  C   UNL     1      44.949   6.532  11.475  0.00  0.00    +0.000 C 
ATOM     20  O   UNL     1      44.164   7.460  11.301  0.00  0.00    +0.000 OA
ATOM     21  H   UNL     1      46.820   5.941  12.131  0.00  0.00    +0.000 HD
BRANCH  19  22
ATOM     22  C   UNL     1      44.554   5.143  11.218  0.00  0.00    +0.000 A 
ATOM     23  C   UNL     1      43.755   4.483  12.143  0.00  0.00    +0.000 A 
ATOM     24  S   UNL     1      43.395   2.874  11.715  0.00  0.00    +0.000 S 
ATOM     25  C   UNL     1      44.328   2.986  10.296  0.00  0.00    +0.000 A 
ATOM     26  N   UNL     1      44.480   1.913   9.475  0.00  0.00    +0.000 NA
ATOM     27  C   UNL     1      45.240   2.125   8.455  0.00  0.00    +0.000 A 
ATOM     28  N   UNL     1      45.850   3.319   8.171  0.00  0.00    +0.000 N 
ATOM     29  C   UNL     1      45.657   4.450   8.928  0.00  0.00    +0.000 A 
ATOM     30  O   UNL     1      46.094   5.537   8.565  0.00  0.00    +0.000 OA
ATOM     31  C   UNL     1      44.867   4.250  10.126  0.00  0.00    +0.000 A 
ATOM     32  H   UNL     1      46.399   3.430   7.332  0.00  0.00    +0.000 HD
ENDBRANCH  19  22
ENDBRANCH  17  18
ENDBRANCH   4  17
TORSDOF 6
ENDMDL
