MODEL 1
REMARK VINA RESULT:    -9.529      0.000      0.000
REMARK INTER + INTRA:         -14.018
REMARK INTER:                 -12.871
REMARK INTRA:                  -1.147
REMARK UNBOUND:                -1.147
REMARK  Name = 
REMARK  6 active torsions:
REMARK  status: ('A' for Active; 'I' for Inactive)
REMARK    1  A    between atoms: C_2  and  C_4
REMARK    2  A    between atoms: N_8  and  C_9
REMARK    3  A    between atoms: C_9  and  C_10
REMARK    4  A    between atoms: C_10  and  C_13
REMARK    5  A    between atoms: C_18  and  O_19
REMARK    6  A    between atoms: O_19  and  C_20
REMARK                            x       y       z     vdW  Elec       q    Type
REMARK                         _______ _______ _______ _____ _____    ______ ____
ROOT
ATOM      1  C   UNL     1      43.606   4.696  12.491  0.00  0.00    +0.000 C 
ATOM      2  F   UNL     1      42.640   5.521  12.994  0.00  0.00    +0.000 F 
ATOM      3  F   UNL     1      43.508   3.542  13.214  0.00  0.00    +0.000 F 
ENDROOT
BRANCH   1   4
ATOM      4  C   UNL     1      44.991   5.315  12.592  0.00  0.00    +0.000 A 
ATOM      5  C   UNL     1      45.420   6.259  11.651  0.00  0.00    +0.000 A 
ATOM      6  C   UNL     1      46.710   6.796  11.734  0.00  0.00    +0.000 A 
ATOM      7  C   UNL     1      47.582   6.386  12.748  0.00  0.00    +0.000 A 
ATOM      8  F   UNL     1      48.806   6.930  12.788  0.00  0.00    +0.000 F 
ATOM      9  C   UNL     1      47.177   5.444  13.690  0.00  0.00    +0.000 A 
ATOM     10  C   UNL     1      45.876   4.926  13.614  0.00  0.00    +0.000 A 
BRANCH   9  11
ATOM     11  O   UNL     1      47.905   4.957  14.748  0.00  0.00    +0.000 OA
BRANCH  11  12
ATOM     12  C   UNL     1      47.373   3.924  15.599  0.00  0.00    +0.000 C 
ATOM     13  C   UNL     1      47.473   4.117  17.120  0.00  0.00    +0.000 C 
ATOM     14  C   UNL     1      48.107   2.732  17.121  0.00  0.00    +0.000 C 
ATOM     15  O   UNL     1      48.273   2.776  15.688  0.00  0.00    +0.000 OA
ENDBRANCH  11  12
ENDBRANCH   9  11
ENDBRANCH   1   4
BRANCH   1  16
ATOM     16  C   UNL     1      43.262   4.391  11.012  0.00  0.00    +0.000 C 
BRANCH  16  21
ATOM     17  C   UNL     1      46.516   2.621   7.455  0.00  0.00    +0.000 A 
ATOM     18  C   UNL     1      46.057   3.905   7.721  0.00  0.00    +0.000 A 
ATOM     19  C   UNL     1      45.146   4.094   8.759  0.00  0.00    +0.000 A 
ATOM     20  C   UNL     1      44.690   3.004   9.494  0.00  0.00    +0.000 A 
ATOM     21  N   UNL     1      43.802   3.125  10.528  0.00  0.00    +0.000 N 
ATOM     22  N   UNL     1      45.113   1.755   9.223  0.00  0.00    +0.000 NA
ATOM     23  C   UNL     1      46.012   1.582   8.218  0.00  0.00    +0.000 A 
ATOM     24  H   UNL     1      43.468   2.245  10.907  0.00  0.00    +0.000 HD
BRANCH  17  26
ATOM     25  N   UNL     1      47.490   3.175   5.306  0.00  0.00    +0.000 N 
ATOM     26  C   UNL     1      47.493   2.340   6.387  0.00  0.00    +0.000 C 
ATOM     27  O   UNL     1      48.295   1.417   6.473  0.00  0.00    +0.000 OA
ATOM     28  H   UNL     1      48.227   3.047   4.632  0.00  0.00    +0.000 HD
ATOM     29  H   UNL     1      47.043   4.095   5.334  0.00  0.00    +0.000 HD
ENDBRANCH  17  26
ENDBRANCH  16  21
ENDBRANCH   1  16
TORSDOF 6
ENDMDL
MODEL 2
REMARK VINA RESULT:    -8.647      2.533      4.095
REMARK INTER + INTRA:         -12.827
REMARK INTER:                 -11.975
REMARK INTRA:                  -0.852
REMARK UNBOUND:                -1.147
REMARK  Name = 
REMARK  6 active torsions:
REMARK  status: ('A' for Active; 'I' for Inactive)
REMARK    1  A    between atoms: C_2  and  C_4
REMARK    2  A    between atoms: N_8  and  C_9
REMARK    3  A    between atoms: C_9  and  C_10
REMARK    4  A    between atoms: C_10  and  C_13
REMARK    5  A    between atoms: C_18  and  O_19
REMARK    6  A    between atoms: O_19  and  C_20
REMARK                            x       y       z     vdW  Elec       q    Type
REMARK                         _______ _______ _______ _____ _____    ______ ____
ROOT
ATOM      1  C   UNL     1      43.658   4.300  12.478  0.00  0.00    +0.000 C 
ATOM      2  F   UNL     1      42.663   4.537  13.385  0.00  0.00    +0.000 F 
ATOM      3  F   UNL     1      44.042   3.007  12.691  0.00  0.00    +0.000 F 
ENDROOT
BRANCH   1   4
ATOM      4  C   UNL     1      44.817   5.272  12.641  0.00  0.00    +0.000 A 
ATOM      5  C   UNL     1      46.125   4.799  12.805  0.00  0.00    +0.000 A 
ATOM      6  C   UNL     1      47.179   5.703  12.991  0.00  0.00    +0.000 A 
ATOM      7  C   UNL     1      46.931   7.079  13.025  0.00  0.00    +0.000 A 
ATOM      8  F   UNL     1      47.972   7.905  13.202  0.00  0.00    +0.000 F 
ATOM      9  C   UNL     1      45.637   7.569  12.871  0.00  0.00    +0.000 A 
ATOM     10  C   UNL     1      44.590   6.660  12.665  0.00  0.00    +0.000 A 
BRANCH   9  11
ATOM     11  O   UNL     1      45.238   8.882  12.864  0.00  0.00    +0.000 OA
BRANCH  11  12
ATOM     12  C   UNL     1      45.219   9.643  11.642  0.00  0.00    +0.000 C 
ATOM     13  C   UNL     1      45.241  11.177  11.743  0.00  0.00    +0.000 C 
ATOM     14  C   UNL     1      44.020  11.122  10.833  0.00  0.00    +0.000 C 
ATOM     15  O   UNL     1      43.879   9.704  11.061  0.00  0.00    +0.000 OA
ENDBRANCH  11  12
ENDBRANCH   9  11
ENDBRANCH   1   4
BRANCH   1  16
ATOM     16  C   UNL     1      43.057   4.418  11.055  0.00  0.00    +0.000 C 
BRANCH  16  21
ATOM     17  C   UNL     1      46.474   2.486   7.744  0.00  0.00    +0.000 A 
ATOM     18  C   UNL     1      45.687   1.874   8.712  0.00  0.00    +0.000 A 
ATOM     19  C   UNL     1      44.845   2.663   9.493  0.00  0.00    +0.000 A 
ATOM     20  C   UNL     1      44.818   4.043   9.317  0.00  0.00    +0.000 A 
ATOM     21  N   UNL     1      44.009   4.870  10.047  0.00  0.00    +0.000 N 
ATOM     22  N   UNL     1      45.598   4.643   8.397  0.00  0.00    +0.000 NA
ATOM     23  C   UNL     1      46.406   3.863   7.631  0.00  0.00    +0.000 A 
ATOM     24  H   UNL     1      44.166   5.862   9.896  0.00  0.00    +0.000 HD
BRANCH  17  26
ATOM     25  N   UNL     1      48.474   2.375   6.379  0.00  0.00    +0.000 N 
ATOM     26  C   UNL     1      47.377   1.720   6.865  0.00  0.00    +0.000 C 
ATOM     27  O   UNL     1      47.175   0.542   6.601  0.00  0.00    +0.000 OA
ATOM     28  H   UNL     1      49.143   1.823   5.869  0.00  0.00    +0.000 HD
ATOM     29  H   UNL     1      48.814   3.245   6.798  0.00  0.00    +0.000 HD
ENDBRANCH  17  26
ENDBRANCH  16  21
ENDBRANCH   1  16
TORSDOF 6
ENDMDL
MODEL 3
REMARK VINA RESULT:    -7.917      2.489      3.063
REMARK INTER + INTRA:         -11.841
REMARK INTER:                 -11.111
REMARK INTRA:                  -0.729
REMARK UNBOUND:                -1.147
REMARK  Name = 
REMARK  6 active torsions:
REMARK  status: ('A' for Active; 'I' for Inactive)
REMARK    1  A    between atoms: C_2  and  C_4
REMARK    2  A    between atoms: N_8  and  C_9
REMARK    3  A    between atoms: C_9  and  C_10
REMARK    4  A    between atoms: C_10  and  C_13
REMARK    5  A    between atoms: C_18  and  O_19
REMARK    6  A    between atoms: O_19  and  C_20
REMARK                            x       y       z     vdW  Elec       q    Type
REMARK                         _______ _______ _______ _____ _____    ______ ____
ROOT
ATOM      1  C   UNL     1      43.756   5.222  12.329  0.00  0.00    +0.000 C 
ATOM      2  F   UNL     1      42.640   5.328  13.111  0.00  0.00    +0.000 F 
ATOM      3  F   UNL     1      44.432   4.138  12.810  0.00  0.00    +0.000 F 
ENDROOT
BRANCH   1   4
ATOM      4  C   UNL     1      44.600   6.486  12.372  0.00  0.00    +0.000 A 
ATOM      5  C   UNL     1      44.205   7.632  11.670  0.00  0.00    +0.000 A 
ATOM      6  C   UNL     1      45.010   8.777  11.688  0.00  0.00    +0.000 A 
ATOM      7  C   UNL     1      46.216   8.782  12.396  0.00  0.00    +0.000 A 
ATOM      8  F   UNL     1      46.951   9.903  12.386  0.00  0.00    +0.000 F 
ATOM      9  C   UNL     1      46.631   7.651  13.095  0.00  0.00    +0.000 A 
ATOM     10  C   UNL     1      45.810   6.515  13.090  0.00  0.00    +0.000 A 
BRANCH   9  11
ATOM     11  O   UNL     1      47.771   7.507  13.845  0.00  0.00    +0.000 OA
BRANCH  11  12
ATOM     12  C   UNL     1      49.043   7.257  13.218  0.00  0.00    +0.000 C 
ATOM     13  C   UNL     1      49.978   8.453  12.978  0.00  0.00    +0.000 C 
ATOM     14  C   UNL     1      50.031   7.953  11.540  0.00  0.00    +0.000 C 
ATOM     15  O   UNL     1      48.910   7.074  11.774  0.00  0.00    +0.000 OA
ENDBRANCH  11  12
ENDBRANCH   9  11
ENDBRANCH   1   4
BRANCH   1  16
ATOM     16  C   UNL     1      43.305   4.928  10.877  0.00  0.00    +0.000 C 
BRANCH  16  21
ATOM     17  C   UNL     1      46.460   2.429   7.688  0.00  0.00    +0.000 A 
ATOM     18  C   UNL     1      45.581   1.966   8.659  0.00  0.00    +0.000 A 
ATOM     19  C   UNL     1      44.848   2.890   9.400  0.00  0.00    +0.000 A 
ATOM     20  C   UNL     1      45.019   4.254   9.182  0.00  0.00    +0.000 A 
ATOM     21  N   UNL     1      44.325   5.210   9.873  0.00  0.00    +0.000 N 
ATOM     22  N   UNL     1      45.888   4.708   8.259  0.00  0.00    +0.000 NA
ATOM     23  C   UNL     1      46.589   3.799   7.532  0.00  0.00    +0.000 A 
ATOM     24  H   UNL     1      44.623   6.164   9.696  0.00  0.00    +0.000 HD
BRANCH  17  26
ATOM     25  N   UNL     1      48.302   2.063   6.155  0.00  0.00    +0.000 N 
ATOM     26  C   UNL     1      47.258   1.517   6.848  0.00  0.00    +0.000 C 
ATOM     27  O   UNL     1      47.020   0.317   6.793  0.00  0.00    +0.000 OA
ATOM     28  H   UNL     1      48.908   1.423   5.670  0.00  0.00    +0.000 HD
ATOM     29  H   UNL     1      48.691   2.979   6.395  0.00  0.00    +0.000 HD
ENDBRANCH  17  26
ENDBRANCH  16  21
ENDBRANCH   1  16
TORSDOF 6
ENDMDL
MODEL 4
REMARK VINA RESULT:    -7.823      3.260      8.042
REMARK INTER + INTRA:         -11.713
REMARK INTER:                 -11.242
REMARK INTRA:                  -0.471
REMARK UNBOUND:                -1.147
REMARK  Name = 
REMARK  6 active torsions:
REMARK  status: ('A' for Active; 'I' for Inactive)
REMARK    1  A    between atoms: C_2  and  C_4
REMARK    2  A    between atoms: N_8  and  C_9
REMARK    3  A    between atoms: C_9  and  C_10
REMARK    4  A    between atoms: C_10  and  C_13
REMARK    5  A    between atoms: C_18  and  O_19
REMARK    6  A    between atoms: O_19  and  C_20
REMARK                            x       y       z     vdW  Elec       q    Type
REMARK                         _______ _______ _______ _____ _____    ______ ____
ROOT
ATOM      1  C   UNL     1      45.602   6.171  12.157  0.00  0.00    +0.000 C 
ATOM      2  F   UNL     1      44.639   6.422  13.093  0.00  0.00    +0.000 F 
ATOM      3  F   UNL     1      45.832   7.370  11.544  0.00  0.00    +0.000 F 
ENDROOT
BRANCH   1   4
ATOM      4  C   UNL     1      45.168   5.101  11.168  0.00  0.00    +0.000 A 
ATOM      5  C   UNL     1      44.380   4.021  11.588  0.00  0.00    +0.000 A 
ATOM      6  C   UNL     1      44.017   3.022  10.676  0.00  0.00    +0.000 A 
ATOM      7  C   UNL     1      44.446   3.090   9.346  0.00  0.00    +0.000 A 
ATOM      8  F   UNL     1      44.070   2.112   8.509  0.00  0.00    +0.000 F 
ATOM      9  C   UNL     1      45.235   4.152   8.911  0.00  0.00    +0.000 A 
ATOM     10  C   UNL     1      45.577   5.159   9.824  0.00  0.00    +0.000 A 
BRANCH   9  11
ATOM     11  O   UNL     1      45.716   4.367   7.643  0.00  0.00    +0.000 OA
BRANCH  11  12
ATOM     12  C   UNL     1      46.859   3.642   7.153  0.00  0.00    +0.000 C 
ATOM     13  C   UNL     1      46.739   2.937   5.792  0.00  0.00    +0.000 C 
ATOM     14  C   UNL     1      47.233   1.703   6.537  0.00  0.00    +0.000 C 
ATOM     15  O   UNL     1      47.001   2.344   7.809  0.00  0.00    +0.000 OA
ENDBRANCH  11  12
ENDBRANCH   9  11
ENDBRANCH   1   4
BRANCH   1  16
ATOM     16  C   UNL     1      46.891   5.729  12.894  0.00  0.00    +0.000 C 
BRANCH  16  21
ATOM     17  C   UNL     1      48.291   4.494  17.678  0.00  0.00    +0.000 A 
ATOM     18  C   UNL     1      48.676   5.542  16.851  0.00  0.00    +0.000 A 
ATOM     19  C   UNL     1      48.135   5.622  15.569  0.00  0.00    +0.000 A 
ATOM     20  C   UNL     1      47.246   4.649  15.124  0.00  0.00    +0.000 A 
ATOM     21  N   UNL     1      46.676   4.676  13.880  0.00  0.00    +0.000 N 
ATOM     22  N   UNL     1      46.889   3.618  15.913  0.00  0.00    +0.000 NA
ATOM     23  C   UNL     1      47.411   3.556  17.167  0.00  0.00    +0.000 A 
ATOM     24  H   UNL     1      46.134   3.852  13.642  0.00  0.00    +0.000 HD
BRANCH  17  26
ATOM     25  N   UNL     1      48.351   3.278  19.773  0.00  0.00    +0.000 N 
ATOM     26  C   UNL     1      48.802   4.348  19.054  0.00  0.00    +0.000 C 
ATOM     27  O   UNL     1      49.616   5.131  19.526  0.00  0.00    +0.000 OA
ATOM     28  H   UNL     1      48.781   3.120  20.670  0.00  0.00    +0.000 HD
ATOM     29  H   UNL     1      47.906   2.472  19.325  0.00  0.00    +0.000 HD
ENDBRANCH  17  26
ENDBRANCH  16  21
ENDBRANCH   1  16
TORSDOF 6
ENDMDL
MODEL 5
REMARK VINA RESULT:    -7.601      3.043      7.302
REMARK INTER + INTRA:         -11.414
REMARK INTER:                 -10.542
REMARK INTRA:                  -0.872
REMARK UNBOUND:                -1.147
REMARK  Name = 
REMARK  6 active torsions:
REMARK  status: ('A' for Active; 'I' for Inactive)
REMARK    1  A    between atoms: C_2  and  C_4
REMARK    2  A    between atoms: N_8  and  C_9
REMARK    3  A    between atoms: C_9  and  C_10
REMARK    4  A    between atoms: C_10  and  C_13
REMARK    5  A    between atoms: C_18  and  O_19
REMARK    6  A    between atoms: O_19  and  C_20
REMARK                            x       y       z     vdW  Elec       q    Type
REMARK                         _______ _______ _______ _____ _____    ______ ____
ROOT
ATOM      1  C   UNL     1      45.432   6.805  11.805  0.00  0.00    +0.000 C 
ATOM      2  F   UNL     1      45.113   7.461  12.961  0.00  0.00    +0.000 F 
ATOM      3  F   UNL     1      45.070   7.652  10.797  0.00  0.00    +0.000 F 
ENDROOT
BRANCH   1   4
ATOM      4  C   UNL     1      44.726   5.462  11.702  0.00  0.00    +0.000 A 
ATOM      5  C   UNL     1      43.945   4.984  12.762  0.00  0.00    +0.000 A 
ATOM      6  C   UNL     1      43.330   3.730  12.669  0.00  0.00    +0.000 A 
ATOM      7  C   UNL     1      43.500   2.942  11.525  0.00  0.00    +0.000 A 
ATOM      8  F   UNL     1      42.889   1.750  11.482  0.00  0.00    +0.000 F 
ATOM      9  C   UNL     1      44.279   3.396  10.464  0.00  0.00    +0.000 A 
ATOM     10  C   UNL     1      44.874   4.662  10.555  0.00  0.00    +0.000 A 
BRANCH   9  11
ATOM     11  O   UNL     1      44.525   2.753   9.276  0.00  0.00    +0.000 OA
BRANCH  11  12
ATOM     12  C   UNL     1      45.872   2.463   8.858  0.00  0.00    +0.000 C 
ATOM     13  C   UNL     1      46.299   2.897   7.446  0.00  0.00    +0.000 C 
ATOM     14  C   UNL     1      46.751   1.451   7.282  0.00  0.00    +0.000 C 
ATOM     15  O   UNL     1      46.032   1.063   8.473  0.00  0.00    +0.000 OA
ENDBRANCH  11  12
ENDBRANCH   9  11
ENDBRANCH   1   4
BRANCH   1  16
ATOM     16  C   UNL     1      46.968   6.608  11.768  0.00  0.00    +0.000 C 
BRANCH  16  21
ATOM     17  C   UNL     1      47.850   4.274  16.257  0.00  0.00    +0.000 A 
ATOM     18  C   UNL     1      47.108   3.883  15.149  0.00  0.00    +0.000 A 
ATOM     19  C   UNL     1      47.028   4.741  14.054  0.00  0.00    +0.000 A 
ATOM     20  C   UNL     1      47.663   5.978  14.089  0.00  0.00    +0.000 A 
ATOM     21  N   UNL     1      47.628   6.861  13.044  0.00  0.00    +0.000 N 
ATOM     22  N   UNL     1      48.364   6.372  15.170  0.00  0.00    +0.000 NA
ATOM     23  C   UNL     1      48.447   5.523  16.228  0.00  0.00    +0.000 A 
ATOM     24  H   UNL     1      48.038   7.769  13.239  0.00  0.00    +0.000 HD
BRANCH  17  26
ATOM     25  N   UNL     1      46.928   2.643  17.794  0.00  0.00    +0.000 N 
ATOM     26  C   UNL     1      48.000   3.417  17.447  0.00  0.00    +0.000 C 
ATOM     27  O   UNL     1      49.045   3.374  18.084  0.00  0.00    +0.000 OA
ATOM     28  H   UNL     1      47.069   1.982  18.540  0.00  0.00    +0.000 HD
ATOM     29  H   UNL     1      46.167   2.447  17.138  0.00  0.00    +0.000 HD
ENDBRANCH  17  26
ENDBRANCH  16  21
ENDBRANCH   1  16
TORSDOF 6
ENDMDL
MODEL 6
REMARK VINA RESULT:    -7.170      3.501      7.088
REMARK INTER + INTRA:         -10.832
REMARK INTER:                 -10.047
REMARK INTRA:                  -0.785
REMARK UNBOUND:                -1.147
REMARK  Name = 
REMARK  6 active torsions:
REMARK  status: ('A' for Active; 'I' for Inactive)
REMARK    1  A    between atoms: C_2  and  C_4
REMARK    2  A    between atoms: N_8  and  C_9
REMARK    3  A    between atoms: C_9  and  C_10
REMARK    4  A    between atoms: C_10  and  C_13
REMARK    5  A    between atoms: C_18  and  O_19
REMARK    6  A    between atoms: O_19  and  C_20
REMARK                            x       y       z     vdW  Elec       q    Type
REMARK                         _______ _______ _______ _____ _____    ______ ____
ROOT
ATOM      1  C   UNL     1      43.391   5.859  11.825  0.00  0.00    +0.000 C 
ATOM      2  F   UNL     1      43.681   5.732  13.154  0.00  0.00    +0.000 F 
ATOM      3  F   UNL     1      42.069   6.197  11.773  0.00  0.00    +0.000 F 
ENDROOT
BRANCH   1   4
ATOM      4  C   UNL     1      43.683   4.580  11.056  0.00  0.00    +0.000 A 
ATOM      5  C   UNL     1      43.486   3.329  11.653  0.00  0.00    +0.000 A 
ATOM      6  C   UNL     1      43.792   2.159  10.947  0.00  0.00    +0.000 A 
ATOM      7  C   UNL     1      44.306   2.232   9.648  0.00  0.00    +0.000 A 
ATOM      8  F   UNL     1      44.581   1.085   9.011  0.00  0.00    +0.000 F 
ATOM      9  C   UNL     1      44.515   3.466   9.038  0.00  0.00    +0.000 A 
ATOM     10  C   UNL     1      44.186   4.633   9.743  0.00  0.00    +0.000 A 
BRANCH   9  11
ATOM     11  O   UNL     1      44.992   3.701   7.773  0.00  0.00    +0.000 OA
BRANCH  11  12
ATOM     12  C   UNL     1      46.397   3.582   7.478  0.00  0.00    +0.000 C 
ATOM     13  C   UNL     1      46.814   3.387   6.012  0.00  0.00    +0.000 C 
ATOM     14  C   UNL     1      47.602   2.192   6.534  0.00  0.00    +0.000 C 
ATOM     15  O   UNL     1      46.909   2.251   7.798  0.00  0.00    +0.000 OA
ENDBRANCH  11  12
ENDBRANCH   9  11
ENDBRANCH   1   4
BRANCH   1  16
ATOM     16  C   UNL     1      44.231   7.030  11.255  0.00  0.00    +0.000 C 
BRANCH  16  21
ATOM     17  C   UNL     1      48.711   7.462  13.728  0.00  0.00    +0.000 A 
ATOM     18  C   UNL     1      48.259   6.527  12.806  0.00  0.00    +0.000 A 
ATOM     19  C   UNL     1      46.965   6.649  12.301  0.00  0.00    +0.000 A 
ATOM     20  C   UNL     1      46.139   7.679  12.739  0.00  0.00    +0.000 A 
ATOM     21  N   UNL     1      44.863   7.856  12.278  0.00  0.00    +0.000 N 
ATOM     22  N   UNL     1      46.565   8.574  13.652  0.00  0.00    +0.000 NA
ATOM     23  C   UNL     1      47.832   8.454  14.128  0.00  0.00    +0.000 A 
ATOM     24  H   UNL     1      44.332   8.576  12.758  0.00  0.00    +0.000 HD
BRANCH  17  26
ATOM     25  N   UNL     1      51.089   7.873  13.507  0.00  0.00    +0.000 N 
ATOM     26  C   UNL     1      50.071   7.414  14.295  0.00  0.00    +0.000 C 
ATOM     27  O   UNL     1      50.283   7.010  15.432  0.00  0.00    +0.000 OA
ATOM     28  H   UNL     1      51.998   7.939  13.935  0.00  0.00    +0.000 HD
ATOM     29  H   UNL     1      50.917   8.464  12.690  0.00  0.00    +0.000 HD
ENDBRANCH  17  26
ENDBRANCH  16  21
ENDBRANCH   1  16
TORSDOF 6
ENDMDL
MODEL 7
REMARK VINA RESULT:    -6.888      3.573      6.747
REMARK INTER + INTRA:         -10.451
REMARK INTER:                  -9.512
REMARK INTRA:                  -0.939
REMARK UNBOUND:                -1.147
REMARK  Name = 
REMARK  6 active torsions:
REMARK  status: ('A' for Active; 'I' for Inactive)
REMARK    1  A    between atoms: C_2  and  C_4
REMARK    2  A    between atoms: N_8  and  C_9
REMARK    3  A    between atoms: C_9  and  C_10
REMARK    4  A    between atoms: C_10  and  C_13
REMARK    5  A    between atoms: C_18  and  O_19
REMARK    6  A    between atoms: O_19  and  C_20
REMARK                            x       y       z     vdW  Elec       q    Type
REMARK                         _______ _______ _______ _____ _____    ______ ____
ROOT
ATOM      1  C   UNL     1      44.861   3.524  12.549  0.00  0.00    +0.000 C 
ATOM      2  F   UNL     1      45.965   2.866  13.014  0.00  0.00    +0.000 F 
ATOM      3  F   UNL     1      43.794   2.862  13.085  0.00  0.00    +0.000 F 
ENDROOT
BRANCH   1   4
ATOM      4  C   UNL     1      44.813   3.545  11.029  0.00  0.00    +0.000 A 
ATOM      5  C   UNL     1      44.205   4.609  10.350  0.00  0.00    +0.000 A 
ATOM      6  C   UNL     1      44.135   4.599   8.952  0.00  0.00    +0.000 A 
ATOM      7  C   UNL     1      44.660   3.525   8.225  0.00  0.00    +0.000 A 
ATOM      8  F   UNL     1      44.571   3.562   6.888  0.00  0.00    +0.000 F 
ATOM      9  C   UNL     1      45.262   2.454   8.882  0.00  0.00    +0.000 A 
ATOM     10  C   UNL     1      45.347   2.480  10.281  0.00  0.00    +0.000 A 
BRANCH   9  11
ATOM     11  O   UNL     1      45.834   1.344   8.313  0.00  0.00    +0.000 OA
BRANCH  11  12
ATOM     12  C   UNL     1      47.116   1.423   7.662  0.00  0.00    +0.000 C 
ATOM     13  C   UNL     1      47.556   2.783   7.095  0.00  0.00    +0.000 C 
ATOM     14  C   UNL     1      47.802   2.014   5.802  0.00  0.00    +0.000 C 
ATOM     15  O   UNL     1      47.074   0.875   6.308  0.00  0.00    +0.000 OA
ENDBRANCH  11  12
ENDBRANCH   9  11
ENDBRANCH   1   4
BRANCH   1  16
ATOM     16  C   UNL     1      44.887   4.970  13.104  0.00  0.00    +0.000 C 
BRANCH  16  21
ATOM     17  C   UNL     1      49.167   7.651  12.175  0.00  0.00    +0.000 A 
ATOM     18  C   UNL     1      48.078   7.352  11.366  0.00  0.00    +0.000 A 
ATOM     19  C   UNL     1      47.044   6.575  11.887  0.00  0.00    +0.000 A 
ATOM     20  C   UNL     1      47.123   6.091  13.189  0.00  0.00    +0.000 A 
ATOM     21  N   UNL     1      46.139   5.329  13.759  0.00  0.00    +0.000 N 
ATOM     22  N   UNL     1      48.188   6.358  13.968  0.00  0.00    +0.000 NA
ATOM     23  C   UNL     1      49.185   7.127  13.456  0.00  0.00    +0.000 A 
ATOM     24  H   UNL     1      46.370   4.950  14.672  0.00  0.00    +0.000 HD
BRANCH  17  26
ATOM     25  N   UNL     1      50.145   9.837  11.802  0.00  0.00    +0.000 N 
ATOM     26  C   UNL     1      50.291   8.482  11.706  0.00  0.00    +0.000 C 
ATOM     27  O   UNL     1      51.325   7.985  11.276  0.00  0.00    +0.000 OA
ATOM     28  H   UNL     1      50.953  10.397  11.583  0.00  0.00    +0.000 HD
ATOM     29  H   UNL     1      49.435  10.264  12.403  0.00  0.00    +0.000 HD
ENDBRANCH  17  26
ENDBRANCH  16  21
ENDBRANCH   1  16
TORSDOF 6
ENDMDL
MODEL 8
REMARK VINA RESULT:    -6.866      3.274      4.859
REMARK INTER + INTRA:         -10.422
REMARK INTER:                  -9.291
REMARK INTRA:                  -1.131
REMARK UNBOUND:                -1.147
REMARK  Name = 
REMARK  6 active torsions:
REMARK  status: ('A' for Active; 'I' for Inactive)
REMARK    1  A    between atoms: C_2  and  C_4
REMARK    2  A    between atoms: N_8  and  C_9
REMARK    3  A    between atoms: C_9  and  C_10
REMARK    4  A    between atoms: C_10  and  C_13
REMARK    5  A    between atoms: C_18  and  O_19
REMARK    6  A    between atoms: O_19  and  C_20
REMARK                            x       y       z     vdW  Elec       q    Type
REMARK                         _______ _______ _______ _____ _____    ______ ____
ROOT
ATOM      1  C   UNL     1      48.085   8.531  12.527  0.00  0.00    +0.000 C 
ATOM      2  F   UNL     1      48.482   7.483  11.744  0.00  0.00    +0.000 F 
ATOM      3  F   UNL     1      48.794   9.607  12.077  0.00  0.00    +0.000 F 
ENDROOT
BRANCH   1   4
ATOM      4  C   UNL     1      48.333   8.262  14.003  0.00  0.00    +0.000 A 
ATOM      5  C   UNL     1      48.361   9.316  14.925  0.00  0.00    +0.000 A 
ATOM      6  C   UNL     1      48.627   9.060  16.275  0.00  0.00    +0.000 A 
ATOM      7  C   UNL     1      48.876   7.754  16.711  0.00  0.00    +0.000 A 
ATOM      8  F   UNL     1      49.122   7.558  18.014  0.00  0.00    +0.000 F 
ATOM      9  C   UNL     1      48.859   6.693  15.810  0.00  0.00    +0.000 A 
ATOM     10  C   UNL     1      48.572   6.954  14.462  0.00  0.00    +0.000 A 
BRANCH   9  11
ATOM     11  O   UNL     1      49.066   5.364  16.084  0.00  0.00    +0.000 OA
BRANCH  11  12
ATOM     12  C   UNL     1      47.956   4.456  16.224  0.00  0.00    +0.000 C 
ATOM     13  C   UNL     1      47.254   4.377  17.589  0.00  0.00    +0.000 C 
ATOM     14  C   UNL     1      47.481   2.876  17.470  0.00  0.00    +0.000 C 
ATOM     15  O   UNL     1      48.402   3.073  16.376  0.00  0.00    +0.000 OA
ENDBRANCH  11  12
ENDBRANCH   9  11
ENDBRANCH   1   4
BRANCH   1  16
ATOM     16  C   UNL     1      46.577   8.782  12.274  0.00  0.00    +0.000 C 
BRANCH  16  21
ATOM     17  C   UNL     1      44.375   4.212  11.473  0.00  0.00    +0.000 A 
ATOM     18  C   UNL     1      45.148   5.016  10.644  0.00  0.00    +0.000 A 
ATOM     19  C   UNL     1      45.608   6.239  11.130  0.00  0.00    +0.000 A 
ATOM     20  C   UNL     1      45.273   6.650  12.416  0.00  0.00    +0.000 A 
ATOM     21  N   UNL     1      45.699   7.835  12.952  0.00  0.00    +0.000 N 
ATOM     22  N   UNL     1      44.503   5.885  13.214  0.00  0.00    +0.000 NA
ATOM     23  C   UNL     1      44.070   4.689  12.736  0.00  0.00    +0.000 A 
ATOM     24  H   UNL     1      45.294   8.064  13.855  0.00  0.00    +0.000 HD
BRANCH  17  26
ATOM     25  N   UNL     1      44.463   2.325   9.955  0.00  0.00    +0.000 N 
ATOM     26  C   UNL     1      43.865   2.898  11.042  0.00  0.00    +0.000 C 
ATOM     27  O   UNL     1      42.965   2.325  11.644  0.00  0.00    +0.000 OA
ATOM     28  H   UNL     1      44.187   1.384   9.729  0.00  0.00    +0.000 HD
ATOM     29  H   UNL     1      45.378   2.634   9.615  0.00  0.00    +0.000 HD
ENDBRANCH  17  26
ENDBRANCH  16  21
ENDBRANCH   1  16
TORSDOF 6
ENDMDL
MODEL 9
REMARK VINA RESULT:    -6.555      4.061      7.974
REMARK INTER + INTRA:         -10.002
REMARK INTER:                  -9.365
REMARK INTRA:                  -0.636
REMARK UNBOUND:                -1.147
REMARK  Name = 
REMARK  6 active torsions:
REMARK  status: ('A' for Active; 'I' for Inactive)
REMARK    1  A    between atoms: C_2  and  C_4
REMARK    2  A    between atoms: N_8  and  C_9
REMARK    3  A    between atoms: C_9  and  C_10
REMARK    4  A    between atoms: C_10  and  C_13
REMARK    5  A    between atoms: C_18  and  O_19
REMARK    6  A    between atoms: O_19  and  C_20
REMARK                            x       y       z     vdW  Elec       q    Type
REMARK                         _______ _______ _______ _____ _____    ______ ____
ROOT
ATOM      1  C   UNL     1      46.973   4.368  13.795  0.00  0.00    +0.000 C 
ATOM      2  F   UNL     1      47.930   5.239  13.354  0.00  0.00    +0.000 F 
ATOM      3  F   UNL     1      47.517   3.125  13.642  0.00  0.00    +0.000 F 
ENDROOT
BRANCH   1   4
ATOM      4  C   UNL     1      45.671   4.518  13.024  0.00  0.00    +0.000 A 
ATOM      5  C   UNL     1      44.818   5.602  13.269  0.00  0.00    +0.000 A 
ATOM      6  C   UNL     1      43.605   5.709  12.579  0.00  0.00    +0.000 A 
ATOM      7  C   UNL     1      43.232   4.732  11.649  0.00  0.00    +0.000 A 
ATOM      8  F   UNL     1      42.062   4.881  11.011  0.00  0.00    +0.000 F 
ATOM      9  C   UNL     1      44.062   3.644  11.396  0.00  0.00    +0.000 A 
ATOM     10  C   UNL     1      45.285   3.553  12.076  0.00  0.00    +0.000 A 
BRANCH   9  11
ATOM     11  O   UNL     1      43.846   2.620  10.508  0.00  0.00    +0.000 OA
BRANCH  11  12
ATOM     12  C   UNL     1      44.239   2.743   9.128  0.00  0.00    +0.000 C 
ATOM     13  C   UNL     1      45.609   2.182   8.713  0.00  0.00    +0.000 C 
ATOM     14  C   UNL     1      45.842   3.562   8.109  0.00  0.00    +0.000 C 
ATOM     15  O   UNL     1      44.699   4.093   8.812  0.00  0.00    +0.000 OA
ENDBRANCH  11  12
ENDBRANCH   9  11
ENDBRANCH   1   4
BRANCH   1  16
ATOM     16  C   UNL     1      46.736   4.630  15.303  0.00  0.00    +0.000 C 
BRANCH  16  21
ATOM     17  C   UNL     1      50.888   2.508  17.454  0.00  0.00    +0.000 A 
ATOM     18  C   UNL     1      49.774   1.937  16.851  0.00  0.00    +0.000 A 
ATOM     19  C   UNL     1      48.773   2.772  16.359  0.00  0.00    +0.000 A 
ATOM     20  C   UNL     1      48.883   4.152  16.498  0.00  0.00    +0.000 A 
ATOM     21  N   UNL     1      47.937   5.024  16.031  0.00  0.00    +0.000 N 
ATOM     22  N   UNL     1      49.949   4.708  17.104  0.00  0.00    +0.000 NA
ATOM     23  C   UNL     1      50.927   3.886  17.569  0.00  0.00    +0.000 A 
ATOM     24  H   UNL     1      48.085   5.993  16.293  0.00  0.00    +0.000 HD
BRANCH  17  26
ATOM     25  N   UNL     1      51.854   0.337  17.936  0.00  0.00    +0.000 N 
ATOM     26  C   UNL     1      52.000   1.695  17.984  0.00  0.00    +0.000 C 
ATOM     27  O   UNL     1      53.022   2.208  18.421  0.00  0.00    +0.000 OA
ATOM     28  H   UNL     1      52.655  -0.213  18.197  0.00  0.00    +0.000 HD
ATOM     29  H   UNL     1      51.159  -0.112  17.334  0.00  0.00    +0.000 HD
ENDBRANCH  17  26
ENDBRANCH  16  21
ENDBRANCH   1  16
TORSDOF 6
ENDMDL
