MODEL 1
REMARK VINA RESULT:    -7.965      0.000      0.000
REMARK INTER + INTRA:         -10.687
REMARK INTER:                 -10.293
REMARK INTRA:                  -0.394
REMARK UNBOUND:                -0.394
REMARK  Name = 
REMARK  6 active torsions:
REMARK  status: ('A' for Active; 'I' for Inactive)
REMARK    1  A    between atoms: N_1  and  C_2
REMARK    2  A    between atoms: C_2  and  C_3
REMARK    3  A    between atoms: C_3  and  O_4
REMARK    4  A    between atoms: C_3  and  C_5
REMARK    5  A    between atoms: C_9  and  C_10
REMARK    6  A    between atoms: C_10  and  C_11
REMARK                            x       y       z     vdW  Elec       q    Type
REMARK                         _______ _______ _______ _____ _____    ______ ____
ROOT
ATOM      1  C   UNL     1      45.095   4.953  12.895  0.00  0.00    +0.000 A 
ATOM      2  C   UNL     1      43.727   5.036  13.219  0.00  0.00    +0.000 A 
ATOM      3  C   UNL     1      42.772   5.130  12.216  0.00  0.00    +0.000 A 
ATOM      4  C   UNL     1      43.173   5.125  10.878  0.00  0.00    +0.000 A 
ATOM      5  C   UNL     1      44.531   5.030  10.532  0.00  0.00    +0.000 A 
ATOM      6  C   UNL     1      45.483   4.947  11.550  0.00  0.00    +0.000 A 
ENDROOT
BRANCH   1   7
ATOM      7  C   UNL     1      46.131   4.849  13.988  0.00  0.00    +0.000 C 
BRANCH   7   8
ATOM      8  O   UNL     1      46.883   6.065  13.996  0.00  0.00    +0.000 OA
ATOM      9  H   UNL     1      47.804   5.819  13.802  0.00  0.00    +0.000 HD
ENDBRANCH   7   8
BRANCH   7  10
ATOM     10  C   UNL     1      47.042   3.615  13.772  0.00  0.00    +0.000 C 
BRANCH  10  11
ATOM     11  N   UNL     1      47.623   3.124  15.029  0.00  0.00    +0.000 NA
ATOM     12  H   UNL     1      46.931   3.235  15.773  0.00  0.00    +0.000 HD
ATOM     13  H   UNL     1      48.403   3.726  15.294  0.00  0.00    +0.000 HD
ENDBRANCH  10  11
ENDBRANCH   7  10
ENDBRANCH   1   7
BRANCH   5  14
ATOM     14  C   UNL     1      44.951   4.920   9.093  0.00  0.00    +0.000 C 
BRANCH  14  15
ATOM     15  C   UNL     1      45.139   3.487   8.732  0.00  0.00    +0.000 A 
ATOM     16  C   UNL     1      44.712   2.357   9.406  0.00  0.00    +0.000 A 
ATOM     17  O   UNL     1      45.342   1.245   8.944  0.00  0.00    +0.000 OA
ATOM     18  C   UNL     1      46.167   1.648   7.940  0.00  0.00    +0.000 A 
ATOM     19  C   UNL     1      47.097   0.848   7.281  0.00  0.00    +0.000 A 
ATOM     20  C   UNL     1      47.853   1.466   6.280  0.00  0.00    +0.000 A 
ATOM     21  C   UNL     1      47.633   2.799   5.926  0.00  0.00    +0.000 A 
ATOM     22  C   UNL     1      46.701   3.582   6.620  0.00  0.00    +0.000 A 
ATOM     23  C   UNL     1      45.988   3.001   7.686  0.00  0.00    +0.000 A 
ENDBRANCH  14  15
ENDBRANCH   5  14
TORSDOF 6
ENDMDL
MODEL 2
REMARK VINA RESULT:    -7.838      1.168      1.238
REMARK INTER + INTRA:         -10.523
REMARK INTER:                  -9.953
REMARK INTRA:                  -0.570
REMARK UNBOUND:                -0.394
REMARK  Name = 
REMARK  6 active torsions:
REMARK  status: ('A' for Active; 'I' for Inactive)
REMARK    1  A    between atoms: N_1  and  C_2
REMARK    2  A    between atoms: C_2  and  C_3
REMARK    3  A    between atoms: C_3  and  O_4
REMARK    4  A    between atoms: C_3  and  C_5
REMARK    5  A    between atoms: C_9  and  C_10
REMARK    6  A    between atoms: C_10  and  C_11
REMARK                            x       y       z     vdW  Elec       q    Type
REMARK                         _______ _______ _______ _____ _____    ______ ____
ROOT
ATOM      1  C   UNL     1      45.572   4.965  12.685  0.00  0.00    +0.000 A 
ATOM      2  C   UNL     1      44.348   4.864  13.375  0.00  0.00    +0.000 A 
ATOM      3  C   UNL     1      43.156   4.746  12.675  0.00  0.00    +0.000 A 
ATOM      4  C   UNL     1      43.174   4.711  11.279  0.00  0.00    +0.000 A 
ATOM      5  C   UNL     1      44.384   4.797  10.571  0.00  0.00    +0.000 A 
ATOM      6  C   UNL     1      45.577   4.927  11.286  0.00  0.00    +0.000 A 
ENDROOT
BRANCH   1   7
ATOM      7  C   UNL     1      46.868   5.091  13.450  0.00  0.00    +0.000 C 
BRANCH   7   8
ATOM      8  O   UNL     1      46.571   4.951  14.842  0.00  0.00    +0.000 OA
ATOM      9  H   UNL     1      47.307   4.448  15.230  0.00  0.00    +0.000 HD
ENDBRANCH   7   8
BRANCH   7  10
ATOM     10  C   UNL     1      47.560   6.443  13.146  0.00  0.00    +0.000 C 
BRANCH  10  11
ATOM     11  N   UNL     1      49.005   6.292  12.926  0.00  0.00    +0.000 NA
ATOM     12  H   UNL     1      49.376   7.180  12.582  0.00  0.00    +0.000 HD
ATOM     13  H   UNL     1      49.160   5.624  12.170  0.00  0.00    +0.000 HD
ENDBRANCH  10  11
ENDBRANCH   7  10
ENDBRANCH   1   7
BRANCH   5  14
ATOM     14  C   UNL     1      44.411   4.654   9.075  0.00  0.00    +0.000 C 
BRANCH  14  15
ATOM     15  C   UNL     1      44.837   3.275   8.709  0.00  0.00    +0.000 A 
ATOM     16  C   UNL     1      44.568   2.082   9.355  0.00  0.00    +0.000 A 
ATOM     17  O   UNL     1      45.382   1.090   8.908  0.00  0.00    +0.000 OA
ATOM     18  C   UNL     1      46.172   1.634   7.944  0.00  0.00    +0.000 A 
ATOM     19  C   UNL     1      47.242   1.000   7.316  0.00  0.00    +0.000 A 
ATOM     20  C   UNL     1      47.931   1.744   6.352  0.00  0.00    +0.000 A 
ATOM     21  C   UNL     1      47.517   3.032   6.002  0.00  0.00    +0.000 A 
ATOM     22  C   UNL     1      46.446   3.647   6.664  0.00  0.00    +0.000 A 
ATOM     23  C   UNL     1      45.793   2.946   7.695  0.00  0.00    +0.000 A 
ENDBRANCH  14  15
ENDBRANCH   5  14
TORSDOF 6
ENDMDL
MODEL 3
REMARK VINA RESULT:    -7.544      1.860      3.209
REMARK INTER + INTRA:         -10.143
REMARK INTER:                  -9.323
REMARK INTRA:                  -0.820
REMARK UNBOUND:                -0.394
REMARK  Name = 
REMARK  6 active torsions:
REMARK  status: ('A' for Active; 'I' for Inactive)
REMARK    1  A    between atoms: N_1  and  C_2
REMARK    2  A    between atoms: C_2  and  C_3
REMARK    3  A    between atoms: C_3  and  O_4
REMARK    4  A    between atoms: C_3  and  C_5
REMARK    5  A    between atoms: C_9  and  C_10
REMARK    6  A    between atoms: C_10  and  C_11
REMARK                            x       y       z     vdW  Elec       q    Type
REMARK                         _______ _______ _______ _____ _____    ______ ____
ROOT
ATOM      1  C   UNL     1      47.218   5.171  14.106  0.00  0.00    +0.000 A 
ATOM      2  C   UNL     1      48.112   6.153  13.635  0.00  0.00    +0.000 A 
ATOM      3  C   UNL     1      47.730   7.020  12.621  0.00  0.00    +0.000 A 
ATOM      4  C   UNL     1      46.447   6.928  12.078  0.00  0.00    +0.000 A 
ATOM      5  C   UNL     1      45.535   5.965  12.542  0.00  0.00    +0.000 A 
ATOM      6  C   UNL     1      45.934   5.091  13.555  0.00  0.00    +0.000 A 
ENDROOT
BRANCH   1   7
ATOM      7  C   UNL     1      47.635   4.230  15.211  0.00  0.00    +0.000 C 
BRANCH   7   8
ATOM      8  O   UNL     1      47.522   2.894  14.713  0.00  0.00    +0.000 OA
ATOM      9  H   UNL     1      46.576   2.669  14.743  0.00  0.00    +0.000 HD
ENDBRANCH   7   8
BRANCH   7  10
ATOM     10  C   UNL     1      46.768   4.444  16.477  0.00  0.00    +0.000 C 
BRANCH  10  11
ATOM     11  N   UNL     1      46.757   3.263  17.350  0.00  0.00    +0.000 NA
ATOM     12  H   UNL     1      46.274   2.504  16.866  0.00  0.00    +0.000 HD
ATOM     13  H   UNL     1      46.188   3.463  18.175  0.00  0.00    +0.000 HD
ENDBRANCH  10  11
ENDBRANCH   7  10
ENDBRANCH   1   7
BRANCH   5  14
ATOM     14  C   UNL     1      44.122   5.935  12.030  0.00  0.00    +0.000 C 
BRANCH  14  15
ATOM     15  C   UNL     1      43.869   4.647  11.328  0.00  0.00    +0.000 A 
ATOM     16  C   UNL     1      43.166   3.539  11.770  0.00  0.00    +0.000 A 
ATOM     17  O   UNL     1      43.423   2.456  10.991  0.00  0.00    +0.000 OA
ATOM     18  C   UNL     1      44.278   2.865  10.016  0.00  0.00    +0.000 A 
ATOM     19  C   UNL     1      44.902   2.040   9.083  0.00  0.00    +0.000 A 
ATOM     20  C   UNL     1      45.755   2.667   8.167  0.00  0.00    +0.000 A 
ATOM     21  C   UNL     1      45.914   4.055   8.161  0.00  0.00    +0.000 A 
ATOM     22  C   UNL     1      45.284   4.855   9.123  0.00  0.00    +0.000 A 
ATOM     23  C   UNL     1      44.487   4.235  10.104  0.00  0.00    +0.000 A 
ENDBRANCH  14  15
ENDBRANCH   5  14
TORSDOF 6
ENDMDL
MODEL 4
REMARK VINA RESULT:    -6.743      2.519      3.180
REMARK INTER + INTRA:          -9.109
REMARK INTER:                  -8.634
REMARK INTRA:                  -0.475
REMARK UNBOUND:                -0.394
REMARK  Name = 
REMARK  6 active torsions:
REMARK  status: ('A' for Active; 'I' for Inactive)
REMARK    1  A    between atoms: N_1  and  C_2
REMARK    2  A    between atoms: C_2  and  C_3
REMARK    3  A    between atoms: C_3  and  O_4
REMARK    4  A    between atoms: C_3  and  C_5
REMARK    5  A    between atoms: C_9  and  C_10
REMARK    6  A    between atoms: C_10  and  C_11
REMARK                            x       y       z     vdW  Elec       q    Type
REMARK                         _______ _______ _______ _____ _____    ______ ____
ROOT
ATOM      1  C   UNL     1      45.672   6.507  12.254  0.00  0.00    +0.000 A 
ATOM      2  C   UNL     1      45.994   5.683  13.350  0.00  0.00    +0.000 A 
ATOM      3  C   UNL     1      45.750   4.318  13.298  0.00  0.00    +0.000 A 
ATOM      4  C   UNL     1      45.199   3.758  12.144  0.00  0.00    +0.000 A 
ATOM      5  C   UNL     1      44.883   4.558  11.033  0.00  0.00    +0.000 A 
ATOM      6  C   UNL     1      45.121   5.932  11.102  0.00  0.00    +0.000 A 
ENDROOT
BRANCH   1   7
ATOM      7  C   UNL     1      45.939   7.992  12.313  0.00  0.00    +0.000 C 
BRANCH   7   8
ATOM      8  O   UNL     1      46.112   8.351  13.686  0.00  0.00    +0.000 OA
ATOM      9  H   UNL     1      46.581   7.610  14.107  0.00  0.00    +0.000 HD
ENDBRANCH   7   8
BRANCH   7  10
ATOM     10  C   UNL     1      44.787   8.789  11.653  0.00  0.00    +0.000 C 
BRANCH  10  11
ATOM     11  N   UNL     1      44.331   9.905  12.491  0.00  0.00    +0.000 NA
ATOM     12  H   UNL     1      44.470  10.777  11.977  0.00  0.00    +0.000 HD
ATOM     13  H   UNL     1      44.935   9.977  13.311  0.00  0.00    +0.000 HD
ENDBRANCH  10  11
ENDBRANCH   7  10
ENDBRANCH   1   7
BRANCH   5  14
ATOM     14  C   UNL     1      44.387   3.940   9.756  0.00  0.00    +0.000 C 
BRANCH  14  15
ATOM     15  C   UNL     1      45.493   3.889   8.760  0.00  0.00    +0.000 A 
ATOM     16  C   UNL     1      46.030   4.916   8.004  0.00  0.00    +0.000 A 
ATOM     17  O   UNL     1      46.792   4.429   6.990  0.00  0.00    +0.000 OA
ATOM     18  C   UNL     1      46.775   3.074   7.100  0.00  0.00    +0.000 A 
ATOM     19  C   UNL     1      47.319   2.176   6.184  0.00  0.00    +0.000 A 
ATOM     20  C   UNL     1      47.185   0.817   6.487  0.00  0.00    +0.000 A 
ATOM     21  C   UNL     1      46.592   0.397   7.680  0.00  0.00    +0.000 A 
ATOM     22  C   UNL     1      46.041   1.325   8.574  0.00  0.00    +0.000 A 
ATOM     23  C   UNL     1      46.091   2.693   8.247  0.00  0.00    +0.000 A 
ENDBRANCH  14  15
ENDBRANCH   5  14
TORSDOF 6
ENDMDL
MODEL 5
REMARK VINA RESULT:    -6.739      2.446      3.404
REMARK INTER + INTRA:          -9.103
REMARK INTER:                  -8.597
REMARK INTRA:                  -0.506
REMARK UNBOUND:                -0.394
REMARK  Name = 
REMARK  6 active torsions:
REMARK  status: ('A' for Active; 'I' for Inactive)
REMARK    1  A    between atoms: N_1  and  C_2
REMARK    2  A    between atoms: C_2  and  C_3
REMARK    3  A    between atoms: C_3  and  O_4
REMARK    4  A    between atoms: C_3  and  C_5
REMARK    5  A    between atoms: C_9  and  C_10
REMARK    6  A    between atoms: C_10  and  C_11
REMARK                            x       y       z     vdW  Elec       q    Type
REMARK                         _______ _______ _______ _____ _____    ______ ____
ROOT
ATOM      1  C   UNL     1      47.401   7.039  13.346  0.00  0.00    +0.000 A 
ATOM      2  C   UNL     1      47.619   5.865  14.094  0.00  0.00    +0.000 A 
ATOM      3  C   UNL     1      46.719   4.811  14.025  0.00  0.00    +0.000 A 
ATOM      4  C   UNL     1      45.600   4.911  13.195  0.00  0.00    +0.000 A 
ATOM      5  C   UNL     1      45.369   6.067  12.431  0.00  0.00    +0.000 A 
ATOM      6  C   UNL     1      46.276   7.125  12.517  0.00  0.00    +0.000 A 
ENDROOT
BRANCH   1   7
ATOM      7  C   UNL     1      48.383   8.183  13.421  0.00  0.00    +0.000 C 
BRANCH   7   8
ATOM      8  O   UNL     1      48.112   9.065  12.328  0.00  0.00    +0.000 OA
ATOM      9  H   UNL     1      47.462   9.713  12.653  0.00  0.00    +0.000 HD
ENDBRANCH   7   8
BRANCH   7  10
ATOM     10  C   UNL     1      49.842   7.664  13.389  0.00  0.00    +0.000 C 
BRANCH  10  11
ATOM     11  N   UNL     1      50.246   7.222  12.048  0.00  0.00    +0.000 NA
ATOM     12  H   UNL     1      51.154   6.758  12.118  0.00  0.00    +0.000 HD
ATOM     13  H   UNL     1      50.406   8.041  11.459  0.00  0.00    +0.000 HD
ENDBRANCH  10  11
ENDBRANCH   7  10
ENDBRANCH   1   7
BRANCH   5  14
ATOM     14  C   UNL     1      44.223   6.131  11.461  0.00  0.00    +0.000 C 
BRANCH  14  15
ATOM     15  C   UNL     1      43.986   4.784  10.872  0.00  0.00    +0.000 A 
ATOM     16  C   UNL     1      43.246   3.730  11.378  0.00  0.00    +0.000 A 
ATOM     17  O   UNL     1      43.526   2.576  10.719  0.00  0.00    +0.000 OA
ATOM     18  C   UNL     1      44.437   2.882   9.757  0.00  0.00    +0.000 A 
ATOM     19  C   UNL     1      45.096   1.966   8.940  0.00  0.00    +0.000 A 
ATOM     20  C   UNL     1      46.005   2.494   8.017  0.00  0.00    +0.000 A 
ATOM     21  C   UNL     1      46.184   3.873   7.887  0.00  0.00    +0.000 A 
ATOM     22  C   UNL     1      45.517   4.767   8.735  0.00  0.00    +0.000 A 
ATOM     23  C   UNL     1      44.662   4.251   9.726  0.00  0.00    +0.000 A 
ENDBRANCH  14  15
ENDBRANCH   5  14
TORSDOF 6
ENDMDL
MODEL 6
REMARK VINA RESULT:    -6.163      4.372      7.315
REMARK INTER + INTRA:          -8.358
REMARK INTER:                  -7.613
REMARK INTRA:                  -0.745
REMARK UNBOUND:                -0.394
REMARK  Name = 
REMARK  6 active torsions:
REMARK  status: ('A' for Active; 'I' for Inactive)
REMARK    1  A    between atoms: N_1  and  C_2
REMARK    2  A    between atoms: C_2  and  C_3
REMARK    3  A    between atoms: C_3  and  O_4
REMARK    4  A    between atoms: C_3  and  C_5
REMARK    5  A    between atoms: C_9  and  C_10
REMARK    6  A    between atoms: C_10  and  C_11
REMARK                            x       y       z     vdW  Elec       q    Type
REMARK                         _______ _______ _______ _____ _____    ______ ____
ROOT
ATOM      1  C   UNL     1      44.470   5.685  12.334  0.00  0.00    +0.000 A 
ATOM      2  C   UNL     1      44.256   6.951  11.754  0.00  0.00    +0.000 A 
ATOM      3  C   UNL     1      45.274   7.893  11.729  0.00  0.00    +0.000 A 
ATOM      4  C   UNL     1      46.523   7.576  12.267  0.00  0.00    +0.000 A 
ATOM      5  C   UNL     1      46.763   6.315  12.838  0.00  0.00    +0.000 A 
ATOM      6  C   UNL     1      45.727   5.379  12.868  0.00  0.00    +0.000 A 
ENDROOT
BRANCH   1   7
ATOM      7  C   UNL     1      43.361   4.661  12.358  0.00  0.00    +0.000 C 
BRANCH   7   8
ATOM      8  O   UNL     1      42.593   4.877  13.545  0.00  0.00    +0.000 OA
ATOM      9  H   UNL     1      42.813   5.772  13.855  0.00  0.00    +0.000 HD
ENDBRANCH   7   8
BRANCH   7  10
ATOM     10  C   UNL     1      43.933   3.223  12.300  0.00  0.00    +0.000 C 
BRANCH  10  11
ATOM     11  N   UNL     1      43.023   2.287  11.628  0.00  0.00    +0.000 NA
ATOM     12  H   UNL     1      42.123   2.303  12.113  0.00  0.00    +0.000 HD
ATOM     13  H   UNL     1      43.375   1.336  11.745  0.00  0.00    +0.000 HD
ENDBRANCH  10  11
ENDBRANCH   7  10
ENDBRANCH   1   7
BRANCH   5  14
ATOM     14  C   UNL     1      48.136   5.940  13.322  0.00  0.00    +0.000 C 
BRANCH  14  15
ATOM     15  C   UNL     1      48.240   6.191  14.786  0.00  0.00    +0.000 A 
ATOM     16  C   UNL     1      48.769   7.286  15.445  0.00  0.00    +0.000 A 
ATOM     17  O   UNL     1      48.975   7.013  16.760  0.00  0.00    +0.000 OA
ATOM     18  C   UNL     1      48.552   5.737  16.968  0.00  0.00    +0.000 A 
ATOM     19  C   UNL     1      48.706   5.012  18.147  0.00  0.00    +0.000 A 
ATOM     20  C   UNL     1      48.203   3.706  18.147  0.00  0.00    +0.000 A 
ATOM     21  C   UNL     1      47.527   3.193  17.037  0.00  0.00    +0.000 A 
ATOM     22  C   UNL     1      47.402   3.943  15.861  0.00  0.00    +0.000 A 
ATOM     23  C   UNL     1      47.975   5.228  15.812  0.00  0.00    +0.000 A 
ENDBRANCH  14  15
ENDBRANCH   5  14
TORSDOF 6
ENDMDL
MODEL 7
REMARK VINA RESULT:    -5.908      2.861      4.205
REMARK INTER + INTRA:          -8.030
REMARK INTER:                  -7.258
REMARK INTRA:                  -0.771
REMARK UNBOUND:                -0.394
REMARK  Name = 
REMARK  6 active torsions:
REMARK  status: ('A' for Active; 'I' for Inactive)
REMARK    1  A    between atoms: N_1  and  C_2
REMARK    2  A    between atoms: C_2  and  C_3
REMARK    3  A    between atoms: C_3  and  O_4
REMARK    4  A    between atoms: C_3  and  C_5
REMARK    5  A    between atoms: C_9  and  C_10
REMARK    6  A    between atoms: C_10  and  C_11
REMARK                            x       y       z     vdW  Elec       q    Type
REMARK                         _______ _______ _______ _____ _____    ______ ____
ROOT
ATOM      1  C   UNL     1      48.417   6.780  14.022  0.00  0.00    +0.000 A 
ATOM      2  C   UNL     1      49.397   7.140  13.077  0.00  0.00    +0.000 A 
ATOM      3  C   UNL     1      49.041   7.397  11.760  0.00  0.00    +0.000 A 
ATOM      4  C   UNL     1      47.700   7.315  11.378  0.00  0.00    +0.000 A 
ATOM      5  C   UNL     1      46.705   6.970  12.308  0.00  0.00    +0.000 A 
ATOM      6  C   UNL     1      47.077   6.703  13.627  0.00  0.00    +0.000 A 
ENDROOT
BRANCH   1   7
ATOM      7  C   UNL     1      48.808   6.502  15.455  0.00  0.00    +0.000 C 
BRANCH   7   8
ATOM      8  O   UNL     1      47.739   5.774  16.066  0.00  0.00    +0.000 OA
ATOM      9  H   UNL     1      48.153   5.057  16.578  0.00  0.00    +0.000 HD
ENDBRANCH   7   8
BRANCH   7  10
ATOM     10  C   UNL     1      49.108   7.819  16.212  0.00  0.00    +0.000 C 
BRANCH  10  11
ATOM     11  N   UNL     1      47.888   8.464  16.715  0.00  0.00    +0.000 NA
ATOM     12  H   UNL     1      47.131   8.291  16.051  0.00  0.00    +0.000 HD
ATOM     13  H   UNL     1      48.021   9.476  16.716  0.00  0.00    +0.000 HD
ENDBRANCH  10  11
ENDBRANCH   7  10
ENDBRANCH   1   7
BRANCH   5  14
ATOM     14  C   UNL     1      45.253   6.984  11.919  0.00  0.00    +0.000 C 
BRANCH  14  15
ATOM     15  C   UNL     1      44.779   5.590  11.698  0.00  0.00    +0.000 A 
ATOM     16  C   UNL     1      44.259   4.692  12.614  0.00  0.00    +0.000 A 
ATOM     17  O   UNL     1      44.241   3.432  12.107  0.00  0.00    +0.000 OA
ATOM     18  C   UNL     1      44.728   3.510  10.839  0.00  0.00    +0.000 A 
ATOM     19  C   UNL     1      45.007   2.428  10.007  0.00  0.00    +0.000 A 
ATOM     20  C   UNL     1      45.512   2.731   8.738  0.00  0.00    +0.000 A 
ATOM     21  C   UNL     1      45.664   4.055   8.317  0.00  0.00    +0.000 A 
ATOM     22  C   UNL     1      45.388   5.120   9.185  0.00  0.00    +0.000 A 
ATOM     23  C   UNL     1      44.958   4.835  10.494  0.00  0.00    +0.000 A 
ENDBRANCH  14  15
ENDBRANCH   5  14
TORSDOF 6
ENDMDL
MODEL 8
REMARK VINA RESULT:    -5.841      2.891      4.789
REMARK INTER + INTRA:          -7.943
REMARK INTER:                  -7.222
REMARK INTRA:                  -0.721
REMARK UNBOUND:                -0.394
REMARK  Name = 
REMARK  6 active torsions:
REMARK  status: ('A' for Active; 'I' for Inactive)
REMARK    1  A    between atoms: N_1  and  C_2
REMARK    2  A    between atoms: C_2  and  C_3
REMARK    3  A    between atoms: C_3  and  O_4
REMARK    4  A    between atoms: C_3  and  C_5
REMARK    5  A    between atoms: C_9  and  C_10
REMARK    6  A    between atoms: C_10  and  C_11
REMARK                            x       y       z     vdW  Elec       q    Type
REMARK                         _______ _______ _______ _____ _____    ______ ____
ROOT
ATOM      1  C   UNL     1      48.440   6.687  14.322  0.00  0.00    +0.000 A 
ATOM      2  C   UNL     1      49.571   7.349  13.804  0.00  0.00    +0.000 A 
ATOM      3  C   UNL     1      49.533   7.918  12.539  0.00  0.00    +0.000 A 
ATOM      4  C   UNL     1      48.360   7.849  11.785  0.00  0.00    +0.000 A 
ATOM      5  C   UNL     1      47.216   7.206  12.287  0.00  0.00    +0.000 A 
ATOM      6  C   UNL     1      47.270   6.627  13.556  0.00  0.00    +0.000 A 
ENDROOT
BRANCH   1   7
ATOM      7  C   UNL     1      48.484   6.069  15.699  0.00  0.00    +0.000 C 
BRANCH   7   8
ATOM      8  O   UNL     1      49.854   5.826  16.026  0.00  0.00    +0.000 OA
ATOM      9  H   UNL     1      50.237   5.349  15.269  0.00  0.00    +0.000 HD
ENDBRANCH   7   8
BRANCH   7  10
ATOM     10  C   UNL     1      47.644   4.769  15.749  0.00  0.00    +0.000 C 
BRANCH  10  11
ATOM     11  N   UNL     1      48.410   3.631  16.277  0.00  0.00    +0.000 NA
ATOM     12  H   UNL     1      47.939   2.767  16.003  0.00  0.00    +0.000 HD
ATOM     13  H   UNL     1      48.372   3.648  17.297  0.00  0.00    +0.000 HD
ENDBRANCH  10  11
ENDBRANCH   7  10
ENDBRANCH   1   7
BRANCH   5  14
ATOM     14  C   UNL     1      45.925   7.224  11.517  0.00  0.00    +0.000 C 
BRANCH  14  15
ATOM     15  C   UNL     1      45.716   5.907  10.855  0.00  0.00    +0.000 A 
ATOM     16  C   UNL     1      45.964   5.544   9.542  0.00  0.00    +0.000 A 
ATOM     17  O   UNL     1      45.355   4.369   9.237  0.00  0.00    +0.000 OA
ATOM     18  C   UNL     1      44.726   3.946  10.366  0.00  0.00    +0.000 A 
ATOM     19  C   UNL     1      43.870   2.851  10.458  0.00  0.00    +0.000 A 
ATOM     20  C   UNL     1      43.320   2.593  11.718  0.00  0.00    +0.000 A 
ATOM     21  C   UNL     1      43.669   3.362  12.830  0.00  0.00    +0.000 A 
ATOM     22  C   UNL     1      44.522   4.467  12.701  0.00  0.00    +0.000 A 
ATOM     23  C   UNL     1      45.020   4.793  11.426  0.00  0.00    +0.000 A 
ENDBRANCH  14  15
ENDBRANCH   5  14
TORSDOF 6
ENDMDL
MODEL 9
REMARK VINA RESULT:    -5.762      4.102      6.588
REMARK INTER + INTRA:          -7.840
REMARK INTER:                  -7.206
REMARK INTRA:                  -0.634
REMARK UNBOUND:                -0.394
REMARK  Name = 
REMARK  6 active torsions:
REMARK  status: ('A' for Active; 'I' for Inactive)
REMARK    1  A    between atoms: N_1  and  C_2
REMARK    2  A    between atoms: C_2  and  C_3
REMARK    3  A    between atoms: C_3  and  O_4
REMARK    4  A    between atoms: C_3  and  C_5
REMARK    5  A    between atoms: C_9  and  C_10
REMARK    6  A    between atoms: C_10  and  C_11
REMARK                            x       y       z     vdW  Elec       q    Type
REMARK                         _______ _______ _______ _____ _____    ______ ____
ROOT
ATOM      1  C   UNL     1      44.249   5.210  11.934  0.00  0.00    +0.000 A 
ATOM      2  C   UNL     1      44.808   4.937  10.670  0.00  0.00    +0.000 A 
ATOM      3  C   UNL     1      45.877   5.687  10.200  0.00  0.00    +0.000 A 
ATOM      4  C   UNL     1      46.411   6.704  10.993  0.00  0.00    +0.000 A 
ATOM      5  C   UNL     1      45.878   6.985  12.262  0.00  0.00    +0.000 A 
ATOM      6  C   UNL     1      44.795   6.232  12.720  0.00  0.00    +0.000 A 
ENDROOT
BRANCH   1   7
ATOM      7  C   UNL     1      43.087   4.393  12.445  0.00  0.00    +0.000 C 
BRANCH   7   8
ATOM      8  O   UNL     1      42.643   4.982  13.670  0.00  0.00    +0.000 OA
ATOM      9  H   UNL     1      43.226   4.636  14.368  0.00  0.00    +0.000 HD
ENDBRANCH   7   8
BRANCH   7  10
ATOM     10  C   UNL     1      43.495   2.911  12.638  0.00  0.00    +0.000 C 
BRANCH  10  11
ATOM     11  N   UNL     1      42.979   2.047  11.568  0.00  0.00    +0.000 NA
ATOM     12  H   UNL     1      43.247   1.082  11.770  0.00  0.00    +0.000 HD
ATOM     13  H   UNL     1      43.452   2.280  10.693  0.00  0.00    +0.000 HD
ENDBRANCH  10  11
ENDBRANCH   7  10
ENDBRANCH   1   7
BRANCH   5  14
ATOM     14  C   UNL     1      46.519   8.009  13.155  0.00  0.00    +0.000 C 
BRANCH  14  15
ATOM     15  C   UNL     1      47.940   7.641  13.404  0.00  0.00    +0.000 A 
ATOM     16  C   UNL     1      48.470   6.847  14.405  0.00  0.00    +0.000 A 
ATOM     17  O   UNL     1      49.817   7.004  14.493  0.00  0.00    +0.000 OA
ATOM     18  C   UNL     1      50.174   7.889  13.524  0.00  0.00    +0.000 A 
ATOM     19  C   UNL     1      51.443   8.435  13.348  0.00  0.00    +0.000 A 
ATOM     20  C   UNL     1      51.594   9.337  12.289  0.00  0.00    +0.000 A 
ATOM     21  C   UNL     1      50.535   9.616  11.422  0.00  0.00    +0.000 A 
ATOM     22  C   UNL     1      49.266   9.062  11.635  0.00  0.00    +0.000 A 
ATOM     23  C   UNL     1      49.073   8.218  12.744  0.00  0.00    +0.000 A 
ENDBRANCH  14  15
ENDBRANCH   5  14
TORSDOF 6
ENDMDL
