MODEL 1
REMARK VINA RESULT:    -8.983      0.000      0.000
REMARK INTER + INTRA:         -13.242
REMARK INTER:                 -12.397
REMARK INTRA:                  -0.845
REMARK UNBOUND:                -0.845
REMARK  Name = 
REMARK  7 active torsions:
REMARK  status: ('A' for Active; 'I' for Inactive)
REMARK    1  A    between atoms: C_2  and  O_3
REMARK    2  A    between atoms: C_2  and  C_4
REMARK    3  A    between atoms: C_7  and  O_8
REMARK    4  A    between atoms: O_8  and  C_9
REMARK    5  A    between atoms: C_9  and  C_10
REMARK    6  A    between atoms: C_10  and  C_13
REMARK    7  A    between atoms: C_18  and  N_19
REMARK                            x       y       z     vdW  Elec       q    Type
REMARK                         _______ _______ _______ _____ _____    ______ ____
ROOT
ATOM      1  C   UNL     1      43.854   4.569  12.412  0.00  0.00    +0.000 C 
ATOM      2  F   UNL     1      42.878   5.279  13.055  0.00  0.00    +0.000 F 
ATOM      3  F   UNL     1      43.721   3.286  12.861  0.00  0.00    +0.000 F 
ENDROOT
BRANCH   1   4
ATOM      4  C   UNL     1      45.237   5.128  12.708  0.00  0.00    +0.000 A 
ATOM      5  C   UNL     1      45.837   6.046  11.848  0.00  0.00    +0.000 A 
ATOM      6  C   UNL     1      47.097   6.554  12.149  0.00  0.00    +0.000 A 
ATOM      7  C   UNL     1      47.766   6.179  13.326  0.00  0.00    +0.000 A 
ATOM      8 CL   UNL     1      49.251   7.039  13.601  0.00  0.00    +0.000 Cl
ATOM      9  C   UNL     1      47.200   5.253  14.236  0.00  0.00    +0.000 A 
ATOM     10  C   UNL     1      45.937   4.732  13.865  0.00  0.00    +0.000 A 
BRANCH   9  11
ATOM     11  N   UNL     1      47.756   4.873  15.454  0.00  0.00    +0.000 N 
ATOM     12  C   UNL     1      47.708   3.481  15.922  0.00  0.00    +0.000 C 
ATOM     13  C   UNL     1      47.163   3.443  17.349  0.00  0.00    +0.000 C 
ATOM     14  C   UNL     1      47.933   4.376  18.281  0.00  0.00    +0.000 C 
ATOM     15  C   UNL     1      48.030   5.786  17.697  0.00  0.00    +0.000 C 
ATOM     16  C   UNL     1      48.594   5.752  16.275  0.00  0.00    +0.000 C 
ENDBRANCH   9  11
ENDBRANCH   1   4
BRANCH   1  17
ATOM     17  C   UNL     1      43.569   4.599  10.907  0.00  0.00    +0.000 C 
BRANCH  17  18
ATOM     18  O   UNL     1      43.527   3.266  10.356  0.00  0.00    +0.000 OA
BRANCH  18  22
ATOM     19  C   UNL     1      46.494   2.723   7.554  0.00  0.00    +0.000 A 
ATOM     20  C   UNL     1      45.969   3.999   7.759  0.00  0.00    +0.000 A 
ATOM     21  C   UNL     1      44.969   4.176   8.717  0.00  0.00    +0.000 A 
ATOM     22  C   UNL     1      44.522   3.067   9.421  0.00  0.00    +0.000 A 
ATOM     23  N   UNL     1      45.007   1.820   9.230  0.00  0.00    +0.000 NA
ATOM     24  C   UNL     1      45.972   1.671   8.295  0.00  0.00    +0.000 A 
BRANCH  19  26
ATOM     25  O   UNL     1      48.371   1.543   6.725  0.00  0.00    +0.000 OA
ATOM     26  C   UNL     1      47.547   2.423   6.558  0.00  0.00    +0.000 C 
BRANCH  26  27
ATOM     27  O   UNL     1      47.525   3.237   5.489  0.00  0.00    +0.000 OA
ATOM     28  H   UNL     1      48.279   3.850   5.402  0.00  0.00    +0.000 HD
ENDBRANCH  26  27
ENDBRANCH  19  26
ENDBRANCH  18  22
ENDBRANCH  17  18
ENDBRANCH   1  17
TORSDOF 7
ENDMDL
MODEL 2
REMARK VINA RESULT:    -8.120      1.965      3.610
REMARK INTER + INTRA:         -12.050
REMARK INTER:                 -11.035
REMARK INTRA:                  -1.015
REMARK UNBOUND:                -0.845
REMARK  Name = 
REMARK  7 active torsions:
REMARK  status: ('A' for Active; 'I' for Inactive)
REMARK    1  A    between atoms: C_2  and  O_3
REMARK    2  A    between atoms: C_2  and  C_4
REMARK    3  A    between atoms: C_7  and  O_8
REMARK    4  A    between atoms: O_8  and  C_9
REMARK    5  A    between atoms: C_9  and  C_10
REMARK    6  A    between atoms: C_10  and  C_13
REMARK    7  A    between atoms: C_18  and  N_19
REMARK                            x       y       z     vdW  Elec       q    Type
REMARK                         _______ _______ _______ _____ _____    ______ ____
ROOT
ATOM      1  C   UNL     1      45.282   4.181  12.665  0.00  0.00    +0.000 C 
ATOM      2  F   UNL     1      44.071   4.081  13.294  0.00  0.00    +0.000 F 
ATOM      3  F   UNL     1      45.637   2.896  12.362  0.00  0.00    +0.000 F 
ENDROOT
BRANCH   1   4
ATOM      4  C   UNL     1      46.316   4.856  13.552  0.00  0.00    +0.000 A 
ATOM      5  C   UNL     1      46.702   4.284  14.764  0.00  0.00    +0.000 A 
ATOM      6  C   UNL     1      47.661   4.913  15.550  0.00  0.00    +0.000 A 
ATOM      7  C   UNL     1      48.274   6.106  15.130  0.00  0.00    +0.000 A 
ATOM      8 CL   UNL     1      49.554   6.650  16.170  0.00  0.00    +0.000 Cl
ATOM      9  C   UNL     1      47.922   6.727  13.906  0.00  0.00    +0.000 A 
ATOM     10  C   UNL     1      46.911   6.072  13.162  0.00  0.00    +0.000 A 
BRANCH   9  11
ATOM     11  N   UNL     1      48.518   7.867  13.378  0.00  0.00    +0.000 N 
ATOM     12  C   UNL     1      47.883   9.188  13.485  0.00  0.00    +0.000 C 
ATOM     13  C   UNL     1      47.837   9.844  12.105  0.00  0.00    +0.000 C 
ATOM     14  C   UNL     1      49.211   9.878  11.441  0.00  0.00    +0.000 C 
ATOM     15  C   UNL     1      49.861   8.493  11.442  0.00  0.00    +0.000 C 
ATOM     16  C   UNL     1      49.886   7.902  12.853  0.00  0.00    +0.000 C 
ENDBRANCH   9  11
ENDBRANCH   1   4
BRANCH   1  17
ATOM     17  C   UNL     1      45.092   4.962  11.361  0.00  0.00    +0.000 C 
BRANCH  17  18
ATOM     18  O   UNL     1      44.311   4.210  10.410  0.00  0.00    +0.000 OA
BRANCH  18  22
ATOM     19  C   UNL     1      46.612   2.759   7.319  0.00  0.00    +0.000 A 
ATOM     20  C   UNL     1      45.986   1.864   8.188  0.00  0.00    +0.000 A 
ATOM     21  C   UNL     1      45.201   2.364   9.228  0.00  0.00    +0.000 A 
ATOM     22  C   UNL     1      45.085   3.740   9.369  0.00  0.00    +0.000 A 
ATOM     23  N   UNL     1      45.692   4.625   8.548  0.00  0.00    +0.000 NA
ATOM     24  C   UNL     1      46.451   4.119   7.549  0.00  0.00    +0.000 A 
BRANCH  19  26
ATOM     25  O   UNL     1      48.320   1.469   6.308  0.00  0.00    +0.000 OA
ATOM     26  C   UNL     1      47.473   2.337   6.193  0.00  0.00    +0.000 C 
BRANCH  26  27
ATOM     27  O   UNL     1      47.258   3.028   5.061  0.00  0.00    +0.000 OA
ATOM     28  H   UNL     1      46.483   2.755   4.534  0.00  0.00    +0.000 HD
ENDBRANCH  26  27
ENDBRANCH  19  26
ENDBRANCH  18  22
ENDBRANCH  17  18
ENDBRANCH   1  17
TORSDOF 7
ENDMDL
MODEL 3
REMARK VINA RESULT:    -7.504      1.640      2.484
REMARK INTER + INTRA:         -11.200
REMARK INTER:                 -10.277
REMARK INTRA:                  -0.924
REMARK UNBOUND:                -0.845
REMARK  Name = 
REMARK  7 active torsions:
REMARK  status: ('A' for Active; 'I' for Inactive)
REMARK    1  A    between atoms: C_2  and  O_3
REMARK    2  A    between atoms: C_2  and  C_4
REMARK    3  A    between atoms: C_7  and  O_8
REMARK    4  A    between atoms: O_8  and  C_9
REMARK    5  A    between atoms: C_9  and  C_10
REMARK    6  A    between atoms: C_10  and  C_13
REMARK    7  A    between atoms: C_18  and  N_19
REMARK                            x       y       z     vdW  Elec       q    Type
REMARK                         _______ _______ _______ _____ _____    ______ ____
ROOT
ATOM      1  C   UNL     1      45.344   6.243  12.065  0.00  0.00    +0.000 C 
ATOM      2  F   UNL     1      44.931   6.978  10.988  0.00  0.00    +0.000 F 
ATOM      3  F   UNL     1      44.423   6.490  13.044  0.00  0.00    +0.000 F 
ENDROOT
BRANCH   1   4
ATOM      4  C   UNL     1      46.747   6.634  12.502  0.00  0.00    +0.000 A 
ATOM      5  C   UNL     1      47.653   7.180  11.593  0.00  0.00    +0.000 A 
ATOM      6  C   UNL     1      48.926   7.543  12.021  0.00  0.00    +0.000 A 
ATOM      7  C   UNL     1      49.308   7.397  13.365  0.00  0.00    +0.000 A 
ATOM      8 CL   UNL     1      50.874   8.052  13.732  0.00  0.00    +0.000 Cl
ATOM      9  C   UNL     1      48.425   6.851  14.330  0.00  0.00    +0.000 A 
ATOM     10  C   UNL     1      47.157   6.457  13.837  0.00  0.00    +0.000 A 
BRANCH   9  11
ATOM     11  N   UNL     1      48.690   6.729  15.690  0.00  0.00    +0.000 N 
ATOM     12  C   UNL     1      48.873   7.908  16.548  0.00  0.00    +0.000 C 
ATOM     13  C   UNL     1      50.166   7.759  17.348  0.00  0.00    +0.000 C 
ATOM     14  C   UNL     1      50.220   6.436  18.107  0.00  0.00    +0.000 C 
ATOM     15  C   UNL     1      49.930   5.253  17.180  0.00  0.00    +0.000 C 
ATOM     16  C   UNL     1      48.618   5.461  16.423  0.00  0.00    +0.000 C 
ENDBRANCH   9  11
ENDBRANCH   1   4
BRANCH   1  17
ATOM     17  C   UNL     1      45.286   4.758  11.693  0.00  0.00    +0.000 C 
BRANCH  17  18
ATOM     18  O   UNL     1      44.435   4.538  10.549  0.00  0.00    +0.000 OA
BRANCH  18  22
ATOM     19  C   UNL     1      46.508   2.892   7.396  0.00  0.00    +0.000 A 
ATOM     20  C   UNL     1      45.836   2.055   8.287  0.00  0.00    +0.000 A 
ATOM     21  C   UNL     1      45.128   2.621   9.349  0.00  0.00    +0.000 A 
ATOM     22  C   UNL     1      45.134   4.002   9.487  0.00  0.00    +0.000 A 
ATOM     23  N   UNL     1      45.789   4.831   8.644  0.00  0.00    +0.000 NA
ATOM     24  C   UNL     1      46.471   4.261   7.625  0.00  0.00    +0.000 A 
BRANCH  19  26
ATOM     25  O   UNL     1      47.133   2.815   5.113  0.00  0.00    +0.000 OA
ATOM     26  C   UNL     1      47.296   2.396   6.245  0.00  0.00    +0.000 C 
BRANCH  26  27
ATOM     27  O   UNL     1      48.165   1.423   6.566  0.00  0.00    +0.000 OA
ATOM     28  H   UNL     1      48.234   0.685   5.932  0.00  0.00    +0.000 HD
ENDBRANCH  26  27
ENDBRANCH  19  26
ENDBRANCH  18  22
ENDBRANCH  17  18
ENDBRANCH   1  17
TORSDOF 7
ENDMDL
MODEL 4
REMARK VINA RESULT:    -7.311      3.812      5.946
REMARK INTER + INTRA:         -10.934
REMARK INTER:                 -10.056
REMARK INTRA:                  -0.878
REMARK UNBOUND:                -0.845
REMARK  Name = 
REMARK  7 active torsions:
REMARK  status: ('A' for Active; 'I' for Inactive)
REMARK    1  A    between atoms: C_2  and  O_3
REMARK    2  A    between atoms: C_2  and  C_4
REMARK    3  A    between atoms: C_7  and  O_8
REMARK    4  A    between atoms: O_8  and  C_9
REMARK    5  A    between atoms: C_9  and  C_10
REMARK    6  A    between atoms: C_10  and  C_13
REMARK    7  A    between atoms: C_18  and  N_19
REMARK                            x       y       z     vdW  Elec       q    Type
REMARK                         _______ _______ _______ _____ _____    ______ ____
ROOT
ATOM      1  C   UNL     1      48.106   3.042  16.713  0.00  0.00    +0.000 C 
ATOM      2  F   UNL     1      47.170   2.456  17.520  0.00  0.00    +0.000 F 
ATOM      3  F   UNL     1      48.695   2.011  16.037  0.00  0.00    +0.000 F 
ENDROOT
BRANCH   1   4
ATOM      4  C   UNL     1      49.120   3.837  17.519  0.00  0.00    +0.000 A 
ATOM      5  C   UNL     1      50.451   3.426  17.599  0.00  0.00    +0.000 A 
ATOM      6  C   UNL     1      51.363   4.179  18.331  0.00  0.00    +0.000 A 
ATOM      7  C   UNL     1      50.974   5.367  18.971  0.00  0.00    +0.000 A 
ATOM      8 CL   UNL     1      52.286   6.243  19.698  0.00  0.00    +0.000 Cl
ATOM      9  C   UNL     1      49.636   5.832  18.919  0.00  0.00    +0.000 A 
ATOM     10  C   UNL     1      48.737   5.010  18.198  0.00  0.00    +0.000 A 
BRANCH   9  11
ATOM     11  N   UNL     1      49.173   7.025  19.463  0.00  0.00    +0.000 N 
ATOM     12  C   UNL     1      48.936   7.173  20.906  0.00  0.00    +0.000 C 
ATOM     13  C   UNL     1      47.535   7.739  21.136  0.00  0.00    +0.000 C 
ATOM     14  C   UNL     1      47.299   9.022  20.342  0.00  0.00    +0.000 C 
ATOM     15  C   UNL     1      47.652   8.833  18.866  0.00  0.00    +0.000 C 
ATOM     16  C   UNL     1      49.068   8.278  18.708  0.00  0.00    +0.000 C 
ENDBRANCH   9  11
ENDBRANCH   1   4
BRANCH   1  17
ATOM     17  C   UNL     1      47.386   3.946  15.706  0.00  0.00    +0.000 C 
BRANCH  17  18
ATOM     18  O   UNL     1      47.414   3.378  14.380  0.00  0.00    +0.000 OA
BRANCH  18  22
ATOM     19  C   UNL     1      44.337   4.838  12.067  0.00  0.00    +0.000 A 
ATOM     20  C   UNL     1      45.048   5.709  12.893  0.00  0.00    +0.000 A 
ATOM     21  C   UNL     1      46.096   5.208  13.668  0.00  0.00    +0.000 A 
ATOM     22  C   UNL     1      46.380   3.851  13.599  0.00  0.00    +0.000 A 
ATOM     23  N   UNL     1      45.697   2.987  12.817  0.00  0.00    +0.000 NA
ATOM     24  C   UNL     1      44.684   3.493  12.077  0.00  0.00    +0.000 A 
BRANCH  19  26
ATOM     25  O   UNL     1      42.142   5.635  11.679  0.00  0.00    +0.000 OA
ATOM     26  C   UNL     1      43.204   5.262  11.215  0.00  0.00    +0.000 C 
BRANCH  26  27
ATOM     27  O   UNL     1      43.450   5.155   9.899  0.00  0.00    +0.000 OA
ATOM     28  H   UNL     1      42.829   4.599   9.391  0.00  0.00    +0.000 HD
ENDBRANCH  26  27
ENDBRANCH  19  26
ENDBRANCH  18  22
ENDBRANCH  17  18
ENDBRANCH   1  17
TORSDOF 7
ENDMDL
MODEL 5
REMARK VINA RESULT:    -7.081      3.871      8.205
REMARK INTER + INTRA:         -10.617
REMARK INTER:                 -10.036
REMARK INTRA:                  -0.581
REMARK UNBOUND:                -0.845
REMARK  Name = 
REMARK  7 active torsions:
REMARK  status: ('A' for Active; 'I' for Inactive)
REMARK    1  A    between atoms: C_2  and  O_3
REMARK    2  A    between atoms: C_2  and  C_4
REMARK    3  A    between atoms: C_7  and  O_8
REMARK    4  A    between atoms: O_8  and  C_9
REMARK    5  A    between atoms: C_9  and  C_10
REMARK    6  A    between atoms: C_10  and  C_13
REMARK    7  A    between atoms: C_18  and  N_19
REMARK                            x       y       z     vdW  Elec       q    Type
REMARK                         _______ _______ _______ _____ _____    ______ ____
ROOT
ATOM      1  C   UNL     1      46.757   7.305  12.269  0.00  0.00    +0.000 C 
ATOM      2  F   UNL     1      46.015   8.443  12.104  0.00  0.00    +0.000 F 
ATOM      3  F   UNL     1      47.740   7.376  11.322  0.00  0.00    +0.000 F 
ENDROOT
BRANCH   1   4
ATOM      4  C   UNL     1      45.907   6.055  12.104  0.00  0.00    +0.000 A 
ATOM      5  C   UNL     1      45.064   5.623  13.128  0.00  0.00    +0.000 A 
ATOM      6  C   UNL     1      44.285   4.485  12.946  0.00  0.00    +0.000 A 
ATOM      7  C   UNL     1      44.310   3.776  11.734  0.00  0.00    +0.000 A 
ATOM      8 CL   UNL     1      43.154   2.482  11.646  0.00  0.00    +0.000 Cl
ATOM      9  C   UNL     1      45.145   4.174  10.661  0.00  0.00    +0.000 A 
ATOM     10  C   UNL     1      45.950   5.312  10.909  0.00  0.00    +0.000 A 
BRANCH   9  11
ATOM     11  N   UNL     1      45.189   3.576   9.406  0.00  0.00    +0.000 N 
ATOM     12  C   UNL     1      44.905   2.146   9.224  0.00  0.00    +0.000 C 
ATOM     13  C   UNL     1      46.031   1.503   8.414  0.00  0.00    +0.000 C 
ATOM     14  C   UNL     1      46.292   2.247   7.106  0.00  0.00    +0.000 C 
ATOM     15  C   UNL     1      46.486   3.744   7.349  0.00  0.00    +0.000 C 
ATOM     16  C   UNL     1      45.320   4.324   8.151  0.00  0.00    +0.000 C 
ENDBRANCH   9  11
ENDBRANCH   1   4
BRANCH   1  17
ATOM     17  C   UNL     1      47.404   7.342  13.657  0.00  0.00    +0.000 C 
BRANCH  17  18
ATOM     18  O   UNL     1      48.290   6.219  13.851  0.00  0.00    +0.000 OA
BRANCH  18  22
ATOM     19  C   UNL     1      48.388   5.035  17.793  0.00  0.00    +0.000 A 
ATOM     20  C   UNL     1      48.990   6.238  17.423  0.00  0.00    +0.000 A 
ATOM     21  C   UNL     1      48.944   6.636  16.085  0.00  0.00    +0.000 A 
ATOM     22  C   UNL     1      48.313   5.808  15.168  0.00  0.00    +0.000 A 
ATOM     23  N   UNL     1      47.736   4.633  15.501  0.00  0.00    +0.000 NA
ATOM     24  C   UNL     1      47.794   4.264  16.802  0.00  0.00    +0.000 A 
BRANCH  19  26
ATOM     25  O   UNL     1      48.498   5.241  20.149  0.00  0.00    +0.000 OA
ATOM     26  C   UNL     1      48.387   4.514  19.178  0.00  0.00    +0.000 C 
BRANCH  26  27
ATOM     27  O   UNL     1      48.295   3.176  19.251  0.00  0.00    +0.000 OA
ATOM     28  H   UNL     1      48.685   2.679  18.507  0.00  0.00    +0.000 HD
ENDBRANCH  26  27
ENDBRANCH  19  26
ENDBRANCH  18  22
ENDBRANCH  17  18
ENDBRANCH   1  17
TORSDOF 7
ENDMDL
MODEL 6
REMARK VINA RESULT:    -6.957      4.046      6.426
REMARK INTER + INTRA:         -10.445
REMARK INTER:                  -9.639
REMARK INTRA:                  -0.806
REMARK UNBOUND:                -0.845
REMARK  Name = 
REMARK  7 active torsions:
REMARK  status: ('A' for Active; 'I' for Inactive)
REMARK    1  A    between atoms: C_2  and  O_3
REMARK    2  A    between atoms: C_2  and  C_4
REMARK    3  A    between atoms: C_7  and  O_8
REMARK    4  A    between atoms: O_8  and  C_9
REMARK    5  A    between atoms: C_9  and  C_10
REMARK    6  A    between atoms: C_10  and  C_13
REMARK    7  A    between atoms: C_18  and  N_19
REMARK                            x       y       z     vdW  Elec       q    Type
REMARK                         _______ _______ _______ _____ _____    ______ ____
ROOT
ATOM      1  C   UNL     1      48.001   3.074  16.832  0.00  0.00    +0.000 C 
ATOM      2  F   UNL     1      46.908   2.504  17.427  0.00  0.00    +0.000 F 
ATOM      3  F   UNL     1      48.669   2.039  16.241  0.00  0.00    +0.000 F 
ENDROOT
BRANCH   1   4
ATOM      4  C   UNL     1      48.872   3.801  17.844  0.00  0.00    +0.000 A 
ATOM      5  C   UNL     1      48.301   4.520  18.893  0.00  0.00    +0.000 A 
ATOM      6  C   UNL     1      49.119   5.164  19.815  0.00  0.00    +0.000 A 
ATOM      7  C   UNL     1      50.519   5.078  19.725  0.00  0.00    +0.000 A 
ATOM      8 CL   UNL     1      51.361   5.814  21.055  0.00  0.00    +0.000 Cl
ATOM      9  C   UNL     1      51.150   4.357  18.682  0.00  0.00    +0.000 A 
ATOM     10  C   UNL     1      50.276   3.756  17.745  0.00  0.00    +0.000 A 
BRANCH   9  11
ATOM     11  N   UNL     1      52.521   4.162  18.549  0.00  0.00    +0.000 N 
ATOM     12  C   UNL     1      53.427   5.267  18.209  0.00  0.00    +0.000 C 
ATOM     13  C   UNL     1      54.312   4.857  17.032  0.00  0.00    +0.000 C 
ATOM     14  C   UNL     1      55.030   3.534  17.291  0.00  0.00    +0.000 C 
ATOM     15  C   UNL     1      54.048   2.447  17.731  0.00  0.00    +0.000 C 
ATOM     16  C   UNL     1      53.206   2.919  18.918  0.00  0.00    +0.000 C 
ENDBRANCH   9  11
ENDBRANCH   1   4
BRANCH   1  17
ATOM     17  C   UNL     1      47.517   4.036  15.742  0.00  0.00    +0.000 C 
BRANCH  17  18
ATOM     18  O   UNL     1      47.487   3.392  14.451  0.00  0.00    +0.000 OA
BRANCH  18  22
ATOM     19  C   UNL     1      44.401   4.836  12.139  0.00  0.00    +0.000 A 
ATOM     20  C   UNL     1      45.122   5.715  12.948  0.00  0.00    +0.000 A 
ATOM     21  C   UNL     1      46.173   5.219  13.723  0.00  0.00    +0.000 A 
ATOM     22  C   UNL     1      46.450   3.860  13.670  0.00  0.00    +0.000 A 
ATOM     23  N   UNL     1      45.757   2.988  12.905  0.00  0.00    +0.000 NA
ATOM     24  C   UNL     1      44.741   3.490  12.165  0.00  0.00    +0.000 A 
BRANCH  19  26
ATOM     25  O   UNL     1      42.215   5.659  11.755  0.00  0.00    +0.000 OA
ATOM     26  C   UNL     1      43.265   5.254  11.289  0.00  0.00    +0.000 C 
BRANCH  26  27
ATOM     27  O   UNL     1      43.491   5.102   9.973  0.00  0.00    +0.000 OA
ATOM     28  H   UNL     1      42.768   4.698   9.458  0.00  0.00    +0.000 HD
ENDBRANCH  26  27
ENDBRANCH  19  26
ENDBRANCH  18  22
ENDBRANCH  17  18
ENDBRANCH   1  17
TORSDOF 7
ENDMDL
MODEL 7
REMARK VINA RESULT:    -6.742      4.633      6.154
REMARK INTER + INTRA:         -10.149
REMARK INTER:                  -8.644
REMARK INTRA:                  -1.505
REMARK UNBOUND:                -0.845
REMARK  Name = 
REMARK  7 active torsions:
REMARK  status: ('A' for Active; 'I' for Inactive)
REMARK    1  A    between atoms: C_2  and  O_3
REMARK    2  A    between atoms: C_2  and  C_4
REMARK    3  A    between atoms: C_7  and  O_8
REMARK    4  A    between atoms: O_8  and  C_9
REMARK    5  A    between atoms: C_9  and  C_10
REMARK    6  A    between atoms: C_10  and  C_13
REMARK    7  A    between atoms: C_18  and  N_19
REMARK                            x       y       z     vdW  Elec       q    Type
REMARK                         _______ _______ _______ _____ _____    ______ ____
ROOT
ATOM      1  C   UNL     1      49.287   8.677  14.678  0.00  0.00    +0.000 C 
ATOM      2  F   UNL     1      50.558   9.184  14.667  0.00  0.00    +0.000 F 
ATOM      3  F   UNL     1      48.482   9.717  14.307  0.00  0.00    +0.000 F 
ENDROOT
BRANCH   1   4
ATOM      4  C   UNL     1      48.913   8.139  16.050  0.00  0.00    +0.000 A 
ATOM      5  C   UNL     1      48.303   8.960  16.998  0.00  0.00    +0.000 A 
ATOM      6  C   UNL     1      47.956   8.440  18.240  0.00  0.00    +0.000 A 
ATOM      7  C   UNL     1      48.184   7.088  18.549  0.00  0.00    +0.000 A 
ATOM      8 CL   UNL     1      47.540   6.594  20.085  0.00  0.00    +0.000 Cl
ATOM      9  C   UNL     1      48.797   6.210  17.621  0.00  0.00    +0.000 A 
ATOM     10  C   UNL     1      49.170   6.796  16.388  0.00  0.00    +0.000 A 
BRANCH   9  11
ATOM     11  N   UNL     1      49.003   4.848  17.812  0.00  0.00    +0.000 N 
ATOM     12  C   UNL     1      50.241   4.332  18.410  0.00  0.00    +0.000 C 
ATOM     13  C   UNL     1      50.816   3.230  17.520  0.00  0.00    +0.000 C 
ATOM     14  C   UNL     1      49.786   2.146  17.215  0.00  0.00    +0.000 C 
ATOM     15  C   UNL     1      48.485   2.750  16.683  0.00  0.00    +0.000 C 
ATOM     16  C   UNL     1      47.960   3.834  17.627  0.00  0.00    +0.000 C 
ENDBRANCH   9  11
ENDBRANCH   1   4
BRANCH   1  17
ATOM     17  C   UNL     1      49.192   7.575  13.618  0.00  0.00    +0.000 C 
BRANCH  17  18
ATOM     18  O   UNL     1      48.172   7.875  12.642  0.00  0.00    +0.000 OA
BRANCH  18  22
ATOM     19  C   UNL     1      44.905   5.414  13.110  0.00  0.00    +0.000 A 
ATOM     20  C   UNL     1      46.149   4.999  13.584  0.00  0.00    +0.000 A 
ATOM     21  C   UNL     1      47.251   5.843  13.429  0.00  0.00    +0.000 A 
ATOM     22  C   UNL     1      47.067   7.062  12.791  0.00  0.00    +0.000 A 
ATOM     23  N   UNL     1      45.874   7.478  12.312  0.00  0.00    +0.000 NA
ATOM     24  C   UNL     1      44.821   6.643  12.470  0.00  0.00    +0.000 A 
BRANCH  19  26
ATOM     25  O   UNL     1      43.687   3.383  13.081  0.00  0.00    +0.000 OA
ATOM     26  C   UNL     1      43.677   4.594  13.212  0.00  0.00    +0.000 C 
BRANCH  26  27
ATOM     27  O   UNL     1      42.563   5.315  13.420  0.00  0.00    +0.000 OA
ATOM     28  H   UNL     1      42.046   5.085  14.215  0.00  0.00    +0.000 HD
ENDBRANCH  26  27
ENDBRANCH  19  26
ENDBRANCH  18  22
ENDBRANCH  17  18
ENDBRANCH   1  17
TORSDOF 7
ENDMDL
MODEL 8
REMARK VINA RESULT:    -6.706      3.292      4.754
REMARK INTER + INTRA:         -10.099
REMARK INTER:                  -8.905
REMARK INTRA:                  -1.194
REMARK UNBOUND:                -0.845
REMARK  Name = 
REMARK  7 active torsions:
REMARK  status: ('A' for Active; 'I' for Inactive)
REMARK    1  A    between atoms: C_2  and  O_3
REMARK    2  A    between atoms: C_2  and  C_4
REMARK    3  A    between atoms: C_7  and  O_8
REMARK    4  A    between atoms: O_8  and  C_9
REMARK    5  A    between atoms: C_9  and  C_10
REMARK    6  A    between atoms: C_10  and  C_13
REMARK    7  A    between atoms: C_18  and  N_19
REMARK                            x       y       z     vdW  Elec       q    Type
REMARK                         _______ _______ _______ _____ _____    ______ ____
ROOT
ATOM      1  C   UNL     1      48.663   7.550  12.865  0.00  0.00    +0.000 C 
ATOM      2  F   UNL     1      48.979   6.269  12.507  0.00  0.00    +0.000 F 
ATOM      3  F   UNL     1      49.624   8.333  12.288  0.00  0.00    +0.000 F 
ENDROOT
BRANCH   1   4
ATOM      4  C   UNL     1      48.637   7.716  14.376  0.00  0.00    +0.000 A 
ATOM      5  C   UNL     1      48.484   8.976  14.955  0.00  0.00    +0.000 A 
ATOM      6  C   UNL     1      48.448   9.100  16.340  0.00  0.00    +0.000 A 
ATOM      7  C   UNL     1      48.534   7.970  17.171  0.00  0.00    +0.000 A 
ATOM      8 CL   UNL     1      48.311   8.313  18.859  0.00  0.00    +0.000 Cl
ATOM      9  C   UNL     1      48.686   6.667  16.635  0.00  0.00    +0.000 A 
ATOM     10  C   UNL     1      48.761   6.598  15.223  0.00  0.00    +0.000 A 
BRANCH   9  11
ATOM     11  N   UNL     1      48.714   5.488  17.372  0.00  0.00    +0.000 N 
ATOM     12  C   UNL     1      49.960   4.973  17.955  0.00  0.00    +0.000 C 
ATOM     13  C   UNL     1      50.135   3.505  17.567  0.00  0.00    +0.000 C 
ATOM     14  C   UNL     1      48.905   2.671  17.916  0.00  0.00    +0.000 C 
ATOM     15  C   UNL     1      47.629   3.306  17.362  0.00  0.00    +0.000 C 
ATOM     16  C   UNL     1      47.511   4.767  17.799  0.00  0.00    +0.000 C 
ENDBRANCH   9  11
ENDBRANCH   1   4
BRANCH   1  17
ATOM     17  C   UNL     1      47.304   7.907  12.257  0.00  0.00    +0.000 C 
BRANCH  17  18
ATOM     18  O   UNL     1      46.220   7.396  13.061  0.00  0.00    +0.000 OA
BRANCH  18  22
ATOM     19  C   UNL     1      44.560   4.038  11.351  0.00  0.00    +0.000 A 
ATOM     20  C   UNL     1      45.155   5.001  10.535  0.00  0.00    +0.000 A 
ATOM     21  C   UNL     1      45.724   6.133  11.124  0.00  0.00    +0.000 A 
ATOM     22  C   UNL     1      45.659   6.265  12.504  0.00  0.00    +0.000 A 
ATOM     23  N   UNL     1      45.077   5.352  13.312  0.00  0.00    +0.000 NA
ATOM     24  C   UNL     1      44.529   4.266  12.721  0.00  0.00    +0.000 A 
BRANCH  19  26
ATOM     25  O   UNL     1      44.203   2.334   9.747  0.00  0.00    +0.000 OA
ATOM     26  C   UNL     1      43.920   2.810  10.832  0.00  0.00    +0.000 C 
BRANCH  26  27
ATOM     27  O   UNL     1      42.980   2.305  11.648  0.00  0.00    +0.000 OA
ATOM     28  H   UNL     1      43.170   2.358  12.604  0.00  0.00    +0.000 HD
ENDBRANCH  26  27
ENDBRANCH  19  26
ENDBRANCH  18  22
ENDBRANCH  17  18
ENDBRANCH   1  17
TORSDOF 7
ENDMDL
MODEL 9
REMARK VINA RESULT:    -6.670      3.471      5.714
REMARK INTER + INTRA:         -10.050
REMARK INTER:                  -8.628
REMARK INTRA:                  -1.422
REMARK UNBOUND:                -0.845
REMARK  Name = 
REMARK  7 active torsions:
REMARK  status: ('A' for Active; 'I' for Inactive)
REMARK    1  A    between atoms: C_2  and  O_3
REMARK    2  A    between atoms: C_2  and  C_4
REMARK    3  A    between atoms: C_7  and  O_8
REMARK    4  A    between atoms: O_8  and  C_9
REMARK    5  A    between atoms: C_9  and  C_10
REMARK    6  A    between atoms: C_10  and  C_13
REMARK    7  A    between atoms: C_18  and  N_19
REMARK                            x       y       z     vdW  Elec       q    Type
REMARK                         _______ _______ _______ _____ _____    ______ ____
ROOT
ATOM      1  C   UNL     1      48.295   3.913  17.102  0.00  0.00    +0.000 C 
ATOM      2  F   UNL     1      47.883   3.477  18.332  0.00  0.00    +0.000 F 
ATOM      3  F   UNL     1      49.302   3.063  16.738  0.00  0.00    +0.000 F 
ENDROOT
BRANCH   1   4
ATOM      4  C   UNL     1      48.768   5.357  17.152  0.00  0.00    +0.000 A 
ATOM      5  C   UNL     1      49.227   5.918  18.344  0.00  0.00    +0.000 A 
ATOM      6  C   UNL     1      49.669   7.237  18.361  0.00  0.00    +0.000 A 
ATOM      7  C   UNL     1      49.690   8.009  17.187  0.00  0.00    +0.000 A 
ATOM      8 CL   UNL     1      50.422   9.572  17.380  0.00  0.00    +0.000 Cl
ATOM      9  C   UNL     1      49.239   7.486  15.949  0.00  0.00    +0.000 A 
ATOM     10  C   UNL     1      48.759   6.155  15.992  0.00  0.00    +0.000 A 
BRANCH   9  11
ATOM     11  N   UNL     1      49.284   8.150  14.728  0.00  0.00    +0.000 N 
ATOM     12  C   UNL     1      48.308   9.192  14.382  0.00  0.00    +0.000 C 
ATOM     13  C   UNL     1      47.706   8.891  13.010  0.00  0.00    +0.000 C 
ATOM     14  C   UNL     1      48.781   8.681  11.946  0.00  0.00    +0.000 C 
ATOM     15  C   UNL     1      49.819   7.654  12.402  0.00  0.00    +0.000 C 
ATOM     16  C   UNL     1      50.389   8.024  13.772  0.00  0.00    +0.000 C 
ENDBRANCH   9  11
ENDBRANCH   1   4
BRANCH   1  17
ATOM     17  C   UNL     1      47.134   3.756  16.115  0.00  0.00    +0.000 C 
BRANCH  17  18
ATOM     18  O   UNL     1      47.594   3.256  14.842  0.00  0.00    +0.000 OA
BRANCH  18  22
ATOM     19  C   UNL     1      45.310   4.701  11.736  0.00  0.00    +0.000 A 
ATOM     20  C   UNL     1      46.149   5.571  12.434  0.00  0.00    +0.000 A 
ATOM     21  C   UNL     1      46.927   5.071  13.480  0.00  0.00    +0.000 A 
ATOM     22  C   UNL     1      46.822   3.724  13.799  0.00  0.00    +0.000 A 
ATOM     23  N   UNL     1      46.007   2.866  13.146  0.00  0.00    +0.000 NA
ATOM     24  C   UNL     1      45.260   3.372  12.138  0.00  0.00    +0.000 A 
BRANCH  19  26
ATOM     25  O   UNL     1      43.259   5.393  10.777  0.00  0.00    +0.000 OA
ATOM     26  C   UNL     1      44.437   5.127  10.620  0.00  0.00    +0.000 C 
BRANCH  26  27
ATOM     27  O   UNL     1      45.058   5.150   9.429  0.00  0.00    +0.000 OA
ATOM     28  H   UNL     1      44.731   4.515   8.764  0.00  0.00    +0.000 HD
ENDBRANCH  26  27
ENDBRANCH  19  26
ENDBRANCH  18  22
ENDBRANCH  17  18
ENDBRANCH   1  17
TORSDOF 7
ENDMDL
