MODEL 1
REMARK VINA RESULT:    -7.840      0.000      0.000
REMARK INTER + INTRA:         -10.469
REMARK INTER:                  -9.902
REMARK INTRA:                  -0.567
REMARK UNBOUND:                -0.567
REMARK  Name = 
REMARK  5 active torsions:
REMARK  status: ('A' for Active; 'I' for Inactive)
REMARK    1  A    between atoms: N_1  and  C_2
REMARK    2  A    between atoms: C_2  and  C_3
REMARK    3  A    between atoms: C_3  and  C_4
REMARK    4  A    between atoms: C_7  and  C_8
REMARK    5  A    between atoms: C_8  and  C_9
REMARK                            x       y       z     vdW  Elec       q    Type
REMARK                         _______ _______ _______ _____ _____    ______ ____
ROOT
ATOM      1  C   UNL     1      45.891   2.439   8.133  0.00  0.00    +0.000 A 
ATOM      2  C   UNL     1      45.951   3.832   7.998  0.00  0.00    +0.000 A 
ATOM      3  C   UNL     1      45.201   4.662   8.837  0.00  0.00    +0.000 A 
ATOM      4  C   UNL     1      44.370   4.120   9.828  0.00  0.00    +0.000 A 
ATOM      5  C   UNL     1      44.292   2.729   9.931  0.00  0.00    +0.000 A 
ATOM      6  F   UNL     1      43.492   2.172  10.853  0.00  0.00    +0.000 F 
ATOM      7  C   UNL     1      45.035   1.893   9.098  0.00  0.00    +0.000 A 
ENDROOT
BRANCH   1   8
ATOM      8  C   UNL     1      46.751   1.551   7.269  0.00  0.00    +0.000 C 
BRANCH   8   9
ATOM      9  C   UNL     1      48.049   2.228   6.819  0.00  0.00    +0.000 C 
BRANCH   9  10
ATOM     10  N   UNL     1      48.393   1.834   5.453  0.00  0.00    +0.000 NA
ATOM     11  H   UNL     1      48.355   2.652   4.845  0.00  0.00    +0.000 HD
ATOM     12  H   UNL     1      47.695   1.182   5.095  0.00  0.00    +0.000 HD
ENDBRANCH   9  10
ENDBRANCH   8   9
ENDBRANCH   1   8
BRANCH   4  13
ATOM     13  C   UNL     1      43.596   5.018  10.759  0.00  0.00    +0.000 C 
BRANCH  13  14
ATOM     14  C   UNL     1      44.609   5.721  11.614  0.00  0.00    +0.000 A 
ATOM     15  C   UNL     1      45.516   5.076  12.438  0.00  0.00    +0.000 A 
ATOM     16  S   UNL     1      46.538   6.150  13.280  0.00  0.00    +0.000 S 
ATOM     17  C   UNL     1      45.794   7.523  12.572  0.00  0.00    +0.000 A 
ATOM     18  C   UNL     1      46.113   8.877  12.759  0.00  0.00    +0.000 A 
ATOM     19  C   UNL     1      45.350   9.799  12.060  0.00  0.00    +0.000 A 
ATOM     20  F   UNL     1      45.608  11.107  12.178  0.00  0.00    +0.000 F 
ATOM     21  C   UNL     1      44.323   9.359  11.250  0.00  0.00    +0.000 A 
ATOM     22  N   UNL     1      43.987   8.066  11.051  0.00  0.00    +0.000 NA
ATOM     23  C   UNL     1      44.753   7.150  11.716  0.00  0.00    +0.000 A 
ENDBRANCH  13  14
ENDBRANCH   4  13
TORSDOF 5
ENDMDL
MODEL 2
REMARK VINA RESULT:    -7.816      2.422      3.159
REMARK INTER + INTRA:         -10.439
REMARK INTER:                  -9.966
REMARK INTRA:                  -0.473
REMARK UNBOUND:                -0.567
REMARK  Name = 
REMARK  5 active torsions:
REMARK  status: ('A' for Active; 'I' for Inactive)
REMARK    1  A    between atoms: N_1  and  C_2
REMARK    2  A    between atoms: C_2  and  C_3
REMARK    3  A    between atoms: C_3  and  C_4
REMARK    4  A    between atoms: C_7  and  C_8
REMARK    5  A    between atoms: C_8  and  C_9
REMARK                            x       y       z     vdW  Elec       q    Type
REMARK                         _______ _______ _______ _____ _____    ______ ____
ROOT
ATOM      1  C   UNL     1      46.187   2.258   7.945  0.00  0.00    +0.000 A 
ATOM      2  C   UNL     1      46.234   3.648   7.784  0.00  0.00    +0.000 A 
ATOM      3  C   UNL     1      45.441   4.484   8.577  0.00  0.00    +0.000 A 
ATOM      4  C   UNL     1      44.579   3.950   9.545  0.00  0.00    +0.000 A 
ATOM      5  C   UNL     1      44.515   2.560   9.673  0.00  0.00    +0.000 A 
ATOM      6  F   UNL     1      43.686   2.009  10.573  0.00  0.00    +0.000 F 
ATOM      7  C   UNL     1      45.301   1.718   8.885  0.00  0.00    +0.000 A 
ENDROOT
BRANCH   1   8
ATOM      8  C   UNL     1      47.092   1.365   7.132  0.00  0.00    +0.000 C 
BRANCH   8   9
ATOM      9  C   UNL     1      48.327   2.094   6.595  0.00  0.00    +0.000 C 
BRANCH   9  10
ATOM     10  N   UNL     1      48.373   2.029   5.134  0.00  0.00    +0.000 NA
ATOM     11  H   UNL     1      47.874   2.827   4.744  0.00  0.00    +0.000 HD
ATOM     12  H   UNL     1      47.877   1.199   4.810  0.00  0.00    +0.000 HD
ENDBRANCH   9  10
ENDBRANCH   8   9
ENDBRANCH   1   8
BRANCH   4  13
ATOM     13  C   UNL     1      43.757   4.855  10.427  0.00  0.00    +0.000 C 
BRANCH  13  14
ATOM     14  C   UNL     1      44.729   5.614  11.283  0.00  0.00    +0.000 A 
ATOM     15  C   UNL     1      44.991   6.967  11.155  0.00  0.00    +0.000 A 
ATOM     16  S   UNL     1      46.141   7.537  12.275  0.00  0.00    +0.000 S 
ATOM     17  C   UNL     1      46.335   5.982  12.973  0.00  0.00    +0.000 A 
ATOM     18  C   UNL     1      47.156   5.609  14.048  0.00  0.00    +0.000 A 
ATOM     19  C   UNL     1      47.128   4.274  14.418  0.00  0.00    +0.000 A 
ATOM     20  F   UNL     1      47.873   3.849  15.446  0.00  0.00    +0.000 F 
ATOM     21  C   UNL     1      46.332   3.389  13.720  0.00  0.00    +0.000 A 
ATOM     22  N   UNL     1      45.534   3.714  12.679  0.00  0.00    +0.000 NA
ATOM     23  C   UNL     1      45.536   5.034  12.325  0.00  0.00    +0.000 A 
ENDBRANCH  13  14
ENDBRANCH   4  13
TORSDOF 5
ENDMDL
MODEL 3
REMARK VINA RESULT:    -7.548      0.909      1.033
REMARK INTER + INTRA:         -10.100
REMARK INTER:                  -9.496
REMARK INTRA:                  -0.603
REMARK UNBOUND:                -0.567
REMARK  Name = 
REMARK  5 active torsions:
REMARK  status: ('A' for Active; 'I' for Inactive)
REMARK    1  A    between atoms: N_1  and  C_2
REMARK    2  A    between atoms: C_2  and  C_3
REMARK    3  A    between atoms: C_3  and  C_4
REMARK    4  A    between atoms: C_7  and  C_8
REMARK    5  A    between atoms: C_8  and  C_9
REMARK                            x       y       z     vdW  Elec       q    Type
REMARK                         _______ _______ _______ _____ _____    ______ ____
ROOT
ATOM      1  C   UNL     1      45.907   2.575   8.047  0.00  0.00    +0.000 A 
ATOM      2  C   UNL     1      46.106   3.961   8.048  0.00  0.00    +0.000 A 
ATOM      3  C   UNL     1      45.482   4.770   9.003  0.00  0.00    +0.000 A 
ATOM      4  C   UNL     1      44.640   4.212   9.977  0.00  0.00    +0.000 A 
ATOM      5  C   UNL     1      44.423   2.833   9.945  0.00  0.00    +0.000 A 
ATOM      6  F   UNL     1      43.608   2.264  10.847  0.00  0.00    +0.000 F 
ATOM      7  C   UNL     1      45.039   2.019   8.995  0.00  0.00    +0.000 A 
ENDROOT
BRANCH   1   8
ATOM      8  C   UNL     1      46.633   1.700   7.054  0.00  0.00    +0.000 C 
BRANCH   8   9
ATOM      9  C   UNL     1      47.325   2.500   5.947  0.00  0.00    +0.000 C 
BRANCH   9  10
ATOM     10  N   UNL     1      48.545   1.823   5.503  0.00  0.00    +0.000 NA
ATOM     11  H   UNL     1      49.358   2.363   5.797  0.00  0.00    +0.000 HD
ATOM     12  H   UNL     1      48.574   1.799   4.483  0.00  0.00    +0.000 HD
ENDBRANCH   9  10
ENDBRANCH   8   9
ENDBRANCH   1   8
BRANCH   4  13
ATOM     13  C   UNL     1      44.004   5.081  11.032  0.00  0.00    +0.000 C 
BRANCH  13  14
ATOM     14  C   UNL     1      45.088   5.430  12.009  0.00  0.00    +0.000 A 
ATOM     15  C   UNL     1      45.713   4.516  12.840  0.00  0.00    +0.000 A 
ATOM     16  S   UNL     1      46.906   5.220  13.834  0.00  0.00    +0.000 S 
ATOM     17  C   UNL     1      46.622   6.782  13.187  0.00  0.00    +0.000 A 
ATOM     18  C   UNL     1      47.273   7.985  13.503  0.00  0.00    +0.000 A 
ATOM     19  C   UNL     1      46.848   9.118  12.829  0.00  0.00    +0.000 A 
ATOM     20  F   UNL     1      47.435  10.298  13.068  0.00  0.00    +0.000 F 
ATOM     21  C   UNL     1      45.817   9.023  11.917  0.00  0.00    +0.000 A 
ATOM     22  N   UNL     1      45.167   7.884  11.592  0.00  0.00    +0.000 NA
ATOM     23  C   UNL     1      45.599   6.757  12.234  0.00  0.00    +0.000 A 
ENDBRANCH  13  14
ENDBRANCH   4  13
TORSDOF 5
ENDMDL
MODEL 4
REMARK VINA RESULT:    -6.238      2.874      6.908
REMARK INTER + INTRA:          -8.446
REMARK INTER:                  -8.148
REMARK INTRA:                  -0.298
REMARK UNBOUND:                -0.567
REMARK  Name = 
REMARK  5 active torsions:
REMARK  status: ('A' for Active; 'I' for Inactive)
REMARK    1  A    between atoms: N_1  and  C_2
REMARK    2  A    between atoms: C_2  and  C_3
REMARK    3  A    between atoms: C_3  and  C_4
REMARK    4  A    between atoms: C_7  and  C_8
REMARK    5  A    between atoms: C_8  and  C_9
REMARK                            x       y       z     vdW  Elec       q    Type
REMARK                         _______ _______ _______ _____ _____    ______ ____
ROOT
ATOM      1  C   UNL     1      48.006   7.556  13.778  0.00  0.00    +0.000 A 
ATOM      2  C   UNL     1      47.907   6.391  13.008  0.00  0.00    +0.000 A 
ATOM      3  C   UNL     1      46.813   6.188  12.161  0.00  0.00    +0.000 A 
ATOM      4  C   UNL     1      45.789   7.142  12.068  0.00  0.00    +0.000 A 
ATOM      5  C   UNL     1      45.882   8.285  12.866  0.00  0.00    +0.000 A 
ATOM      6  F   UNL     1      44.913   9.211  12.821  0.00  0.00    +0.000 F 
ATOM      7  C   UNL     1      46.969   8.495  13.716  0.00  0.00    +0.000 A 
ENDROOT
BRANCH   1   8
ATOM      8  C   UNL     1      49.221   7.800  14.641  0.00  0.00    +0.000 C 
BRANCH   8   9
ATOM      9  C   UNL     1      49.395   6.747  15.738  0.00  0.00    +0.000 C 
BRANCH   9  10
ATOM     10  N   UNL     1      48.249   6.751  16.648  0.00  0.00    +0.000 NA
ATOM     11  H   UNL     1      47.583   6.037  16.356  0.00  0.00    +0.000 HD
ATOM     12  H   UNL     1      47.757   7.642  16.580  0.00  0.00    +0.000 HD
ENDBRANCH   9  10
ENDBRANCH   8   9
ENDBRANCH   1   8
BRANCH   4  13
ATOM     13  C   UNL     1      44.633   6.940  11.122  0.00  0.00    +0.000 C 
BRANCH  13  14
ATOM     14  C   UNL     1      44.416   5.458  11.024  0.00  0.00    +0.000 A 
ATOM     15  C   UNL     1      43.700   4.712  11.944  0.00  0.00    +0.000 A 
ATOM     16  S   UNL     1      43.629   3.054  11.553  0.00  0.00    +0.000 S 
ATOM     17  C   UNL     1      44.565   3.278  10.134  0.00  0.00    +0.000 A 
ATOM     18  C   UNL     1      44.950   2.316   9.186  0.00  0.00    +0.000 A 
ATOM     19  C   UNL     1      45.712   2.763   8.120  0.00  0.00    +0.000 A 
ATOM     20  F   UNL     1      46.102   1.904   7.170  0.00  0.00    +0.000 F 
ATOM     21  C   UNL     1      46.070   4.094   8.048  0.00  0.00    +0.000 A 
ATOM     22  N   UNL     1      45.720   5.044   8.943  0.00  0.00    +0.000 NA
ATOM     23  C   UNL     1      44.946   4.615   9.984  0.00  0.00    +0.000 A 
ENDBRANCH  13  14
ENDBRANCH   4  13
TORSDOF 5
ENDMDL
MODEL 5
REMARK VINA RESULT:    -5.727      3.242      6.269
REMARK INTER + INTRA:          -7.800
REMARK INTER:                  -7.668
REMARK INTRA:                  -0.132
REMARK UNBOUND:                -0.567
REMARK  Name = 
REMARK  5 active torsions:
REMARK  status: ('A' for Active; 'I' for Inactive)
REMARK    1  A    between atoms: N_1  and  C_2
REMARK    2  A    between atoms: C_2  and  C_3
REMARK    3  A    between atoms: C_3  and  C_4
REMARK    4  A    between atoms: C_7  and  C_8
REMARK    5  A    between atoms: C_8  and  C_9
REMARK                            x       y       z     vdW  Elec       q    Type
REMARK                         _______ _______ _______ _____ _____    ______ ____
ROOT
ATOM      1  C   UNL     1      48.455   7.069  12.984  0.00  0.00    +0.000 A 
ATOM      2  C   UNL     1      47.954   7.686  11.831  0.00  0.00    +0.000 A 
ATOM      3  C   UNL     1      46.633   7.471  11.426  0.00  0.00    +0.000 A 
ATOM      4  C   UNL     1      45.783   6.631  12.160  0.00  0.00    +0.000 A 
ATOM      5  C   UNL     1      46.305   5.994  13.289  0.00  0.00    +0.000 A 
ATOM      6  F   UNL     1      45.530   5.166  14.006  0.00  0.00    +0.000 F 
ATOM      7  C   UNL     1      47.622   6.201  13.700  0.00  0.00    +0.000 A 
ENDROOT
BRANCH   1   8
ATOM      8  C   UNL     1      49.861   7.355  13.453  0.00  0.00    +0.000 C 
BRANCH   8   9
ATOM      9  C   UNL     1      50.619   8.307  12.523  0.00  0.00    +0.000 C 
BRANCH   9  10
ATOM     10  N   UNL     1      52.062   8.077  12.611  0.00  0.00    +0.000 NA
ATOM     11  H   UNL     1      52.249   7.077  12.565  0.00  0.00    +0.000 HD
ATOM     12  H   UNL     1      52.406   8.389  13.520  0.00  0.00    +0.000 HD
ENDBRANCH   9  10
ENDBRANCH   8   9
ENDBRANCH   1   8
BRANCH   4  13
ATOM     13  C   UNL     1      44.348   6.435  11.745  0.00  0.00    +0.000 C 
BRANCH  13  14
ATOM     14  C   UNL     1      44.207   4.990  11.362  0.00  0.00    +0.000 A 
ATOM     15  C   UNL     1      43.516   4.050  12.108  0.00  0.00    +0.000 A 
ATOM     16  S   UNL     1      43.535   2.496  11.408  0.00  0.00    +0.000 S 
ATOM     17  C   UNL     1      44.478   3.029  10.079  0.00  0.00    +0.000 A 
ATOM     18  C   UNL     1      44.924   2.284   8.976  0.00  0.00    +0.000 A 
ATOM     19  C   UNL     1      45.678   2.961   8.032  0.00  0.00    +0.000 A 
ATOM     20  F   UNL     1      46.124   2.318   6.945  0.00  0.00    +0.000 F 
ATOM     21  C   UNL     1      45.969   4.297   8.221  0.00  0.00    +0.000 A 
ATOM     22  N   UNL     1      45.559   5.042   9.272  0.00  0.00    +0.000 NA
ATOM     23  C   UNL     1      44.793   4.387  10.194  0.00  0.00    +0.000 A 
ENDBRANCH  13  14
ENDBRANCH   4  13
TORSDOF 5
ENDMDL
MODEL 6
REMARK VINA RESULT:    -5.644      6.406      8.160
REMARK INTER + INTRA:          -7.696
REMARK INTER:                  -7.437
REMARK INTRA:                  -0.259
REMARK UNBOUND:                -0.567
REMARK  Name = 
REMARK  5 active torsions:
REMARK  status: ('A' for Active; 'I' for Inactive)
REMARK    1  A    between atoms: N_1  and  C_2
REMARK    2  A    between atoms: C_2  and  C_3
REMARK    3  A    between atoms: C_3  and  C_4
REMARK    4  A    between atoms: C_7  and  C_8
REMARK    5  A    between atoms: C_8  and  C_9
REMARK                            x       y       z     vdW  Elec       q    Type
REMARK                         _______ _______ _______ _____ _____    ______ ____
ROOT
ATOM      1  C   UNL     1      51.174   2.622  17.665  0.00  0.00    +0.000 A 
ATOM      2  C   UNL     1      50.353   1.895  16.793  0.00  0.00    +0.000 A 
ATOM      3  C   UNL     1      49.077   2.361  16.463  0.00  0.00    +0.000 A 
ATOM      4  C   UNL     1      48.588   3.561  17.000  0.00  0.00    +0.000 A 
ATOM      5  C   UNL     1      49.403   4.260  17.894  0.00  0.00    +0.000 A 
ATOM      6  F   UNL     1      48.963   5.401  18.446  0.00  0.00    +0.000 F 
ATOM      7  C   UNL     1      50.677   3.802  18.231  0.00  0.00    +0.000 A 
ENDROOT
BRANCH   1   8
ATOM      8  C   UNL     1      52.575   2.149  17.966  0.00  0.00    +0.000 C 
BRANCH   8   9
ATOM      9  C   UNL     1      52.871   0.757  17.402  0.00  0.00    +0.000 C 
BRANCH   9  10
ATOM     10  N   UNL     1      52.781  -0.259  18.452  0.00  0.00    +0.000 NA
ATOM     11  H   UNL     1      53.443  -0.037  19.195  0.00  0.00    +0.000 HD
ATOM     12  H   UNL     1      53.066  -1.165  18.081  0.00  0.00    +0.000 HD
ENDBRANCH   9  10
ENDBRANCH   8   9
ENDBRANCH   1   8
BRANCH   4  13
ATOM     13  C   UNL     1      47.229   4.081  16.609  0.00  0.00    +0.000 C 
BRANCH  13  14
ATOM     14  C   UNL     1      47.443   5.001  15.442  0.00  0.00    +0.000 A 
ATOM     15  C   UNL     1      48.352   6.045  15.428  0.00  0.00    +0.000 A 
ATOM     16  S   UNL     1      48.363   6.904  13.956  0.00  0.00    +0.000 S 
ATOM     17  C   UNL     1      47.142   5.906  13.284  0.00  0.00    +0.000 A 
ATOM     18  C   UNL     1      46.578   5.968  12.000  0.00  0.00    +0.000 A 
ATOM     19  C   UNL     1      45.597   5.035  11.705  0.00  0.00    +0.000 A 
ATOM     20  F   UNL     1      45.027   5.025  10.493  0.00  0.00    +0.000 F 
ATOM     21  C   UNL     1      45.212   4.124  12.666  0.00  0.00    +0.000 A 
ATOM     22  N   UNL     1      45.730   4.039  13.911  0.00  0.00    +0.000 NA
ATOM     23  C   UNL     1      46.716   4.939  14.201  0.00  0.00    +0.000 A 
ENDBRANCH  13  14
ENDBRANCH   4  13
TORSDOF 5
ENDMDL
MODEL 7
REMARK VINA RESULT:    -5.470      4.914      6.710
REMARK INTER + INTRA:          -7.475
REMARK INTER:                  -6.917
REMARK INTRA:                  -0.559
REMARK UNBOUND:                -0.567
REMARK  Name = 
REMARK  5 active torsions:
REMARK  status: ('A' for Active; 'I' for Inactive)
REMARK    1  A    between atoms: N_1  and  C_2
REMARK    2  A    between atoms: C_2  and  C_3
REMARK    3  A    between atoms: C_3  and  C_4
REMARK    4  A    between atoms: C_7  and  C_8
REMARK    5  A    between atoms: C_8  and  C_9
REMARK                            x       y       z     vdW  Elec       q    Type
REMARK                         _______ _______ _______ _____ _____    ______ ____
ROOT
ATOM      1  C   UNL     1      44.499   5.608  12.840  0.00  0.00    +0.000 A 
ATOM      2  C   UNL     1      44.969   6.866  12.443  0.00  0.00    +0.000 A 
ATOM      3  C   UNL     1      46.290   7.246  12.699  0.00  0.00    +0.000 A 
ATOM      4  C   UNL     1      47.171   6.380  13.363  0.00  0.00    +0.000 A 
ATOM      5  C   UNL     1      46.681   5.141  13.784  0.00  0.00    +0.000 A 
ATOM      6  F   UNL     1      47.486   4.293  14.441  0.00  0.00    +0.000 F 
ATOM      7  C   UNL     1      45.364   4.755  13.535  0.00  0.00    +0.000 A 
ENDROOT
BRANCH   1   8
ATOM      8  C   UNL     1      43.091   5.179  12.503  0.00  0.00    +0.000 C 
BRANCH   8   9
ATOM      9  C   UNL     1      43.009   4.355  11.215  0.00  0.00    +0.000 C 
BRANCH   9  10
ATOM     10  N   UNL     1      42.945   2.925  11.517  0.00  0.00    +0.000 NA
ATOM     11  H   UNL     1      43.118   2.391  10.667  0.00  0.00    +0.000 HD
ATOM     12  H   UNL     1      42.003   2.678  11.821  0.00  0.00    +0.000 HD
ENDBRANCH   9  10
ENDBRANCH   8   9
ENDBRANCH   1   8
BRANCH   4  13
ATOM     13  C   UNL     1      48.606   6.775  13.600  0.00  0.00    +0.000 C 
BRANCH  13  14
ATOM     14  C   UNL     1      48.642   7.480  14.924  0.00  0.00    +0.000 A 
ATOM     15  C   UNL     1      48.306   8.811  15.109  0.00  0.00    +0.000 A 
ATOM     16  S   UNL     1      48.445   9.318  16.730  0.00  0.00    +0.000 S 
ATOM     17  C   UNL     1      48.967   7.768  17.244  0.00  0.00    +0.000 A 
ATOM     18  C   UNL     1      49.287   7.345  18.543  0.00  0.00    +0.000 A 
ATOM     19  C   UNL     1      49.687   6.027  18.688  0.00  0.00    +0.000 A 
ATOM     20  F   UNL     1      49.992   5.550  19.902  0.00  0.00    +0.000 F 
ATOM     21  C   UNL     1      49.773   5.214  17.577  0.00  0.00    +0.000 A 
ATOM     22  N   UNL     1      49.477   5.589  16.313  0.00  0.00    +0.000 NA
ATOM     23  C   UNL     1      49.056   6.881  16.166  0.00  0.00    +0.000 A 
ENDBRANCH  13  14
ENDBRANCH   4  13
TORSDOF 5
ENDMDL
MODEL 8
REMARK VINA RESULT:    -5.340      4.755      7.024
REMARK INTER + INTRA:          -7.311
REMARK INTER:                  -6.742
REMARK INTRA:                  -0.569
REMARK UNBOUND:                -0.567
REMARK  Name = 
REMARK  5 active torsions:
REMARK  status: ('A' for Active; 'I' for Inactive)
REMARK    1  A    between atoms: N_1  and  C_2
REMARK    2  A    between atoms: C_2  and  C_3
REMARK    3  A    between atoms: C_3  and  C_4
REMARK    4  A    between atoms: C_7  and  C_8
REMARK    5  A    between atoms: C_8  and  C_9
REMARK                            x       y       z     vdW  Elec       q    Type
REMARK                         _______ _______ _______ _____ _____    ______ ____
ROOT
ATOM      1  C   UNL     1      44.939   9.588  11.738  0.00  0.00    +0.000 A 
ATOM      2  C   UNL     1      46.174  10.191  12.006  0.00  0.00    +0.000 A 
ATOM      3  C   UNL     1      47.318   9.412  12.205  0.00  0.00    +0.000 A 
ATOM      4  C   UNL     1      47.254   8.012  12.147  0.00  0.00    +0.000 A 
ATOM      5  C   UNL     1      46.010   7.421  11.913  0.00  0.00    +0.000 A 
ATOM      6  F   UNL     1      45.903   6.084  11.871  0.00  0.00    +0.000 F 
ATOM      7  C   UNL     1      44.863   8.190  11.715  0.00  0.00    +0.000 A 
ENDROOT
BRANCH   1   8
ATOM      8  C   UNL     1      43.721  10.435  11.459  0.00  0.00    +0.000 C 
BRANCH   8   9
ATOM      9  C   UNL     1      42.751   9.780  10.472  0.00  0.00    +0.000 C 
BRANCH   9  10
ATOM     10  N   UNL     1      41.484   9.455  11.129  0.00  0.00    +0.000 NA
ATOM     11  H   UNL     1      41.612   8.641  11.727  0.00  0.00    +0.000 HD
ATOM     12  H   UNL     1      40.792   9.187  10.429  0.00  0.00    +0.000 HD
ENDBRANCH   9  10
ENDBRANCH   8   9
ENDBRANCH   1   8
BRANCH   4  13
ATOM     13  C   UNL     1      48.497   7.177  12.320  0.00  0.00    +0.000 C 
BRANCH  13  14
ATOM     14  C   UNL     1      48.746   7.084  13.797  0.00  0.00    +0.000 A 
ATOM     15  C   UNL     1      49.519   7.980  14.516  0.00  0.00    +0.000 A 
ATOM     16  S   UNL     1      49.610   7.605  16.176  0.00  0.00    +0.000 S 
ATOM     17  C   UNL     1      48.616   6.220  15.989  0.00  0.00    +0.000 A 
ATOM     18  C   UNL     1      48.179   5.325  16.977  0.00  0.00    +0.000 A 
ATOM     19  C   UNL     1      47.376   4.277  16.557  0.00  0.00    +0.000 A 
ATOM     20  F   UNL     1      46.909   3.393  17.448  0.00  0.00    +0.000 F 
ATOM     21  C   UNL     1      47.067   4.149  15.218  0.00  0.00    +0.000 A 
ATOM     22  N   UNL     1      47.474   4.990  14.241  0.00  0.00    +0.000 NA
ATOM     23  C   UNL     1      48.244   6.040  14.652  0.00  0.00    +0.000 A 
ENDBRANCH  13  14
ENDBRANCH   4  13
TORSDOF 5
ENDMDL
MODEL 9
REMARK VINA RESULT:    -5.049      3.791      4.938
REMARK INTER + INTRA:          -6.944
REMARK INTER:                  -6.363
REMARK INTRA:                  -0.580
REMARK UNBOUND:                -0.567
REMARK  Name = 
REMARK  5 active torsions:
REMARK  status: ('A' for Active; 'I' for Inactive)
REMARK    1  A    between atoms: N_1  and  C_2
REMARK    2  A    between atoms: C_2  and  C_3
REMARK    3  A    between atoms: C_3  and  C_4
REMARK    4  A    between atoms: C_7  and  C_8
REMARK    5  A    between atoms: C_8  and  C_9
REMARK                            x       y       z     vdW  Elec       q    Type
REMARK                         _______ _______ _______ _____ _____    ______ ____
ROOT
ATOM      1  C   UNL     1      44.878   4.083  11.322  0.00  0.00    +0.000 A 
ATOM      2  C   UNL     1      44.660   5.308  10.679  0.00  0.00    +0.000 A 
ATOM      3  C   UNL     1      45.088   6.504  11.262  0.00  0.00    +0.000 A 
ATOM      4  C   UNL     1      45.740   6.506  12.504  0.00  0.00    +0.000 A 
ATOM      5  C   UNL     1      45.921   5.281  13.152  0.00  0.00    +0.000 A 
ATOM      6  F   UNL     1      46.521   5.243  14.351  0.00  0.00    +0.000 F 
ATOM      7  C   UNL     1      45.495   4.083  12.579  0.00  0.00    +0.000 A 
ENDROOT
BRANCH   1   8
ATOM      8  C   UNL     1      44.472   2.790  10.658  0.00  0.00    +0.000 C 
BRANCH   8   9
ATOM      9  C   UNL     1      44.743   2.780   9.151  0.00  0.00    +0.000 C 
BRANCH   9  10
ATOM     10  N   UNL     1      45.688   1.719   8.801  0.00  0.00    +0.000 NA
ATOM     11  H   UNL     1      46.385   1.629   9.540  0.00  0.00    +0.000 HD
ATOM     12  H   UNL     1      46.200   1.977   7.958  0.00  0.00    +0.000 HD
ENDBRANCH   9  10
ENDBRANCH   8   9
ENDBRANCH   1   8
BRANCH   4  13
ATOM     13  C   UNL     1      46.238   7.793  13.110  0.00  0.00    +0.000 C 
BRANCH  13  14
ATOM     14  C   UNL     1      47.721   7.826  12.880  0.00  0.00    +0.000 A 
ATOM     15  C   UNL     1      48.317   7.837  11.630  0.00  0.00    +0.000 A 
ATOM     16  S   UNL     1      50.019   7.879  11.700  0.00  0.00    +0.000 S 
ATOM     17  C   UNL     1      50.019   7.880  13.415  0.00  0.00    +0.000 A 
ATOM     18  C   UNL     1      51.120   7.931  14.284  0.00  0.00    +0.000 A 
ATOM     19  C   UNL     1      50.843   7.919  15.641  0.00  0.00    +0.000 A 
ATOM     20  F   UNL     1      51.844   7.982  16.528  0.00  0.00    +0.000 F 
ATOM     21  C   UNL     1      49.533   7.838  16.069  0.00  0.00    +0.000 A 
ATOM     22  N   UNL     1      48.452   7.784  15.261  0.00  0.00    +0.000 NA
ATOM     23  C   UNL     1      48.716   7.822  13.921  0.00  0.00    +0.000 A 
ENDBRANCH  13  14
ENDBRANCH   4  13
TORSDOF 5
ENDMDL
