MODEL 1
REMARK VINA RESULT:    -7.566      0.000      0.000
REMARK INTER + INTRA:         -11.139
REMARK INTER:                 -10.220
REMARK INTRA:                  -0.919
REMARK UNBOUND:                -0.919
REMARK  Name = 
REMARK  6 active torsions:
REMARK  status: ('A' for Active; 'I' for Inactive)
REMARK    1  A    between atoms: C_2  and  C_21
REMARK    2  A    between atoms: N_3  and  C_4
REMARK    3  A    between atoms: C_4  and  C_5
REMARK    4  A    between atoms: C_8  and  C_9
REMARK    5  A    between atoms: C_9  and  N_10
REMARK    6  A    between atoms: C_11  and  C_13
REMARK                            x       y       z     vdW  Elec       q    Type
REMARK                         _______ _______ _______ _____ _____    ______ ____
ROOT
ATOM      1  C   UNL     1      46.777   4.064  14.016  0.00  0.00    +0.000 A 
ATOM      2  C   UNL     1      46.113   3.246  13.099  0.00  0.00    +0.000 A 
ATOM      3  C   UNL     1      45.426   3.818  12.028  0.00  0.00    +0.000 A 
ATOM      4  C   UNL     1      45.435   5.203  11.880  0.00  0.00    +0.000 A 
ATOM      5  N   UNL     1      46.082   6.019  12.753  0.00  0.00    +0.000 NA
ATOM      6  C   UNL     1      46.741   5.434  13.783  0.00  0.00    +0.000 A 
ENDROOT
BRANCH   1   7
ATOM      7  C   UNL     1      47.528   3.491  15.181  0.00  0.00    +0.000 C 
BRANCH   7  10
ATOM      8  O   UNL     1      46.791   3.431  17.861  0.00  0.00    +0.000 OA
ATOM      9  C   UNL     1      47.501   4.354  17.473  0.00  0.00    +0.000 C 
ATOM     10  N   UNL     1      47.848   4.505  16.154  0.00  0.00    +0.000 N 
ATOM     11  H   UNL     1      48.602   5.141  15.916  0.00  0.00    +0.000 HD
BRANCH   9  12
ATOM     12  C   UNL     1      47.993   5.385  18.394  0.00  0.00    +0.000 A 
ATOM     13  C   UNL     1      47.115   6.015  19.266  0.00  0.00    +0.000 A 
ATOM     14  S   UNL     1      47.861   7.198  20.246  0.00  0.00    +0.000 S 
ATOM     15  C   UNL     1      49.391   6.873  19.571  0.00  0.00    +0.000 A 
ATOM     16  N   UNL     1      50.502   7.535  20.000  0.00  0.00    +0.000 NA
ATOM     17  C   UNL     1      51.596   7.164  19.418  0.00  0.00    +0.000 A 
ATOM     18  N   UNL     1      51.681   6.194  18.454  0.00  0.00    +0.000 N 
ATOM     19  C   UNL     1      50.582   5.532  17.965  0.00  0.00    +0.000 A 
ATOM     20  O   UNL     1      50.686   4.718  17.051  0.00  0.00    +0.000 OA
ATOM     21  C   UNL     1      49.329   5.895  18.595  0.00  0.00    +0.000 A 
ATOM     22  H   UNL     1      52.566   5.965  18.028  0.00  0.00    +0.000 HD
ENDBRANCH   9  12
ENDBRANCH   7  10
ENDBRANCH   1   7
BRANCH   4  23
ATOM     23  C   UNL     1      44.716   5.855  10.721  0.00  0.00    +0.000 C 
BRANCH  23  24
ATOM     24  N   UNL     1      44.452   4.935   9.632  0.00  0.00    +0.000 N 
ATOM     25  C   UNL     1      45.372   4.709   8.629  0.00  0.00    +0.000 C 
ATOM     26  O   UNL     1      46.436   5.320   8.571  0.00  0.00    +0.000 OA
ATOM     27  H   UNL     1      43.617   4.372   9.692  0.00  0.00    +0.000 HD
BRANCH  25  28
ATOM     28  C   UNL     1      44.920   3.666   7.573  0.00  0.00    +0.000 C 
ATOM     29  C   UNL     1      46.049   3.262   6.615  0.00  0.00    +0.000 C 
ATOM     30  C   UNL     1      47.107   2.393   7.295  0.00  0.00    +0.000 C 
ATOM     31  C   UNL     1      46.464   1.223   8.029  0.00  0.00    +0.000 C 
ATOM     32  C   UNL     1      45.318   1.674   8.931  0.00  0.00    +0.000 C 
ATOM     33  N   UNL     1      44.325   2.466   8.204  0.00  0.00    +0.000 NA
ATOM     34  H   UNL     1      43.576   2.727   8.840  0.00  0.00    +0.000 HD
ENDBRANCH  25  28
ENDBRANCH  23  24
ENDBRANCH   4  23
TORSDOF 6
ENDMDL
MODEL 2
REMARK VINA RESULT:    -7.551      2.385      3.002
REMARK INTER + INTRA:         -11.119
REMARK INTER:                 -10.181
REMARK INTRA:                  -0.938
REMARK UNBOUND:                -0.919
REMARK  Name = 
REMARK  6 active torsions:
REMARK  status: ('A' for Active; 'I' for Inactive)
REMARK    1  A    between atoms: C_2  and  C_21
REMARK    2  A    between atoms: N_3  and  C_4
REMARK    3  A    between atoms: C_4  and  C_5
REMARK    4  A    between atoms: C_8  and  C_9
REMARK    5  A    between atoms: C_9  and  N_10
REMARK    6  A    between atoms: C_11  and  C_13
REMARK                            x       y       z     vdW  Elec       q    Type
REMARK                         _______ _______ _______ _____ _____    ______ ____
ROOT
ATOM      1  C   UNL     1      46.797   4.697  14.636  0.00  0.00    +0.000 A 
ATOM      2  C   UNL     1      47.418   5.895  14.273  0.00  0.00    +0.000 A 
ATOM      3  C   UNL     1      47.181   6.447  13.015  0.00  0.00    +0.000 A 
ATOM      4  C   UNL     1      46.303   5.801  12.147  0.00  0.00    +0.000 A 
ATOM      5  N   UNL     1      45.680   4.641  12.480  0.00  0.00    +0.000 NA
ATOM      6  C   UNL     1      45.931   4.128  13.710  0.00  0.00    +0.000 A 
ENDROOT
BRANCH   1   7
ATOM      7  C   UNL     1      47.025   4.069  15.979  0.00  0.00    +0.000 C 
BRANCH   7  10
ATOM      8  O   UNL     1      48.072   4.799  18.448  0.00  0.00    +0.000 OA
ATOM      9  C   UNL     1      48.841   4.366  17.595  0.00  0.00    +0.000 C 
ATOM     10  N   UNL     1      48.424   4.055  16.325  0.00  0.00    +0.000 N 
ATOM     11  H   UNL     1      49.034   3.502  15.732  0.00  0.00    +0.000 HD
BRANCH   9  12
ATOM     12  C   UNL     1      50.272   4.191  17.868  0.00  0.00    +0.000 A 
ATOM     13  C   UNL     1      51.007   5.231  18.421  0.00  0.00    +0.000 A 
ATOM     14  S   UNL     1      52.657   4.852  18.648  0.00  0.00    +0.000 S 
ATOM     15  C   UNL     1      52.432   3.270  18.059  0.00  0.00    +0.000 A 
ATOM     16  N   UNL     1      53.468   2.385  18.013  0.00  0.00    +0.000 NA
ATOM     17  C   UNL     1      53.143   1.214  17.571  0.00  0.00    +0.000 A 
ATOM     18  N   UNL     1      51.884   0.847  17.175  0.00  0.00    +0.000 N 
ATOM     19  C   UNL     1      50.823   1.717  17.167  0.00  0.00    +0.000 A 
ATOM     20  O   UNL     1      49.723   1.375  16.740  0.00  0.00    +0.000 OA
ATOM     21  C   UNL     1      51.125   3.042  17.671  0.00  0.00    +0.000 A 
ATOM     22  H   UNL     1      51.703  -0.081  16.823  0.00  0.00    +0.000 HD
ENDBRANCH   9  12
ENDBRANCH   7  10
ENDBRANCH   1   7
BRANCH   4  23
ATOM     23  C   UNL     1      46.009   6.381  10.782  0.00  0.00    +0.000 C 
BRANCH  23  24
ATOM     24  N   UNL     1      45.281   5.466   9.925  0.00  0.00    +0.000 N 
ATOM     25  C   UNL     1      45.819   4.981   8.751  0.00  0.00    +0.000 C 
ATOM     26  O   UNL     1      46.917   5.345   8.339  0.00  0.00    +0.000 OA
ATOM     27  H   UNL     1      44.408   5.099  10.274  0.00  0.00    +0.000 HD
BRANCH  25  28
ATOM     28  C   UNL     1      44.901   3.987   7.991  0.00  0.00    +0.000 C 
ATOM     29  C   UNL     1      45.627   3.258   6.853  0.00  0.00    +0.000 C 
ATOM     30  C   UNL     1      46.631   2.227   7.368  0.00  0.00    +0.000 C 
ATOM     31  C   UNL     1      45.985   1.300   8.390  0.00  0.00    +0.000 C 
ATOM     32  C   UNL     1      45.239   2.073   9.473  0.00  0.00    +0.000 C 
ATOM     33  N   UNL     1      44.268   3.011   8.908  0.00  0.00    +0.000 NA
ATOM     34  H   UNL     1      43.785   3.488   9.665  0.00  0.00    +0.000 HD
ENDBRANCH  25  28
ENDBRANCH  23  24
ENDBRANCH   4  23
TORSDOF 6
ENDMDL
MODEL 3
REMARK VINA RESULT:    -7.209      3.257      4.499
REMARK INTER + INTRA:         -10.656
REMARK INTER:                  -9.969
REMARK INTRA:                  -0.688
REMARK UNBOUND:                -0.919
REMARK  Name = 
REMARK  6 active torsions:
REMARK  status: ('A' for Active; 'I' for Inactive)
REMARK    1  A    between atoms: C_2  and  C_21
REMARK    2  A    between atoms: N_3  and  C_4
REMARK    3  A    between atoms: C_4  and  C_5
REMARK    4  A    between atoms: C_8  and  C_9
REMARK    5  A    between atoms: C_9  and  N_10
REMARK    6  A    between atoms: C_11  and  C_13
REMARK                            x       y       z     vdW  Elec       q    Type
REMARK                         _______ _______ _______ _____ _____    ______ ____
ROOT
ATOM      1  C   UNL     1      47.924   4.207  16.575  0.00  0.00    +0.000 A 
ATOM      2  C   UNL     1      47.134   3.834  15.485  0.00  0.00    +0.000 A 
ATOM      3  C   UNL     1      47.045   4.670  14.373  0.00  0.00    +0.000 A 
ATOM      4  C   UNL     1      47.771   5.860  14.361  0.00  0.00    +0.000 A 
ATOM      5  N   UNL     1      48.554   6.239  15.404  0.00  0.00    +0.000 NA
ATOM      6  C   UNL     1      48.620   5.405  16.471  0.00  0.00    +0.000 A 
ENDROOT
BRANCH   1   7
ATOM      7  C   UNL     1      48.047   3.338  17.792  0.00  0.00    +0.000 C 
BRANCH   7  10
ATOM      8  O   UNL     1      49.653   1.700  16.221  0.00  0.00    +0.000 OA
ATOM      9  C   UNL     1      50.158   2.248  17.197  0.00  0.00    +0.000 C 
ATOM     10  N   UNL     1      49.422   3.010  18.070  0.00  0.00    +0.000 N 
ATOM     11  H   UNL     1      49.911   3.613  18.723  0.00  0.00    +0.000 HD
BRANCH   9  12
ATOM     12  C   UNL     1      51.581   2.089  17.517  0.00  0.00    +0.000 A 
ATOM     13  C   UNL     1      52.137   0.819  17.604  0.00  0.00    +0.000 A 
ATOM     14  S   UNL     1      53.796   0.829  18.005  0.00  0.00    +0.000 S 
ATOM     15  C   UNL     1      53.838   2.532  18.026  0.00  0.00    +0.000 A 
ATOM     16  N   UNL     1      54.998   3.202  18.279  0.00  0.00    +0.000 NA
ATOM     17  C   UNL     1      54.885   4.490  18.233  0.00  0.00    +0.000 A 
ATOM     18  N   UNL     1      53.726   5.166  17.957  0.00  0.00    +0.000 N 
ATOM     19  C   UNL     1      52.528   4.531  17.736  0.00  0.00    +0.000 A 
ATOM     20  O   UNL     1      51.494   5.170  17.561  0.00  0.00    +0.000 OA
ATOM     21  C   UNL     1      52.599   3.084  17.757  0.00  0.00    +0.000 A 
ATOM     22  H   UNL     1      53.703   6.174  17.954  0.00  0.00    +0.000 HD
ENDBRANCH   9  12
ENDBRANCH   7  10
ENDBRANCH   1   7
BRANCH   4  23
ATOM     23  C   UNL     1      47.713   6.782  13.163  0.00  0.00    +0.000 C 
BRANCH  23  24
ATOM     24  N   UNL     1      46.823   6.301  12.125  0.00  0.00    +0.000 N 
ATOM     25  C   UNL     1      45.527   6.759  12.006  0.00  0.00    +0.000 C 
ATOM     26  O   UNL     1      45.039   7.551  12.808  0.00  0.00    +0.000 OA
ATOM     27  H   UNL     1      47.218   5.704  11.414  0.00  0.00    +0.000 HD
BRANCH  25  28
ATOM     28  C   UNL     1      44.742   6.150  10.813  0.00  0.00    +0.000 C 
ATOM     29  C   UNL     1      45.192   4.724  10.471  0.00  0.00    +0.000 C 
ATOM     30  C   UNL     1      44.752   3.706  11.522  0.00  0.00    +0.000 C 
ATOM     31  C   UNL     1      43.263   3.836  11.818  0.00  0.00    +0.000 C 
ATOM     32  C   UNL     1      42.860   5.279  12.106  0.00  0.00    +0.000 C 
ATOM     33  N   UNL     1      43.279   6.190  11.039  0.00  0.00    +0.000 NA
ATOM     34  H   UNL     1      42.974   7.132  11.266  0.00  0.00    +0.000 HD
ENDBRANCH  25  28
ENDBRANCH  23  24
ENDBRANCH   4  23
TORSDOF 6
ENDMDL
MODEL 4
REMARK VINA RESULT:    -7.196      3.434      9.117
REMARK INTER + INTRA:         -10.639
REMARK INTER:                  -9.742
REMARK INTRA:                  -0.898
REMARK UNBOUND:                -0.919
REMARK  Name = 
REMARK  6 active torsions:
REMARK  status: ('A' for Active; 'I' for Inactive)
REMARK    1  A    between atoms: C_2  and  C_21
REMARK    2  A    between atoms: N_3  and  C_4
REMARK    3  A    between atoms: C_4  and  C_5
REMARK    4  A    between atoms: C_8  and  C_9
REMARK    5  A    between atoms: C_9  and  N_10
REMARK    6  A    between atoms: C_11  and  C_13
REMARK                            x       y       z     vdW  Elec       q    Type
REMARK                         _______ _______ _______ _____ _____    ______ ____
ROOT
ATOM      1  C   UNL     1      49.090   7.904  13.080  0.00  0.00    +0.000 A 
ATOM      2  C   UNL     1      50.316   8.526  13.331  0.00  0.00    +0.000 A 
ATOM      3  C   UNL     1      51.000   8.260  14.517  0.00  0.00    +0.000 A 
ATOM      4  C   UNL     1      50.455   7.353  15.423  0.00  0.00    +0.000 A 
ATOM      5  N   UNL     1      49.271   6.728  15.197  0.00  0.00    +0.000 NA
ATOM      6  C   UNL     1      48.629   7.007  14.037  0.00  0.00    +0.000 A 
ENDROOT
BRANCH   1   7
ATOM      7  C   UNL     1      48.321   8.163  11.819  0.00  0.00    +0.000 C 
BRANCH   7  10
ATOM      8  O   UNL     1      45.556   7.884  11.788  0.00  0.00    +0.000 OA
ATOM      9  C   UNL     1      46.238   6.968  11.338  0.00  0.00    +0.000 C 
ATOM     10  N   UNL     1      47.609   6.987  11.384  0.00  0.00    +0.000 N 
ATOM     11  H   UNL     1      48.127   6.328  10.813  0.00  0.00    +0.000 HD
BRANCH   9  12
ATOM     12  C   UNL     1      45.626   5.768  10.755  0.00  0.00    +0.000 A 
ATOM     13  C   UNL     1      45.821   5.470   9.413  0.00  0.00    +0.000 A 
ATOM     14  S   UNL     1      45.018   4.051   8.908  0.00  0.00    +0.000 S 
ATOM     15  C   UNL     1      44.424   3.761  10.478  0.00  0.00    +0.000 A 
ATOM     16  N   UNL     1      43.668   2.660  10.750  0.00  0.00    +0.000 NA
ATOM     17  C   UNL     1      43.313   2.556  11.989  0.00  0.00    +0.000 A 
ATOM     18  N   UNL     1      43.645   3.445  12.977  0.00  0.00    +0.000 N 
ATOM     19  C   UNL     1      44.369   4.587  12.739  0.00  0.00    +0.000 A 
ATOM     20  O   UNL     1      44.589   5.398  13.635  0.00  0.00    +0.000 OA
ATOM     21  C   UNL     1      44.811   4.746  11.368  0.00  0.00    +0.000 A 
ATOM     22  H   UNL     1      43.319   3.313  13.922  0.00  0.00    +0.000 HD
ENDBRANCH   9  12
ENDBRANCH   7  10
ENDBRANCH   1   7
BRANCH   4  23
ATOM     23  C   UNL     1      51.180   7.027  16.711  0.00  0.00    +0.000 C 
BRANCH  23  24
ATOM     24  N   UNL     1      50.372   6.251  17.631  0.00  0.00    +0.000 N 
ATOM     25  C   UNL     1      50.520   4.885  17.757  0.00  0.00    +0.000 C 
ATOM     26  O   UNL     1      51.298   4.246  17.055  0.00  0.00    +0.000 OA
ATOM     27  H   UNL     1      49.775   6.759  18.266  0.00  0.00    +0.000 HD
BRANCH  25  28
ATOM     28  C   UNL     1      49.589   4.239  18.817  0.00  0.00    +0.000 C 
ATOM     29  C   UNL     1      48.247   4.970  18.956  0.00  0.00    +0.000 C 
ATOM     30  C   UNL     1      47.336   4.751  17.748  0.00  0.00    +0.000 C 
ATOM     31  C   UNL     1      47.206   3.268  17.425  0.00  0.00    +0.000 C 
ATOM     32  C   UNL     1      48.565   2.579  17.344  0.00  0.00    +0.000 C 
ATOM     33  N   UNL     1      49.366   2.799  18.549  0.00  0.00    +0.000 NA
ATOM     34  H   UNL     1      50.251   2.308  18.456  0.00  0.00    +0.000 HD
ENDBRANCH  25  28
ENDBRANCH  23  24
ENDBRANCH   4  23
TORSDOF 6
ENDMDL
MODEL 5
REMARK VINA RESULT:    -7.130      2.971      9.363
REMARK INTER + INTRA:         -10.550
REMARK INTER:                  -9.639
REMARK INTRA:                  -0.910
REMARK UNBOUND:                -0.919
REMARK  Name = 
REMARK  6 active torsions:
REMARK  status: ('A' for Active; 'I' for Inactive)
REMARK    1  A    between atoms: C_2  and  C_21
REMARK    2  A    between atoms: N_3  and  C_4
REMARK    3  A    between atoms: C_4  and  C_5
REMARK    4  A    between atoms: C_8  and  C_9
REMARK    5  A    between atoms: C_9  and  N_10
REMARK    6  A    between atoms: C_11  and  C_13
REMARK                            x       y       z     vdW  Elec       q    Type
REMARK                         _______ _______ _______ _____ _____    ______ ____
ROOT
ATOM      1  C   UNL     1      47.994   7.864  13.130  0.00  0.00    +0.000 A 
ATOM      2  C   UNL     1      47.699   8.812  14.112  0.00  0.00    +0.000 A 
ATOM      3  C   UNL     1      48.421   8.824  15.305  0.00  0.00    +0.000 A 
ATOM      4  C   UNL     1      49.446   7.898  15.485  0.00  0.00    +0.000 A 
ATOM      5  N   UNL     1      49.758   6.973  14.540  0.00  0.00    +0.000 NA
ATOM      6  C   UNL     1      49.039   6.986  13.391  0.00  0.00    +0.000 A 
ENDROOT
BRANCH   1   7
ATOM      7  C   UNL     1      47.242   7.816  11.832  0.00  0.00    +0.000 C 
BRANCH   7  10
ATOM      8  O   UNL     1      44.519   7.313  12.075  0.00  0.00    +0.000 OA
ATOM      9  C   UNL     1      45.249   6.398  11.706  0.00  0.00    +0.000 C 
ATOM     10  N   UNL     1      46.613   6.535  11.634  0.00  0.00    +0.000 N 
ATOM     11  H   UNL     1      47.148   5.841  11.122  0.00  0.00    +0.000 HD
BRANCH   9  12
ATOM     12  C   UNL     1      44.712   5.078  11.357  0.00  0.00    +0.000 A 
ATOM     13  C   UNL     1      43.885   4.406  12.248  0.00  0.00    +0.000 A 
ATOM     14  S   UNL     1      43.373   2.879  11.680  0.00  0.00    +0.000 S 
ATOM     15  C   UNL     1      44.199   3.088  10.205  0.00  0.00    +0.000 A 
ATOM     16  N   UNL     1      44.146   2.137   9.230  0.00  0.00    +0.000 NA
ATOM     17  C   UNL     1      44.796   2.444   8.156  0.00  0.00    +0.000 A 
ATOM     18  N   UNL     1      45.489   3.610   7.965  0.00  0.00    +0.000 N 
ATOM     19  C   UNL     1      45.602   4.576   8.935  0.00  0.00    +0.000 A 
ATOM     20  O   UNL     1      46.290   5.578   8.756  0.00  0.00    +0.000 OA
ATOM     21  C   UNL     1      44.877   4.293  10.157  0.00  0.00    +0.000 A 
ATOM     22  H   UNL     1      45.991   3.780   7.107  0.00  0.00    +0.000 HD
ENDBRANCH   9  12
ENDBRANCH   7  10
ENDBRANCH   1   7
BRANCH   4  23
ATOM     23  C   UNL     1      50.261   7.894  16.759  0.00  0.00    +0.000 C 
BRANCH  23  24
ATOM     24  N   UNL     1      49.840   6.869  17.694  0.00  0.00    +0.000 N 
ATOM     25  C   UNL     1      50.413   5.614  17.708  0.00  0.00    +0.000 C 
ATOM     26  O   UNL     1      51.265   5.278  16.890  0.00  0.00    +0.000 OA
ATOM     27  H   UNL     1      49.192   7.140  18.418  0.00  0.00    +0.000 HD
BRANCH  25  28
ATOM     28  C   UNL     1      49.851   4.669  18.803  0.00  0.00    +0.000 C 
ATOM     29  C   UNL     1      48.407   5.005  19.196  0.00  0.00    +0.000 C 
ATOM     30  C   UNL     1      47.404   4.640  18.102  0.00  0.00    +0.000 C 
ATOM     31  C   UNL     1      47.605   3.203  17.636  0.00  0.00    +0.000 C 
ATOM     32  C   UNL     1      49.064   2.907  17.302  0.00  0.00    +0.000 C 
ATOM     33  N   UNL     1      49.960   3.245  18.409  0.00  0.00    +0.000 NA
ATOM     34  H   UNL     1      50.915   3.015  18.148  0.00  0.00    +0.000 HD
ENDBRANCH  25  28
ENDBRANCH  23  24
ENDBRANCH   4  23
TORSDOF 6
ENDMDL
MODEL 6
REMARK VINA RESULT:    -7.111      5.868      7.986
REMARK INTER + INTRA:         -10.524
REMARK INTER:                  -9.703
REMARK INTRA:                  -0.821
REMARK UNBOUND:                -0.919
REMARK  Name = 
REMARK  6 active torsions:
REMARK  status: ('A' for Active; 'I' for Inactive)
REMARK    1  A    between atoms: C_2  and  C_21
REMARK    2  A    between atoms: N_3  and  C_4
REMARK    3  A    between atoms: C_4  and  C_5
REMARK    4  A    between atoms: C_8  and  C_9
REMARK    5  A    between atoms: C_9  and  N_10
REMARK    6  A    between atoms: C_11  and  C_13
REMARK                            x       y       z     vdW  Elec       q    Type
REMARK                         _______ _______ _______ _____ _____    ______ ____
ROOT
ATOM      1  C   UNL     1      49.321   7.513  12.009  0.00  0.00    +0.000 A 
ATOM      2  C   UNL     1      48.125   7.374  11.301  0.00  0.00    +0.000 A 
ATOM      3  C   UNL     1      47.064   6.665  11.861  0.00  0.00    +0.000 A 
ATOM      4  C   UNL     1      47.210   6.125  13.137  0.00  0.00    +0.000 A 
ATOM      5  N   UNL     1      48.359   6.255  13.850  0.00  0.00    +0.000 NA
ATOM      6  C   UNL     1      49.373   6.950  13.278  0.00  0.00    +0.000 A 
ENDROOT
BRANCH   1   7
ATOM      7  C   UNL     1      50.488   8.267  11.442  0.00  0.00    +0.000 C 
BRANCH   7  10
ATOM      8  O   UNL     1      52.426   8.871   9.544  0.00  0.00    +0.000 OA
ATOM      9  C   UNL     1      52.491   7.787  10.117  0.00  0.00    +0.000 C 
ATOM     10  N   UNL     1      51.534   7.375  11.011  0.00  0.00    +0.000 N 
ATOM     11  H   UNL     1      51.738   6.586  11.615  0.00  0.00    +0.000 HD
BRANCH   9  12
ATOM     12  C   UNL     1      53.580   6.841   9.851  0.00  0.00    +0.000 A 
ATOM     13  C   UNL     1      54.576   6.643  10.798  0.00  0.00    +0.000 A 
ATOM     14  S   UNL     1      55.768   5.523  10.308  0.00  0.00    +0.000 S 
ATOM     15  C   UNL     1      54.965   5.229   8.834  0.00  0.00    +0.000 A 
ATOM     16  N   UNL     1      55.452   4.325   7.938  0.00  0.00    +0.000 NA
ATOM     17  C   UNL     1      54.724   4.186   6.878  0.00  0.00    +0.000 A 
ATOM     18  N   UNL     1      53.556   4.860   6.636  0.00  0.00    +0.000 N 
ATOM     19  C   UNL     1      53.052   5.808   7.492  0.00  0.00    +0.000 A 
ATOM     20  O   UNL     1      52.039   6.444   7.210  0.00  0.00    +0.000 OA
ATOM     21  C   UNL     1      53.819   5.993   8.707  0.00  0.00    +0.000 A 
ATOM     22  H   UNL     1      53.044   4.716   5.779  0.00  0.00    +0.000 HD
ENDBRANCH   9  12
ENDBRANCH   7  10
ENDBRANCH   1   7
BRANCH   4  23
ATOM     23  C   UNL     1      46.072   5.366  13.784  0.00  0.00    +0.000 C 
BRANCH  23  24
ATOM     24  N   UNL     1      45.042   4.984  12.839  0.00  0.00    +0.000 N 
ATOM     25  C   UNL     1      44.891   3.681  12.411  0.00  0.00    +0.000 C 
ATOM     26  O   UNL     1      45.660   2.788  12.758  0.00  0.00    +0.000 OA
ATOM     27  H   UNL     1      44.357   5.682  12.591  0.00  0.00    +0.000 HD
BRANCH  25  28
ATOM     28  C   UNL     1      43.712   3.465  11.426  0.00  0.00    +0.000 C 
ATOM     29  C   UNL     1      43.468   4.675  10.515  0.00  0.00    +0.000 C 
ATOM     30  C   UNL     1      44.563   4.842   9.461  0.00  0.00    +0.000 C 
ATOM     31  C   UNL     1      44.802   3.537   8.713  0.00  0.00    +0.000 C 
ATOM     32  C   UNL     1      44.992   2.358   9.663  0.00  0.00    +0.000 C 
ATOM     33  N   UNL     1      43.888   2.237  10.616  0.00  0.00    +0.000 NA
ATOM     34  H   UNL     1      44.050   1.431  11.214  0.00  0.00    +0.000 HD
ENDBRANCH  25  28
ENDBRANCH  23  24
ENDBRANCH   4  23
TORSDOF 6
ENDMDL
MODEL 7
REMARK VINA RESULT:    -6.749      4.043      9.832
REMARK INTER + INTRA:         -10.035
REMARK INTER:                  -9.254
REMARK INTRA:                  -0.780
REMARK UNBOUND:                -0.919
REMARK  Name = 
REMARK  6 active torsions:
REMARK  status: ('A' for Active; 'I' for Inactive)
REMARK    1  A    between atoms: C_2  and  C_21
REMARK    2  A    between atoms: N_3  and  C_4
REMARK    3  A    between atoms: C_4  and  C_5
REMARK    4  A    between atoms: C_8  and  C_9
REMARK    5  A    between atoms: C_9  and  N_10
REMARK    6  A    between atoms: C_11  and  C_13
REMARK                            x       y       z     vdW  Elec       q    Type
REMARK                         _______ _______ _______ _____ _____    ______ ____
ROOT
ATOM      1  C   UNL     1      48.633   3.727  17.053  0.00  0.00    +0.000 A 
ATOM      2  C   UNL     1      49.628   2.747  17.017  0.00  0.00    +0.000 A 
ATOM      3  C   UNL     1      50.910   3.042  17.478  0.00  0.00    +0.000 A 
ATOM      4  C   UNL     1      51.169   4.311  17.993  0.00  0.00    +0.000 A 
ATOM      5  N   UNL     1      50.216   5.277  18.048  0.00  0.00    +0.000 NA
ATOM      6  C   UNL     1      48.979   4.960  17.592  0.00  0.00    +0.000 A 
ENDROOT
BRANCH   1   7
ATOM      7  C   UNL     1      47.240   3.452  16.566  0.00  0.00    +0.000 C 
BRANCH   7  10
ATOM      8  O   UNL     1      47.293   3.226  13.796  0.00  0.00    +0.000 OA
ATOM      9  C   UNL     1      46.793   4.234  14.288  0.00  0.00    +0.000 C 
ATOM     10  N   UNL     1      46.795   4.464  15.642  0.00  0.00    +0.000 N 
ATOM     11  H   UNL     1      46.188   5.186  16.015  0.00  0.00    +0.000 HD
BRANCH   9  12
ATOM     12  C   UNL     1      46.196   5.283  13.454  0.00  0.00    +0.000 A 
ATOM     13  C   UNL     1      46.906   6.446  13.185  0.00  0.00    +0.000 A 
ATOM     14  S   UNL     1      46.046   7.558  12.217  0.00  0.00    +0.000 S 
ATOM     15  C   UNL     1      44.717   6.501  12.084  0.00  0.00    +0.000 A 
ATOM     16  N   UNL     1      43.622   6.839  11.345  0.00  0.00    +0.000 NA
ATOM     17  C   UNL     1      42.705   5.928  11.311  0.00  0.00    +0.000 A 
ATOM     18  N   UNL     1      42.782   4.715  11.944  0.00  0.00    +0.000 N 
ATOM     19  C   UNL     1      43.847   4.351  12.731  0.00  0.00    +0.000 A 
ATOM     20  O   UNL     1      43.852   3.284  13.340  0.00  0.00    +0.000 OA
ATOM     21  C   UNL     1      44.915   5.328  12.789  0.00  0.00    +0.000 A 
ATOM     22  H   UNL     1      42.021   4.055  11.890  0.00  0.00    +0.000 HD
ENDBRANCH   9  12
ENDBRANCH   7  10
ENDBRANCH   1   7
BRANCH   4  23
ATOM     23  C   UNL     1      52.544   4.659  18.519  0.00  0.00    +0.000 C 
BRANCH  23  24
ATOM     24  N   UNL     1      53.573   3.754  18.047  0.00  0.00    +0.000 N 
ATOM     25  C   UNL     1      54.143   2.805  18.871  0.00  0.00    +0.000 C 
ATOM     26  O   UNL     1      53.855   2.717  20.061  0.00  0.00    +0.000 OA
ATOM     27  H   UNL     1      53.779   3.760  17.060  0.00  0.00    +0.000 HD
BRANCH  25  28
ATOM     28  C   UNL     1      55.202   1.909  18.174  0.00  0.00    +0.000 C 
ATOM     29  C   UNL     1      55.775   0.832  19.104  0.00  0.00    +0.000 C 
ATOM     30  C   UNL     1      54.765  -0.275  19.406  0.00  0.00    +0.000 C 
ATOM     31  C   UNL     1      54.153  -0.821  18.122  0.00  0.00    +0.000 C 
ATOM     32  C   UNL     1      53.641   0.293  17.213  0.00  0.00    +0.000 C 
ATOM     33  N   UNL     1      54.672   1.293  16.935  0.00  0.00    +0.000 NA
ATOM     34  H   UNL     1      54.292   2.002  16.314  0.00  0.00    +0.000 HD
ENDBRANCH  25  28
ENDBRANCH  23  24
ENDBRANCH   4  23
TORSDOF 6
ENDMDL
MODEL 8
REMARK VINA RESULT:    -6.628      2.857      4.031
REMARK INTER + INTRA:          -9.872
REMARK INTER:                  -8.657
REMARK INTRA:                  -1.215
REMARK UNBOUND:                -0.919
REMARK  Name = 
REMARK  6 active torsions:
REMARK  status: ('A' for Active; 'I' for Inactive)
REMARK    1  A    between atoms: C_2  and  C_21
REMARK    2  A    between atoms: N_3  and  C_4
REMARK    3  A    between atoms: C_4  and  C_5
REMARK    4  A    between atoms: C_8  and  C_9
REMARK    5  A    between atoms: C_9  and  N_10
REMARK    6  A    between atoms: C_11  and  C_13
REMARK                            x       y       z     vdW  Elec       q    Type
REMARK                         _______ _______ _______ _____ _____    ______ ____
ROOT
ATOM      1  C   UNL     1      48.531   8.012  13.075  0.00  0.00    +0.000 A 
ATOM      2  C   UNL     1      48.045   7.009  12.233  0.00  0.00    +0.000 A 
ATOM      3  C   UNL     1      46.746   7.091  11.733  0.00  0.00    +0.000 A 
ATOM      4  C   UNL     1      45.961   8.193  12.066  0.00  0.00    +0.000 A 
ATOM      5  N   UNL     1      46.415   9.186  12.874  0.00  0.00    +0.000 NA
ATOM      6  C   UNL     1      47.682   9.078  13.345  0.00  0.00    +0.000 A 
ENDROOT
BRANCH   1   7
ATOM      7  C   UNL     1      49.922   7.962  13.635  0.00  0.00    +0.000 C 
BRANCH   7  10
ATOM      8  O   UNL     1      49.474   8.488  16.327  0.00  0.00    +0.000 OA
ATOM      9  C   UNL     1      49.719   7.332  15.993  0.00  0.00    +0.000 C 
ATOM     10  N   UNL     1      50.029   6.996  14.699  0.00  0.00    +0.000 N 
ATOM     11  H   UNL     1      50.006   6.018  14.429  0.00  0.00    +0.000 HD
BRANCH   9  12
ATOM     12  C   UNL     1      49.736   6.237  16.969  0.00  0.00    +0.000 A 
ATOM     13  C   UNL     1      50.634   6.262  18.027  0.00  0.00    +0.000 A 
ATOM     14  S   UNL     1      50.523   4.897  19.046  0.00  0.00    +0.000 S 
ATOM     15  C   UNL     1      49.237   4.250  18.134  0.00  0.00    +0.000 A 
ATOM     16  N   UNL     1      48.641   3.079  18.494  0.00  0.00    +0.000 NA
ATOM     17  C   UNL     1      47.662   2.727  17.726  0.00  0.00    +0.000 A 
ATOM     18  N   UNL     1      47.224   3.436  16.639  0.00  0.00    +0.000 N 
ATOM     19  C   UNL     1      47.822   4.598  16.218  0.00  0.00    +0.000 A 
ATOM     20  O   UNL     1      47.448   5.171  15.198  0.00  0.00    +0.000 OA
ATOM     21  C   UNL     1      48.915   5.051  17.054  0.00  0.00    +0.000 A 
ATOM     22  H   UNL     1      46.464   3.094  16.071  0.00  0.00    +0.000 HD
ENDBRANCH   9  12
ENDBRANCH   7  10
ENDBRANCH   1   7
BRANCH   4  23
ATOM     23  C   UNL     1      44.554   8.323  11.526  0.00  0.00    +0.000 C 
BRANCH  23  24
ATOM     24  N   UNL     1      44.045   7.084  10.973  0.00  0.00    +0.000 N 
ATOM     25  C   UNL     1      43.554   6.074  11.775  0.00  0.00    +0.000 C 
ATOM     26  O   UNL     1      43.578   6.146  13.001  0.00  0.00    +0.000 OA
ATOM     27  H   UNL     1      43.952   7.027   9.970  0.00  0.00    +0.000 HD
BRANCH  25  28
ATOM     28  C   UNL     1      43.025   4.841  10.996  0.00  0.00    +0.000 C 
ATOM     29  C   UNL     1      43.772   4.606   9.676  0.00  0.00    +0.000 C 
ATOM     30  C   UNL     1      45.195   4.092   9.895  0.00  0.00    +0.000 C 
ATOM     31  C   UNL     1      45.204   2.896  10.838  0.00  0.00    +0.000 C 
ATOM     32  C   UNL     1      44.410   3.165  12.113  0.00  0.00    +0.000 C 
ATOM     33  N   UNL     1      43.047   3.614  11.827  0.00  0.00    +0.000 NA
ATOM     34  H   UNL     1      42.553   3.764  12.703  0.00  0.00    +0.000 HD
ENDBRANCH  25  28
ENDBRANCH  23  24
ENDBRANCH   4  23
TORSDOF 6
ENDMDL
MODEL 9
REMARK VINA RESULT:    -4.641      3.793      9.306
REMARK INTER + INTRA:          -7.188
REMARK INTER:                  -6.367
REMARK INTRA:                  -0.821
REMARK UNBOUND:                -0.919
REMARK  Name = 
REMARK  6 active torsions:
REMARK  status: ('A' for Active; 'I' for Inactive)
REMARK    1  A    between atoms: C_2  and  C_21
REMARK    2  A    between atoms: N_3  and  C_4
REMARK    3  A    between atoms: C_4  and  C_5
REMARK    4  A    between atoms: C_8  and  C_9
REMARK    5  A    between atoms: C_9  and  N_10
REMARK    6  A    between atoms: C_11  and  C_13
REMARK                            x       y       z     vdW  Elec       q    Type
REMARK                         _______ _______ _______ _____ _____    ______ ____
ROOT
ATOM      1  C   UNL     1      48.570   3.387  17.178  0.00  0.00    +0.000 A 
ATOM      2  C   UNL     1      49.363   2.269  16.909  0.00  0.00    +0.000 A 
ATOM      3  C   UNL     1      50.715   2.277  17.250  0.00  0.00    +0.000 A 
ATOM      4  C   UNL     1      51.247   3.400  17.880  0.00  0.00    +0.000 A 
ATOM      5  N   UNL     1      50.494   4.495  18.162  0.00  0.00    +0.000 NA
ATOM      6  C   UNL     1      49.183   4.457  17.818  0.00  0.00    +0.000 A 
ENDROOT
BRANCH   1   7
ATOM      7  C   UNL     1      47.112   3.420  16.826  0.00  0.00    +0.000 C 
BRANCH   7  10
ATOM      8  O   UNL     1      47.191   3.030  14.076  0.00  0.00    +0.000 OA
ATOM      9  C   UNL     1      46.826   4.123  14.498  0.00  0.00    +0.000 C 
ATOM     10  N   UNL     1      46.831   4.428  15.836  0.00  0.00    +0.000 N 
ATOM     11  H   UNL     1      46.322   5.247  16.152  0.00  0.00    +0.000 HD
BRANCH   9  12
ATOM     12  C   UNL     1      46.397   5.193  13.591  0.00  0.00    +0.000 A 
ATOM     13  C   UNL     1      47.268   6.228  13.275  0.00  0.00    +0.000 A 
ATOM     14  S   UNL     1      46.591   7.391  12.224  0.00  0.00    +0.000 S 
ATOM     15  C   UNL     1      45.128   6.524  12.118  0.00  0.00    +0.000 A 
ATOM     16  N   UNL     1      44.106   6.967  11.333  0.00  0.00    +0.000 NA
ATOM     17  C   UNL     1      43.070   6.193  11.327  0.00  0.00    +0.000 A 
ATOM     18  N   UNL     1      42.964   5.021  12.028  0.00  0.00    +0.000 N 
ATOM     19  C   UNL     1      43.953   4.559  12.861  0.00  0.00    +0.000 A 
ATOM     20  O   UNL     1      43.796   3.540  13.529  0.00  0.00    +0.000 OA
ATOM     21  C   UNL     1      45.147   5.378  12.892  0.00  0.00    +0.000 A 
ATOM     22  H   UNL     1      42.118   4.472  11.993  0.00  0.00    +0.000 HD
ENDBRANCH   9  12
ENDBRANCH   7  10
ENDBRANCH   1   7
BRANCH   4  23
ATOM     23  C   UNL     1      52.705   3.436  18.282  0.00  0.00    +0.000 C 
BRANCH  23  24
ATOM     24  N   UNL     1      53.310   4.738  18.088  0.00  0.00    +0.000 N 
ATOM     25  C   UNL     1      54.399   4.921  17.261  0.00  0.00    +0.000 C 
ATOM     26  O   UNL     1      54.951   3.983  16.693  0.00  0.00    +0.000 OA
ATOM     27  H   UNL     1      52.837   5.535  18.488  0.00  0.00    +0.000 HD
BRANCH  25  28
ATOM     28  C   UNL     1      54.882   6.393  17.159  0.00  0.00    +0.000 C 
ATOM     29  C   UNL     1      55.775   6.642  15.936  0.00  0.00    +0.000 C 
ATOM     30  C   UNL     1      54.990   6.611  14.625  0.00  0.00    +0.000 C 
ATOM     31  C   UNL     1      53.768   7.518  14.700  0.00  0.00    +0.000 C 
ATOM     32  C   UNL     1      52.940   7.262  15.956  0.00  0.00    +0.000 C 
ATOM     33  N   UNL     1      53.749   7.346  17.173  0.00  0.00    +0.000 NA
ATOM     34  H   UNL     1      53.153   7.186  17.981  0.00  0.00    +0.000 HD
ENDBRANCH  25  28
ENDBRANCH  23  24
ENDBRANCH   4  23
TORSDOF 6
ENDMDL
