MODEL 1
REMARK VINA RESULT:    -6.814      0.000      0.000
REMARK INTER + INTRA:         -12.082
REMARK INTER:                 -10.598
REMARK INTRA:                  -1.484
REMARK UNBOUND:                -1.484
REMARK  Name = 
REMARK  10 active torsions:
REMARK  status: ('A' for Active; 'I' for Inactive)
REMARK    1  A    between atoms: N_1  and  C_2
REMARK    2  A    between atoms: C_2  and  C_3
REMARK    3  A    between atoms: C_3  and  N_4
REMARK    4  A    between atoms: N_4  and  C_5
REMARK    5  A    between atoms: C_5  and  C_6
REMARK    6  A    between atoms: C_9  and  C_10
REMARK    7  A    between atoms: C_10  and  C_11
REMARK    8  A    between atoms: C_14  and  C_15
REMARK    9  A    between atoms: C_15  and  N_16
REMARK   10  A    between atoms: C_17  and  C_19
REMARK                            x       y       z     vdW  Elec       q    Type
REMARK                         _______ _______ _______ _____ _____    ______ ____
ROOT
ATOM      1  C   UNL     1      49.833   4.689  17.247  0.00  0.00    +0.000 A 
ATOM      2  C   UNL     1      50.532   5.866  17.014  0.00  0.00    +0.000 A 
ATOM      3  C   UNL     1      50.055   6.750  16.054  0.00  0.00    +0.000 A 
ATOM      4  C   UNL     1      48.887   6.435  15.375  0.00  0.00    +0.000 A 
ATOM      5  N   UNL     1      48.255   5.258  15.588  0.00  0.00    +0.000 NA
ATOM      6  N   UNL     1      48.728   4.383  16.532  0.00  0.00    +0.000 NA
ENDROOT
BRANCH   1   7
ATOM      7  C   UNL     1      50.236   3.741  18.345  0.00  0.00    +0.000 C 
BRANCH   7  11
ATOM      8  C   UNL     1      53.509   1.200  17.340  0.00  0.00    +0.000 A 
ATOM      9  C   UNL     1      53.783   2.422  17.945  0.00  0.00    +0.000 A 
ATOM     10  C   UNL     1      52.726   3.267  18.273  0.00  0.00    +0.000 A 
ATOM     11  C   UNL     1      51.416   2.878  17.983  0.00  0.00    +0.000 A 
ATOM     12  C   UNL     1      51.236   1.632  17.392  0.00  0.00    +0.000 A 
ATOM     13  N   UNL     1      52.244   0.793  17.061  0.00  0.00    +0.000 NA
BRANCH   8  14
ATOM     14  C   UNL     1      54.635   0.219  17.075  0.00  0.00    +0.000 C 
BRANCH  14  15
ATOM     15  N   UNL     1      54.271  -1.195  17.297  0.00  0.00    +0.000 NA
ATOM     16  H   UNL     1      53.248  -1.236  17.270  0.00  0.00    +0.000 HD
BRANCH  15  17
ATOM     17  C   UNL     1      54.649  -1.656  18.648  0.00  0.00    +0.000 C 
BRANCH  17  18
ATOM     18  C   UNL     1      53.508  -2.355  19.410  0.00  0.00    +0.000 C 
BRANCH  18  19
ATOM     19  N   UNL     1      52.228  -1.667  19.193  0.00  0.00    +0.000 NA
ATOM     20  H   UNL     1      52.071  -1.021  19.965  0.00  0.00    +0.000 HD
ATOM     21  H   UNL     1      51.477  -2.354  19.246  0.00  0.00    +0.000 HD
ENDBRANCH  18  19
ENDBRANCH  17  18
ENDBRANCH  15  17
ENDBRANCH  14  15
ENDBRANCH   8  14
ENDBRANCH   7  11
ENDBRANCH   1   7
BRANCH   4  22
ATOM     22  C   UNL     1      48.299   7.375  14.357  0.00  0.00    +0.000 C 
BRANCH  22  23
ATOM     23  N   UNL     1      47.065   6.856  13.816  0.00  0.00    +0.000 N 
ATOM     24  C   UNL     1      46.792   6.841  12.477  0.00  0.00    +0.000 C 
ATOM     25  O   UNL     1      47.614   7.198  11.636  0.00  0.00    +0.000 OA
ATOM     26  H   UNL     1      46.295   6.798  14.479  0.00  0.00    +0.000 HD
BRANCH  24  27
ATOM     27  C   UNL     1      45.484   6.296  12.090  0.00  0.00    +0.000 A 
ATOM     28  C   UNL     1      44.505   7.138  11.579  0.00  0.00    +0.000 A 
ATOM     29  S   UNL     1      43.089   6.321  11.094  0.00  0.00    +0.000 S 
ATOM     30  C   UNL     1      43.710   4.822  11.605  0.00  0.00    +0.000 A 
ATOM     31  N   UNL     1      42.982   3.680  11.482  0.00  0.00    +0.000 NA
ATOM     32  C   UNL     1      43.565   2.623  11.944  0.00  0.00    +0.000 A 
ATOM     33  N   UNL     1      44.808   2.602  12.516  0.00  0.00    +0.000 N 
ATOM     34  C   UNL     1      45.589   3.726  12.637  0.00  0.00    +0.000 A 
ATOM     35  O   UNL     1      46.714   3.672  13.123  0.00  0.00    +0.000 OA
ATOM     36  C   UNL     1      44.982   4.942  12.133  0.00  0.00    +0.000 A 
ATOM     37  H   UNL     1      45.211   1.744  12.859  0.00  0.00    +0.000 HD
ENDBRANCH  24  27
ENDBRANCH  22  23
ENDBRANCH   4  22
TORSDOF 10
ENDMDL
MODEL 2
REMARK VINA RESULT:    -6.634      3.956      9.389
REMARK INTER + INTRA:         -11.803
REMARK INTER:                 -10.535
REMARK INTRA:                  -1.268
REMARK UNBOUND:                -1.484
REMARK  Name = 
REMARK  10 active torsions:
REMARK  status: ('A' for Active; 'I' for Inactive)
REMARK    1  A    between atoms: N_1  and  C_2
REMARK    2  A    between atoms: C_2  and  C_3
REMARK    3  A    between atoms: C_3  and  N_4
REMARK    4  A    between atoms: N_4  and  C_5
REMARK    5  A    between atoms: C_5  and  C_6
REMARK    6  A    between atoms: C_9  and  C_10
REMARK    7  A    between atoms: C_10  and  C_11
REMARK    8  A    between atoms: C_14  and  C_15
REMARK    9  A    between atoms: C_15  and  N_16
REMARK   10  A    between atoms: C_17  and  C_19
REMARK                            x       y       z     vdW  Elec       q    Type
REMARK                         _______ _______ _______ _____ _____    ______ ____
ROOT
ATOM      1  C   UNL     1      46.327   6.590  13.047  0.00  0.00    +0.000 A 
ATOM      2  C   UNL     1      46.436   7.973  13.111  0.00  0.00    +0.000 A 
ATOM      3  C   UNL     1      47.701   8.541  13.210  0.00  0.00    +0.000 A 
ATOM      4  C   UNL     1      48.810   7.708  13.223  0.00  0.00    +0.000 A 
ATOM      5  N   UNL     1      48.670   6.363  13.210  0.00  0.00    +0.000 NA
ATOM      6  N   UNL     1      47.422   5.801  13.115  0.00  0.00    +0.000 NA
ENDROOT
BRANCH   1   7
ATOM      7  C   UNL     1      44.997   5.917  12.830  0.00  0.00    +0.000 C 
BRANCH   7  11
ATOM      8  C   UNL     1      44.963   3.294   9.469  0.00  0.00    +0.000 A 
ATOM      9  C   UNL     1      45.327   4.621   9.268  0.00  0.00    +0.000 A 
ATOM     10  C   UNL     1      45.335   5.493  10.353  0.00  0.00    +0.000 A 
ATOM     11  C   UNL     1      44.974   5.023  11.618  0.00  0.00    +0.000 A 
ATOM     12  C   UNL     1      44.641   3.677  11.729  0.00  0.00    +0.000 A 
ATOM     13  N   UNL     1      44.621   2.810  10.691  0.00  0.00    +0.000 NA
BRANCH   8  14
ATOM     14  C   UNL     1      45.052   2.304   8.323  0.00  0.00    +0.000 C 
BRANCH  14  15
ATOM     15  N   UNL     1      46.070   1.250   8.511  0.00  0.00    +0.000 NA
ATOM     16  H   UNL     1      46.660   1.557   9.290  0.00  0.00    +0.000 HD
BRANCH  15  17
ATOM     17  C   UNL     1      46.974   1.143   7.349  0.00  0.00    +0.000 C 
BRANCH  17  18
ATOM     18  C   UNL     1      47.390   2.502   6.756  0.00  0.00    +0.000 C 
BRANCH  18  19
ATOM     19  N   UNL     1      48.790   2.479   6.310  0.00  0.00    +0.000 NA
ATOM     20  H   UNL     1      49.101   3.438   6.163  0.00  0.00    +0.000 HD
ATOM     21  H   UNL     1      48.832   2.028   5.397  0.00  0.00    +0.000 HD
ENDBRANCH  18  19
ENDBRANCH  17  18
ENDBRANCH  15  17
ENDBRANCH  14  15
ENDBRANCH   8  14
ENDBRANCH   7  11
ENDBRANCH   1   7
BRANCH   4  22
ATOM     22  C   UNL     1      50.205   8.270  13.285  0.00  0.00    +0.000 C 
BRANCH  22  23
ATOM     23  N   UNL     1      51.031   7.519  14.202  0.00  0.00    +0.000 N 
ATOM     24  C   UNL     1      51.479   8.035  15.386  0.00  0.00    +0.000 C 
ATOM     25  O   UNL     1      51.144   9.148  15.785  0.00  0.00    +0.000 OA
ATOM     26  H   UNL     1      51.517   6.725  13.792  0.00  0.00    +0.000 HD
BRANCH  24  27
ATOM     27  C   UNL     1      52.325   7.150  16.197  0.00  0.00    +0.000 A 
ATOM     28  C   UNL     1      53.670   7.445  16.375  0.00  0.00    +0.000 A 
ATOM     29  S   UNL     1      54.473   6.366  17.423  0.00  0.00    +0.000 S 
ATOM     30  C   UNL     1      53.067   5.430  17.628  0.00  0.00    +0.000 A 
ATOM     31  N   UNL     1      53.068   4.322  18.417  0.00  0.00    +0.000 NA
ATOM     32  C   UNL     1      51.941   3.690  18.451  0.00  0.00    +0.000 A 
ATOM     33  N   UNL     1      50.814   4.065  17.773  0.00  0.00    +0.000 N 
ATOM     34  C   UNL     1      50.759   5.190  16.986  0.00  0.00    +0.000 A 
ATOM     35  O   UNL     1      49.724   5.521  16.417  0.00  0.00    +0.000 OA
ATOM     36  C   UNL     1      51.999   5.938  16.912  0.00  0.00    +0.000 A 
ATOM     37  H   UNL     1      49.961   3.530  17.840  0.00  0.00    +0.000 HD
ENDBRANCH  24  27
ENDBRANCH  22  23
ENDBRANCH   4  22
TORSDOF 10
ENDMDL
MODEL 3
REMARK VINA RESULT:    -6.413      2.106      2.936
REMARK INTER + INTRA:         -11.459
REMARK INTER:                 -10.141
REMARK INTRA:                  -1.317
REMARK UNBOUND:                -1.484
REMARK  Name = 
REMARK  10 active torsions:
REMARK  status: ('A' for Active; 'I' for Inactive)
REMARK    1  A    between atoms: N_1  and  C_2
REMARK    2  A    between atoms: C_2  and  C_3
REMARK    3  A    between atoms: C_3  and  N_4
REMARK    4  A    between atoms: N_4  and  C_5
REMARK    5  A    between atoms: C_5  and  C_6
REMARK    6  A    between atoms: C_9  and  C_10
REMARK    7  A    between atoms: C_10  and  C_11
REMARK    8  A    between atoms: C_14  and  C_15
REMARK    9  A    between atoms: C_15  and  N_16
REMARK   10  A    between atoms: C_17  and  C_19
REMARK                            x       y       z     vdW  Elec       q    Type
REMARK                         _______ _______ _______ _____ _____    ______ ____
ROOT
ATOM      1  C   UNL     1      50.678   5.182  18.482  0.00  0.00    +0.000 A 
ATOM      2  C   UNL     1      49.757   4.513  19.277  0.00  0.00    +0.000 A 
ATOM      3  C   UNL     1      48.625   3.972  18.680  0.00  0.00    +0.000 A 
ATOM      4  C   UNL     1      48.463   4.104  17.309  0.00  0.00    +0.000 A 
ATOM      5  N   UNL     1      49.351   4.803  16.568  0.00  0.00    +0.000 NA
ATOM      6  N   UNL     1      50.468   5.341  17.156  0.00  0.00    +0.000 NA
ENDROOT
BRANCH   1   7
ATOM      7  C   UNL     1      51.976   5.696  19.048  0.00  0.00    +0.000 C 
BRANCH   7  11
ATOM      8  C   UNL     1      54.651   2.527  20.035  0.00  0.00    +0.000 A 
ATOM      9  C   UNL     1      54.100   3.274  21.071  0.00  0.00    +0.000 A 
ATOM     10  C   UNL     1      53.232   4.318  20.765  0.00  0.00    +0.000 A 
ATOM     11  C   UNL     1      52.934   4.599  19.430  0.00  0.00    +0.000 A 
ATOM     12  C   UNL     1      53.517   3.789  18.461  0.00  0.00    +0.000 A 
ATOM     13  N   UNL     1      54.366   2.772  18.730  0.00  0.00    +0.000 NA
BRANCH   8  14
ATOM     14  C   UNL     1      55.513   1.319  20.350  0.00  0.00    +0.000 C 
BRANCH  14  15
ATOM     15  N   UNL     1      54.812   0.025  20.217  0.00  0.00    +0.000 NA
ATOM     16  H   UNL     1      55.100  -0.541  21.021  0.00  0.00    +0.000 HD
BRANCH  15  17
ATOM     17  C   UNL     1      55.260  -0.725  19.027  0.00  0.00    +0.000 C 
BRANCH  17  18
ATOM     18  C   UNL     1      54.294  -0.632  17.832  0.00  0.00    +0.000 C 
BRANCH  18  19
ATOM     19  N   UNL     1      52.959  -0.197  18.264  0.00  0.00    +0.000 NA
ATOM     20  H   UNL     1      52.492   0.254  17.478  0.00  0.00    +0.000 HD
ATOM     21  H   UNL     1      53.067   0.524  18.976  0.00  0.00    +0.000 HD
ENDBRANCH  18  19
ENDBRANCH  17  18
ENDBRANCH  15  17
ENDBRANCH  14  15
ENDBRANCH   8  14
ENDBRANCH   7  11
ENDBRANCH   1   7
BRANCH   4  22
ATOM     22  C   UNL     1      47.279   3.500  16.602  0.00  0.00    +0.000 C 
BRANCH  22  23
ATOM     23  N   UNL     1      46.708   4.426  15.652  0.00  0.00    +0.000 N 
ATOM     24  C   UNL     1      46.756   4.224  14.302  0.00  0.00    +0.000 C 
ATOM     25  O   UNL     1      47.220   3.199  13.808  0.00  0.00    +0.000 OA
ATOM     26  H   UNL     1      46.556   5.368  16.008  0.00  0.00    +0.000 HD
BRANCH  24  27
ATOM     27  C   UNL     1      46.144   5.269  13.470  0.00  0.00    +0.000 A 
ATOM     28  C   UNL     1      46.847   6.432  13.189  0.00  0.00    +0.000 A 
ATOM     29  S   UNL     1      46.025   7.489  12.132  0.00  0.00    +0.000 S 
ATOM     30  C   UNL     1      44.673   6.456  12.061  0.00  0.00    +0.000 A 
ATOM     31  N   UNL     1      43.580   6.779  11.320  0.00  0.00    +0.000 NA
ATOM     32  C   UNL     1      42.617   5.920  11.388  0.00  0.00    +0.000 A 
ATOM     33  N   UNL     1      42.647   4.769  12.127  0.00  0.00    +0.000 N 
ATOM     34  C   UNL     1      43.739   4.391  12.870  0.00  0.00    +0.000 A 
ATOM     35  O   UNL     1      43.751   3.335  13.495  0.00  0.00    +0.000 OA
ATOM     36  C   UNL     1      44.851   5.320  12.828  0.00  0.00    +0.000 A 
ATOM     37  H   UNL     1      41.862   4.136  12.140  0.00  0.00    +0.000 HD
ENDBRANCH  24  27
ENDBRANCH  22  23
ENDBRANCH   4  22
TORSDOF 10
ENDMDL
MODEL 4
REMARK VINA RESULT:    -6.404      3.507      4.968
REMARK INTER + INTRA:         -11.445
REMARK INTER:                 -10.374
REMARK INTRA:                  -1.071
REMARK UNBOUND:                -1.484
REMARK  Name = 
REMARK  10 active torsions:
REMARK  status: ('A' for Active; 'I' for Inactive)
REMARK    1  A    between atoms: N_1  and  C_2
REMARK    2  A    between atoms: C_2  and  C_3
REMARK    3  A    between atoms: C_3  and  N_4
REMARK    4  A    between atoms: N_4  and  C_5
REMARK    5  A    between atoms: C_5  and  C_6
REMARK    6  A    between atoms: C_9  and  C_10
REMARK    7  A    between atoms: C_10  and  C_11
REMARK    8  A    between atoms: C_14  and  C_15
REMARK    9  A    between atoms: C_15  and  N_16
REMARK   10  A    between atoms: C_17  and  C_19
REMARK                            x       y       z     vdW  Elec       q    Type
REMARK                         _______ _______ _______ _____ _____    ______ ____
ROOT
ATOM      1  C   UNL     1      51.117   4.092  18.244  0.00  0.00    +0.000 A 
ATOM      2  C   UNL     1      50.860   2.947  17.503  0.00  0.00    +0.000 A 
ATOM      3  C   UNL     1      49.557   2.694  17.089  0.00  0.00    +0.000 A 
ATOM      4  C   UNL     1      48.562   3.605  17.417  0.00  0.00    +0.000 A 
ATOM      5  N   UNL     1      48.834   4.685  18.183  0.00  0.00    +0.000 NA
ATOM      6  N   UNL     1      50.119   4.934  18.594  0.00  0.00    +0.000 NA
ENDROOT
BRANCH   1   7
ATOM      7  C   UNL     1      52.520   4.479  18.629  0.00  0.00    +0.000 C 
BRANCH   7  11
ATOM      8  C   UNL     1      54.614   6.263  15.371  0.00  0.00    +0.000 A 
ATOM      9  C   UNL     1      55.249   5.260  16.095  0.00  0.00    +0.000 A 
ATOM     10  C   UNL     1      54.583   4.673  17.167  0.00  0.00    +0.000 A 
ATOM     11  C   UNL     1      53.296   5.104  17.499  0.00  0.00    +0.000 A 
ATOM     12  C   UNL     1      52.732   6.100  16.710  0.00  0.00    +0.000 A 
ATOM     13  N   UNL     1      53.359   6.689  15.666  0.00  0.00    +0.000 NA
BRANCH   8  14
ATOM     14  C   UNL     1      55.278   6.839  14.136  0.00  0.00    +0.000 C 
BRANCH  14  15
ATOM     15  N   UNL     1      54.785   6.272  12.863  0.00  0.00    +0.000 NA
ATOM     16  H   UNL     1      53.856   5.889  13.061  0.00  0.00    +0.000 HD
BRANCH  15  17
ATOM     17  C   UNL     1      55.600   5.122  12.420  0.00  0.00    +0.000 C 
BRANCH  17  18
ATOM     18  C   UNL     1      55.010   4.369  11.214  0.00  0.00    +0.000 C 
BRANCH  18  19
ATOM     19  N   UNL     1      53.824   5.058  10.688  0.00  0.00    +0.000 NA
ATOM     20  H   UNL     1      53.618   5.855  11.289  0.00  0.00    +0.000 HD
ATOM     21  H   UNL     1      53.023   4.433  10.768  0.00  0.00    +0.000 HD
ENDBRANCH  18  19
ENDBRANCH  17  18
ENDBRANCH  15  17
ENDBRANCH  14  15
ENDBRANCH   8  14
ENDBRANCH   7  11
ENDBRANCH   1   7
BRANCH   4  22
ATOM     22  C   UNL     1      47.142   3.405  16.960  0.00  0.00    +0.000 C 
BRANCH  22  23
ATOM     23  N   UNL     1      46.773   4.379  15.959  0.00  0.00    +0.000 N 
ATOM     24  C   UNL     1      46.950   4.168  14.621  0.00  0.00    +0.000 C 
ATOM     25  O   UNL     1      47.366   3.101  14.174  0.00  0.00    +0.000 OA
ATOM     26  H   UNL     1      46.673   5.331  16.303  0.00  0.00    +0.000 HD
BRANCH  24  27
ATOM     27  C   UNL     1      46.539   5.264  13.734  0.00  0.00    +0.000 A 
ATOM     28  C   UNL     1      47.395   6.334  13.509  0.00  0.00    +0.000 A 
ATOM     29  S   UNL     1      46.795   7.462  12.380  0.00  0.00    +0.000 S 
ATOM     30  C   UNL     1      45.343   6.593  12.197  0.00  0.00    +0.000 A 
ATOM     31  N   UNL     1      44.363   7.029  11.362  0.00  0.00    +0.000 NA
ATOM     32  C   UNL     1      43.304   6.289  11.350  0.00  0.00    +0.000 A 
ATOM     33  N   UNL     1      43.136   5.153  12.094  0.00  0.00    +0.000 N 
ATOM     34  C   UNL     1      44.108   4.662  12.931  0.00  0.00    +0.000 A 
ATOM     35  O   UNL     1      43.943   3.622  13.561  0.00  0.00    +0.000 OA
ATOM     36  C   UNL     1      45.320   5.455  12.982  0.00  0.00    +0.000 A 
ATOM     37  H   UNL     1      42.283   4.615  12.042  0.00  0.00    +0.000 HD
ENDBRANCH  24  27
ENDBRANCH  22  23
ENDBRANCH   4  22
TORSDOF 10
ENDMDL
MODEL 5
REMARK VINA RESULT:    -6.348      2.298      3.280
REMARK INTER + INTRA:         -11.358
REMARK INTER:                 -11.061
REMARK INTRA:                  -0.297
REMARK UNBOUND:                -1.484
REMARK  Name = 
REMARK  10 active torsions:
REMARK  status: ('A' for Active; 'I' for Inactive)
REMARK    1  A    between atoms: N_1  and  C_2
REMARK    2  A    between atoms: C_2  and  C_3
REMARK    3  A    between atoms: C_3  and  N_4
REMARK    4  A    between atoms: N_4  and  C_5
REMARK    5  A    between atoms: C_5  and  C_6
REMARK    6  A    between atoms: C_9  and  C_10
REMARK    7  A    between atoms: C_10  and  C_11
REMARK    8  A    between atoms: C_14  and  C_15
REMARK    9  A    between atoms: C_15  and  N_16
REMARK   10  A    between atoms: C_17  and  C_19
REMARK                            x       y       z     vdW  Elec       q    Type
REMARK                         _______ _______ _______ _____ _____    ______ ____
ROOT
ATOM      1  C   UNL     1      51.274   3.580  18.021  0.00  0.00    +0.000 A 
ATOM      2  C   UNL     1      50.403   4.409  18.715  0.00  0.00    +0.000 A 
ATOM      3  C   UNL     1      49.053   4.392  18.382  0.00  0.00    +0.000 A 
ATOM      4  C   UNL     1      48.622   3.534  17.381  0.00  0.00    +0.000 A 
ATOM      5  N   UNL     1      49.500   2.774  16.689  0.00  0.00    +0.000 NA
ATOM      6  N   UNL     1      50.833   2.793  17.015  0.00  0.00    +0.000 NA
ENDROOT
BRANCH   1   7
ATOM      7  C   UNL     1      52.726   3.471  18.404  0.00  0.00    +0.000 C 
BRANCH   7  11
ATOM      8  C   UNL     1      54.643   0.050  16.730  0.00  0.00    +0.000 A 
ATOM      9  C   UNL     1      55.256   1.289  16.583  0.00  0.00    +0.000 A 
ATOM     10  C   UNL     1      54.640   2.418  17.117  0.00  0.00    +0.000 A 
ATOM     11  C   UNL     1      53.418   2.287  17.781  0.00  0.00    +0.000 A 
ATOM     12  C   UNL     1      52.886   1.007  17.895  0.00  0.00    +0.000 A 
ATOM     13  N   UNL     1      53.463  -0.105  17.384  0.00  0.00    +0.000 NA
BRANCH   8  14
ATOM     14  C   UNL     1      55.349  -1.204  16.252  0.00  0.00    +0.000 C 
BRANCH  14  15
ATOM     15  N   UNL     1      54.520  -2.076  15.394  0.00  0.00    +0.000 NA
ATOM     16  H   UNL     1      53.755  -2.416  15.985  0.00  0.00    +0.000 HD
BRANCH  15  17
ATOM     17  C   UNL     1      55.253  -3.284  14.964  0.00  0.00    +0.000 C 
BRANCH  17  18
ATOM     18  C   UNL     1      54.380  -4.309  14.216  0.00  0.00    +0.000 C 
BRANCH  18  19
ATOM     19  N   UNL     1      53.879  -3.755  12.952  0.00  0.00    +0.000 NA
ATOM     20  H   UNL     1      52.994  -3.282  13.131  0.00  0.00    +0.000 HD
ATOM     21  H   UNL     1      53.661  -4.526  12.322  0.00  0.00    +0.000 HD
ENDBRANCH  18  19
ENDBRANCH  17  18
ENDBRANCH  15  17
ENDBRANCH  14  15
ENDBRANCH   8  14
ENDBRANCH   7  11
ENDBRANCH   1   7
BRANCH   4  22
ATOM     22  C   UNL     1      47.166   3.442  17.009  0.00  0.00    +0.000 C 
BRANCH  22  23
ATOM     23  N   UNL     1      46.821   4.415  16.000  0.00  0.00    +0.000 N 
ATOM     24  C   UNL     1      46.932   4.163  14.661  0.00  0.00    +0.000 C 
ATOM     25  O   UNL     1      47.260   3.062  14.225  0.00  0.00    +0.000 OA
ATOM     26  H   UNL     1      46.797   5.380  16.323  0.00  0.00    +0.000 HD
BRANCH  24  27
ATOM     27  C   UNL     1      46.558   5.264  13.763  0.00  0.00    +0.000 A 
ATOM     28  C   UNL     1      47.439   6.316  13.549  0.00  0.00    +0.000 A 
ATOM     29  S   UNL     1      46.881   7.452  12.406  0.00  0.00    +0.000 S 
ATOM     30  C   UNL     1      45.415   6.612  12.203  0.00  0.00    +0.000 A 
ATOM     31  N   UNL     1      44.457   7.065  11.349  0.00  0.00    +0.000 NA
ATOM     32  C   UNL     1      43.384   6.346  11.323  0.00  0.00    +0.000 A 
ATOM     33  N   UNL     1      43.180   5.217  12.068  0.00  0.00    +0.000 N 
ATOM     34  C   UNL     1      44.128   4.709  12.923  0.00  0.00    +0.000 A 
ATOM     35  O   UNL     1      43.932   3.675  13.553  0.00  0.00    +0.000 OA
ATOM     36  C   UNL     1      45.356   5.478  12.991  0.00  0.00    +0.000 A 
ATOM     37  H   UNL     1      42.318   4.697  12.004  0.00  0.00    +0.000 HD
ENDBRANCH  24  27
ENDBRANCH  22  23
ENDBRANCH   4  22
TORSDOF 10
ENDMDL
MODEL 6
REMARK VINA RESULT:    -6.075      6.126      9.528
REMARK INTER + INTRA:         -10.933
REMARK INTER:                  -9.832
REMARK INTRA:                  -1.101
REMARK UNBOUND:                -1.484
REMARK  Name = 
REMARK  10 active torsions:
REMARK  status: ('A' for Active; 'I' for Inactive)
REMARK    1  A    between atoms: N_1  and  C_2
REMARK    2  A    between atoms: C_2  and  C_3
REMARK    3  A    between atoms: C_3  and  N_4
REMARK    4  A    between atoms: N_4  and  C_5
REMARK    5  A    between atoms: C_5  and  C_6
REMARK    6  A    between atoms: C_9  and  C_10
REMARK    7  A    between atoms: C_10  and  C_11
REMARK    8  A    between atoms: C_14  and  C_15
REMARK    9  A    between atoms: C_15  and  N_16
REMARK   10  A    between atoms: C_17  and  C_19
REMARK                            x       y       z     vdW  Elec       q    Type
REMARK                         _______ _______ _______ _____ _____    ______ ____
ROOT
ATOM      1  C   UNL     1      46.093   6.896  12.880  0.00  0.00    +0.000 A 
ATOM      2  C   UNL     1      46.911   5.889  13.372  0.00  0.00    +0.000 A 
ATOM      3  C   UNL     1      48.124   6.236  13.957  0.00  0.00    +0.000 A 
ATOM      4  C   UNL     1      48.465   7.578  14.043  0.00  0.00    +0.000 A 
ATOM      5  N   UNL     1      47.671   8.533  13.510  0.00  0.00    +0.000 NA
ATOM      6  N   UNL     1      46.475   8.192  12.930  0.00  0.00    +0.000 NA
ENDROOT
BRANCH   1   7
ATOM      7  C   UNL     1      44.721   6.597  12.334  0.00  0.00    +0.000 C 
BRANCH   7  11
ATOM      8  C   UNL     1      44.683   3.314   9.613  0.00  0.00    +0.000 A 
ATOM      9  C   UNL     1      45.431   4.439   9.282  0.00  0.00    +0.000 A 
ATOM     10  C   UNL     1      45.448   5.523  10.155  0.00  0.00    +0.000 A 
ATOM     11  C   UNL     1      44.711   5.464  11.341  0.00  0.00    +0.000 A 
ATOM     12  C   UNL     1      44.006   4.294  11.599  0.00  0.00    +0.000 A 
ATOM     13  N   UNL     1      43.970   3.228  10.766  0.00  0.00    +0.000 NA
BRANCH   8  14
ATOM     14  C   UNL     1      44.738   2.083   8.730  0.00  0.00    +0.000 C 
BRANCH  14  15
ATOM     15  N   UNL     1      46.105   1.667   8.355  0.00  0.00    +0.000 NA
ATOM     16  H   UNL     1      46.739   2.154   8.996  0.00  0.00    +0.000 HD
BRANCH  15  17
ATOM     17  C   UNL     1      46.474   2.135   7.004  0.00  0.00    +0.000 C 
BRANCH  17  18
ATOM     18  C   UNL     1      47.971   2.454   6.842  0.00  0.00    +0.000 C 
BRANCH  18  19
ATOM     19  N   UNL     1      48.542   1.739   5.693  0.00  0.00    +0.000 NA
ATOM     20  H   UNL     1      48.817   2.421   4.988  0.00  0.00    +0.000 HD
ATOM     21  H   UNL     1      47.809   1.174   5.265  0.00  0.00    +0.000 HD
ENDBRANCH  18  19
ENDBRANCH  17  18
ENDBRANCH  15  17
ENDBRANCH  14  15
ENDBRANCH   8  14
ENDBRANCH   7  11
ENDBRANCH   1   7
BRANCH   4  22
ATOM     22  C   UNL     1      49.745   8.015  14.704  0.00  0.00    +0.000 C 
BRANCH  22  23
ATOM     23  N   UNL     1      50.881   7.798  13.839  0.00  0.00    +0.000 N 
ATOM     24  C   UNL     1      51.875   8.723  13.678  0.00  0.00    +0.000 C 
ATOM     25  O   UNL     1      51.907   9.771  14.319  0.00  0.00    +0.000 OA
ATOM     26  H   UNL     1      50.751   7.081  13.129  0.00  0.00    +0.000 HD
BRANCH  24  27
ATOM     27  C   UNL     1      52.952   8.357  12.749  0.00  0.00    +0.000 A 
ATOM     28  C   UNL     1      54.279   8.516  13.127  0.00  0.00    +0.000 A 
ATOM     29  S   UNL     1      55.392   7.951  11.965  0.00  0.00    +0.000 S 
ATOM     30  C   UNL     1      54.143   7.531  10.889  0.00  0.00    +0.000 A 
ATOM     31  N   UNL     1      54.415   6.990   9.672  0.00  0.00    +0.000 NA
ATOM     32  C   UNL     1      53.371   6.755   8.947  0.00  0.00    +0.000 A 
ATOM     33  N   UNL     1      52.082   7.008   9.328  0.00  0.00    +0.000 N 
ATOM     34  C   UNL     1      51.759   7.529  10.557  0.00  0.00    +0.000 A 
ATOM     35  O   UNL     1      50.591   7.714  10.885  0.00  0.00    +0.000 OA
ATOM     36  C   UNL     1      52.894   7.812  11.412  0.00  0.00    +0.000 A 
ATOM     37  H   UNL     1      51.306   6.802   8.716  0.00  0.00    +0.000 HD
ENDBRANCH  24  27
ENDBRANCH  22  23
ENDBRANCH   4  22
TORSDOF 10
ENDMDL
MODEL 7
REMARK VINA RESULT:    -5.701      2.366      4.148
REMARK INTER + INTRA:         -10.352
REMARK INTER:                  -9.453
REMARK INTRA:                  -0.900
REMARK UNBOUND:                -1.484
REMARK  Name = 
REMARK  10 active torsions:
REMARK  status: ('A' for Active; 'I' for Inactive)
REMARK    1  A    between atoms: N_1  and  C_2
REMARK    2  A    between atoms: C_2  and  C_3
REMARK    3  A    between atoms: C_3  and  N_4
REMARK    4  A    between atoms: N_4  and  C_5
REMARK    5  A    between atoms: C_5  and  C_6
REMARK    6  A    between atoms: C_9  and  C_10
REMARK    7  A    between atoms: C_10  and  C_11
REMARK    8  A    between atoms: C_14  and  C_15
REMARK    9  A    between atoms: C_15  and  N_16
REMARK   10  A    between atoms: C_17  and  C_19
REMARK                            x       y       z     vdW  Elec       q    Type
REMARK                         _______ _______ _______ _____ _____    ______ ____
ROOT
ATOM      1  C   UNL     1      51.632   3.117  17.845  0.00  0.00    +0.000 A 
ATOM      2  C   UNL     1      50.900   4.216  18.275  0.00  0.00    +0.000 A 
ATOM      3  C   UNL     1      49.554   4.297  17.940  0.00  0.00    +0.000 A 
ATOM      4  C   UNL     1      48.984   3.269  17.203  0.00  0.00    +0.000 A 
ATOM      5  N   UNL     1      49.733   2.236  16.756  0.00  0.00    +0.000 NA
ATOM      6  N   UNL     1      51.063   2.157  17.083  0.00  0.00    +0.000 NA
ENDROOT
BRANCH   1   7
ATOM      7  C   UNL     1      53.064   2.916  18.264  0.00  0.00    +0.000 C 
BRANCH   7  11
ATOM      8  C   UNL     1      54.759  -0.737  16.862  0.00  0.00    +0.000 A 
ATOM      9  C   UNL     1      55.186   0.454  16.285  0.00  0.00    +0.000 A 
ATOM     10  C   UNL     1      54.637   1.655  16.725  0.00  0.00    +0.000 A 
ATOM     11  C   UNL     1      53.666   1.642  17.730  0.00  0.00    +0.000 A 
ATOM     12  C   UNL     1      53.313   0.407  18.261  0.00  0.00    +0.000 A 
ATOM     13  N   UNL     1      53.828  -0.774  17.849  0.00  0.00    +0.000 NA
BRANCH   8  14
ATOM     14  C   UNL     1      55.422  -2.045  16.473  0.00  0.00    +0.000 C 
BRANCH  14  15
ATOM     15  N   UNL     1      55.152  -2.470  15.084  0.00  0.00    +0.000 NA
ATOM     16  H   UNL     1      54.630  -1.706  14.646  0.00  0.00    +0.000 HD
BRANCH  15  17
ATOM     17  C   UNL     1      54.256  -3.643  15.030  0.00  0.00    +0.000 C 
BRANCH  17  18
ATOM     18  C   UNL     1      54.419  -4.494  13.757  0.00  0.00    +0.000 C 
BRANCH  18  19
ATOM     19  N   UNL     1      53.526  -5.660  13.784  0.00  0.00    +0.000 NA
ATOM     20  H   UNL     1      54.055  -6.468  14.108  0.00  0.00    +0.000 HD
ATOM     21  H   UNL     1      53.245  -5.875  12.828  0.00  0.00    +0.000 HD
ENDBRANCH  18  19
ENDBRANCH  17  18
ENDBRANCH  15  17
ENDBRANCH  14  15
ENDBRANCH   8  14
ENDBRANCH   7  11
ENDBRANCH   1   7
BRANCH   4  22
ATOM     22  C   UNL     1      47.521   3.282  16.849  0.00  0.00    +0.000 C 
BRANCH  22  23
ATOM     23  N   UNL     1      47.214   4.357  15.934  0.00  0.00    +0.000 N 
ATOM     24  C   UNL     1      47.128   4.175  14.582  0.00  0.00    +0.000 C 
ATOM     25  O   UNL     1      47.230   3.067  14.061  0.00  0.00    +0.000 OA
ATOM     26  H   UNL     1      47.376   5.292  16.300  0.00  0.00    +0.000 HD
BRANCH  24  27
ATOM     27  C   UNL     1      46.824   5.373  13.788  0.00  0.00    +0.000 A 
ATOM     28  C   UNL     1      45.687   5.408  12.993  0.00  0.00    +0.000 A 
ATOM     29  S   UNL     1      45.442   6.908  12.219  0.00  0.00    +0.000 S 
ATOM     30  C   UNL     1      46.880   7.543  12.870  0.00  0.00    +0.000 A 
ATOM     31  N   UNL     1      47.279   8.813  12.588  0.00  0.00    +0.000 NA
ATOM     32  C   UNL     1      48.407   9.147  13.123  0.00  0.00    +0.000 A 
ATOM     33  N   UNL     1      49.171   8.333  13.913  0.00  0.00    +0.000 N 
ATOM     34  C   UNL     1      48.794   7.054  14.245  0.00  0.00    +0.000 A 
ATOM     35  O   UNL     1      49.482   6.357  14.984  0.00  0.00    +0.000 OA
ATOM     36  C   UNL     1      47.534   6.626  13.671  0.00  0.00    +0.000 A 
ATOM     37  H   UNL     1      50.045   8.652  14.303  0.00  0.00    +0.000 HD
ENDBRANCH  24  27
ENDBRANCH  22  23
ENDBRANCH   4  22
TORSDOF 10
ENDMDL
MODEL 8
REMARK VINA RESULT:    -5.639      2.219      3.314
REMARK INTER + INTRA:         -10.255
REMARK INTER:                  -9.571
REMARK INTRA:                  -0.684
REMARK UNBOUND:                -1.484
REMARK  Name = 
REMARK  10 active torsions:
REMARK  status: ('A' for Active; 'I' for Inactive)
REMARK    1  A    between atoms: N_1  and  C_2
REMARK    2  A    between atoms: C_2  and  C_3
REMARK    3  A    between atoms: C_3  and  N_4
REMARK    4  A    between atoms: N_4  and  C_5
REMARK    5  A    between atoms: C_5  and  C_6
REMARK    6  A    between atoms: C_9  and  C_10
REMARK    7  A    between atoms: C_10  and  C_11
REMARK    8  A    between atoms: C_14  and  C_15
REMARK    9  A    between atoms: C_15  and  N_16
REMARK   10  A    between atoms: C_17  and  C_19
REMARK                            x       y       z     vdW  Elec       q    Type
REMARK                         _______ _______ _______ _____ _____    ______ ____
ROOT
ATOM      1  C   UNL     1      51.619   3.298  17.712  0.00  0.00    +0.000 A 
ATOM      2  C   UNL     1      50.990   2.124  17.321  0.00  0.00    +0.000 A 
ATOM      3  C   UNL     1      49.616   2.136  17.113  0.00  0.00    +0.000 A 
ATOM      4  C   UNL     1      48.924   3.326  17.288  0.00  0.00    +0.000 A 
ATOM      5  N   UNL     1      49.555   4.441  17.718  0.00  0.00    +0.000 NA
ATOM      6  N   UNL     1      50.911   4.429  17.925  0.00  0.00    +0.000 NA
ENDROOT
BRANCH   1   7
ATOM      7  C   UNL     1      53.117   3.379  17.848  0.00  0.00    +0.000 C 
BRANCH   7  11
ATOM      8  C   UNL     1      54.995  -0.311  18.867  0.00  0.00    +0.000 A 
ATOM      9  C   UNL     1      54.578  -0.122  17.554  0.00  0.00    +0.000 A 
ATOM     10  C   UNL     1      53.955   1.074  17.206  0.00  0.00    +0.000 A 
ATOM     11  C   UNL     1      53.756   2.056  18.180  0.00  0.00    +0.000 A 
ATOM     12  C   UNL     1      54.220   1.788  19.463  0.00  0.00    +0.000 A 
ATOM     13  N   UNL     1      54.824   0.634  19.827  0.00  0.00    +0.000 NA
BRANCH   8  14
ATOM     14  C   UNL     1      55.770  -1.559  19.241  0.00  0.00    +0.000 C 
BRANCH  14  15
ATOM     15  N   UNL     1      54.941  -2.778  19.344  0.00  0.00    +0.000 NA
ATOM     16  H   UNL     1      54.179  -2.665  18.670  0.00  0.00    +0.000 HD
BRANCH  15  17
ATOM     17  C   UNL     1      54.288  -2.891  20.664  0.00  0.00    +0.000 C 
BRANCH  17  18
ATOM     18  C   UNL     1      54.089  -4.342  21.139  0.00  0.00    +0.000 C 
BRANCH  18  19
ATOM     19  N   UNL     1      52.856  -4.916  20.584  0.00  0.00    +0.000 NA
ATOM     20  H   UNL     1      52.739  -5.858  20.955  0.00  0.00    +0.000 HD
ATOM     21  H   UNL     1      52.973  -5.025  19.577  0.00  0.00    +0.000 HD
ENDBRANCH  18  19
ENDBRANCH  17  18
ENDBRANCH  15  17
ENDBRANCH  14  15
ENDBRANCH   8  14
ENDBRANCH   7  11
ENDBRANCH   1   7
BRANCH   4  22
ATOM     22  C   UNL     1      47.442   3.408  17.035  0.00  0.00    +0.000 C 
BRANCH  22  23
ATOM     23  N   UNL     1      47.133   4.425  16.057  0.00  0.00    +0.000 N 
ATOM     24  C   UNL     1      47.185   4.196  14.711  0.00  0.00    +0.000 C 
ATOM     25  O   UNL     1      47.422   3.085  14.243  0.00  0.00    +0.000 OA
ATOM     26  H   UNL     1      47.186   5.382  16.400  0.00  0.00    +0.000 HD
BRANCH  24  27
ATOM     27  C   UNL     1      46.859   5.339  13.848  0.00  0.00    +0.000 A 
ATOM     28  C   UNL     1      47.780   6.364  13.677  0.00  0.00    +0.000 A 
ATOM     29  S   UNL     1      47.274   7.558  12.569  0.00  0.00    +0.000 S 
ATOM     30  C   UNL     1      45.781   6.779  12.324  0.00  0.00    +0.000 A 
ATOM     31  N   UNL     1      44.849   7.295  11.478  0.00  0.00    +0.000 NA
ATOM     32  C   UNL     1      43.750   6.616  11.419  0.00  0.00    +0.000 A 
ATOM     33  N   UNL     1      43.499   5.471  12.123  0.00  0.00    +0.000 N 
ATOM     34  C   UNL     1      44.420   4.901  12.968  0.00  0.00    +0.000 A 
ATOM     35  O   UNL     1      44.180   3.854  13.562  0.00  0.00    +0.000 OA
ATOM     36  C   UNL     1      45.673   5.622  13.073  0.00  0.00    +0.000 A 
ATOM     37  H   UNL     1      42.619   4.985  12.034  0.00  0.00    +0.000 HD
ENDBRANCH  24  27
ENDBRANCH  22  23
ENDBRANCH   4  22
TORSDOF 10
ENDMDL
