MODEL 1
REMARK VINA RESULT:    -8.281      0.000      0.000
REMARK INTER + INTRA:         -13.395
REMARK INTER:                 -12.154
REMARK INTRA:                  -1.241
REMARK UNBOUND:                -1.241
REMARK  Name = 
REMARK  11 active torsions:
REMARK  status: ('A' for Active; 'I' for Inactive)
REMARK    1  A    between atoms: C_1  and  O_2
REMARK    2  A    between atoms: O_2  and  C_3
REMARK    3  A    between atoms: C_5  and  C_6
REMARK    4  A    between atoms: C_11  and  C_12
REMARK    5  A    between atoms: N_14  and  C_15
REMARK    6  A    between atoms: C_15  and  C_16
REMARK    7  A    between atoms: C_19  and  C_20
REMARK    8  A    between atoms: C_20  and  N_21
REMARK    9  A    between atoms: N_21  and  C_22
REMARK   10  A    between atoms: C_22  and  C_23
REMARK   11  A    between atoms: C_26  and  C_27
REMARK                            x       y       z     vdW  Elec       q    Type
REMARK                         _______ _______ _______ _____ _____    ______ ____
ROOT
ATOM      1  C   UNL     1      46.073   7.421  12.618  0.00  0.00    +0.000 A 
ATOM      2  C   UNL     1      44.961   7.538  11.776  0.00  0.00    +0.000 A 
ATOM      3  C   UNL     1      44.257   6.402  11.366  0.00  0.00    +0.000 A 
ATOM      4  C   UNL     1      44.649   5.125  11.787  0.00  0.00    +0.000 A 
ATOM      5  C   UNL     1      45.754   5.013  12.641  0.00  0.00    +0.000 A 
ATOM      6  C   UNL     1      46.453   6.148  13.059  0.00  0.00    +0.000 A 
ENDROOT
BRANCH   1   7
ATOM      7  C   UNL     1      46.822   8.645  13.074  0.00  0.00    +0.000 C 
BRANCH   7  10
ATOM      8  C   UNL     1      48.418   8.310  14.899  0.00  0.00    +0.000 C 
ATOM      9  O   UNL     1      49.315   8.007  14.116  0.00  0.00    +0.000 OA
ATOM     10  N   UNL     1      47.141   8.569  14.478  0.00  0.00    +0.000 N 
ATOM     11  H   UNL     1      46.455   8.918  15.137  0.00  0.00    +0.000 HD
BRANCH   8  20
ATOM     12  C   UNL     1      48.701   5.886  17.250  0.00  0.00    +0.000 A 
ATOM     13  N   UNL     1      48.847   5.132  18.356  0.00  0.00    +0.000 NA
ATOM     14  C   UNL     1      49.049   5.747  19.533  0.00  0.00    +0.000 A 
ATOM     15  C   UNL     1      49.225   4.878  20.739  0.00  0.00    +0.000 C 
ATOM     16  N   UNL     1      49.119   7.068  19.723  0.00  0.00    +0.000 NA
ATOM     17  C   UNL     1      48.972   7.781  18.594  0.00  0.00    +0.000 A 
ATOM     18  S   UNL     1      49.019   9.480  18.651  0.00  0.00    +0.000 S 
ATOM     19  C   UNL     1      48.751   9.596  16.975  0.00  0.00    +0.000 A 
ATOM     20  C   UNL     1      48.653   8.363  16.346  0.00  0.00    +0.000 A 
ATOM     21  C   UNL     1      48.773   7.284  17.314  0.00  0.00    +0.000 A 
BRANCH  12  23
ATOM     22  C   UNL     1      47.492   4.275  16.055  0.00  0.00    +0.000 C 
ATOM     23  O   UNL     1      48.528   5.254  16.035  0.00  0.00    +0.000 OA
ENDBRANCH  12  23
ENDBRANCH   8  20
ENDBRANCH   7  10
ENDBRANCH   1   7
BRANCH   4  24
ATOM     24  C   UNL     1      43.887   3.897  11.346  0.00  0.00    +0.000 C 
BRANCH  24  25
ATOM     25  N   UNL     1      44.793   2.805  11.002  0.00  0.00    +0.000 NA
ATOM     26  H   UNL     1      44.845   2.144  11.780  0.00  0.00    +0.000 HD
BRANCH  25  27
ATOM     27  C   UNL     1      44.313   2.069   9.825  0.00  0.00    +0.000 C 
BRANCH  27  28
ATOM     28  C   UNL     1      45.284   2.170   8.668  0.00  0.00    +0.000 A 
ATOM     29  N   UNL     1      46.057   1.080   8.393  0.00  0.00    +0.000 NA
ATOM     30  C   UNL     1      46.933   1.188   7.365  0.00  0.00    +0.000 A 
ATOM     31  C   UNL     1      47.081   2.326   6.577  0.00  0.00    +0.000 A 
ATOM     32  C   UNL     1      48.070   2.389   5.458  0.00  0.00    +0.000 C 
ATOM     33  C   UNL     1      46.266   3.421   6.868  0.00  0.00    +0.000 A 
ATOM     34  C   UNL     1      45.363   3.341   7.920  0.00  0.00    +0.000 A 
ATOM     35  F   UNL     1      44.579   4.394   8.192  0.00  0.00    +0.000 F 
ENDBRANCH  27  28
ENDBRANCH  25  27
ENDBRANCH  24  25
ENDBRANCH   4  24
TORSDOF 8
ENDMDL
MODEL 2
REMARK VINA RESULT:    -7.875      2.037      2.135
REMARK INTER + INTRA:         -12.799
REMARK INTER:                 -11.454
REMARK INTRA:                  -1.344
REMARK UNBOUND:                -1.241
REMARK  Name = 
REMARK  11 active torsions:
REMARK  status: ('A' for Active; 'I' for Inactive)
REMARK    1  A    between atoms: C_1  and  O_2
REMARK    2  A    between atoms: O_2  and  C_3
REMARK    3  A    between atoms: C_5  and  C_6
REMARK    4  A    between atoms: C_11  and  C_12
REMARK    5  A    between atoms: N_14  and  C_15
REMARK    6  A    between atoms: C_15  and  C_16
REMARK    7  A    between atoms: C_19  and  C_20
REMARK    8  A    between atoms: C_20  and  N_21
REMARK    9  A    between atoms: N_21  and  C_22
REMARK   10  A    between atoms: C_22  and  C_23
REMARK   11  A    between atoms: C_26  and  C_27
REMARK                            x       y       z     vdW  Elec       q    Type
REMARK                         _______ _______ _______ _____ _____    ______ ____
ROOT
ATOM      1  C   UNL     1      46.578   6.852  13.121  0.00  0.00    +0.000 A 
ATOM      2  C   UNL     1      45.268   7.002  12.650  0.00  0.00    +0.000 A 
ATOM      3  C   UNL     1      44.440   5.887  12.487  0.00  0.00    +0.000 A 
ATOM      4  C   UNL     1      44.903   4.600  12.787  0.00  0.00    +0.000 A 
ATOM      5  C   UNL     1      46.210   4.456  13.270  0.00  0.00    +0.000 A 
ATOM      6  C   UNL     1      47.036   5.569  13.444  0.00  0.00    +0.000 A 
ENDROOT
BRANCH   1   7
ATOM      7  C   UNL     1      47.465   8.052  13.315  0.00  0.00    +0.000 C 
BRANCH   7  10
ATOM      8  C   UNL     1      49.312   8.388  14.887  0.00  0.00    +0.000 C 
ATOM      9  O   UNL     1      48.829   9.441  15.295  0.00  0.00    +0.000 OA
ATOM     10  N   UNL     1      48.743   7.675  13.864  0.00  0.00    +0.000 N 
ATOM     11  H   UNL     1      49.107   6.760  13.626  0.00  0.00    +0.000 HD
BRANCH   8  20
ATOM     12  C   UNL     1      50.008   5.555  16.608  0.00  0.00    +0.000 A 
ATOM     13  N   UNL     1      50.541   4.524  17.295  0.00  0.00    +0.000 NA
ATOM     14  C   UNL     1      51.856   4.544  17.567  0.00  0.00    +0.000 A 
ATOM     15  C   UNL     1      52.418   3.375  18.315  0.00  0.00    +0.000 C 
ATOM     16  N   UNL     1      52.712   5.509  17.220  0.00  0.00    +0.000 NA
ATOM     17  C   UNL     1      52.141   6.513  16.535  0.00  0.00    +0.000 A 
ATOM     18  S   UNL     1      53.081   7.835  16.025  0.00  0.00    +0.000 S 
ATOM     19  C   UNL     1      51.728   8.594  15.327  0.00  0.00    +0.000 A 
ATOM     20  C   UNL     1      50.560   7.853  15.441  0.00  0.00    +0.000 A 
ATOM     21  C   UNL     1      50.806   6.620  16.171  0.00  0.00    +0.000 A 
BRANCH  12  23
ATOM     22  C   UNL     1      47.992   4.387  16.843  0.00  0.00    +0.000 C 
ATOM     23  O   UNL     1      48.664   5.520  16.298  0.00  0.00    +0.000 OA
ENDBRANCH  12  23
ENDBRANCH   8  20
ENDBRANCH   7  10
ENDBRANCH   1   7
BRANCH   4  24
ATOM     24  C   UNL     1      44.008   3.395  12.611  0.00  0.00    +0.000 C 
BRANCH  24  25
ATOM     25  N   UNL     1      44.471   2.544  11.519  0.00  0.00    +0.000 NA
ATOM     26  H   UNL     1      44.097   1.600  11.636  0.00  0.00    +0.000 HD
BRANCH  25  27
ATOM     27  C   UNL     1      44.004   3.047  10.220  0.00  0.00    +0.000 C 
BRANCH  27  28
ATOM     28  C   UNL     1      45.033   2.825   9.132  0.00  0.00    +0.000 A 
ATOM     29  N   UNL     1      45.421   1.542   8.881  0.00  0.00    +0.000 NA
ATOM     30  C   UNL     1      46.354   1.357   7.915  0.00  0.00    +0.000 A 
ATOM     31  C   UNL     1      46.924   2.384   7.168  0.00  0.00    +0.000 A 
ATOM     32  C   UNL     1      47.955   2.120   6.119  0.00  0.00    +0.000 C 
ATOM     33  C   UNL     1      46.496   3.686   7.433  0.00  0.00    +0.000 A 
ATOM     34  C   UNL     1      45.546   3.906   8.422  0.00  0.00    +0.000 A 
ATOM     35  F   UNL     1      45.135   5.158   8.669  0.00  0.00    +0.000 F 
ENDBRANCH  27  28
ENDBRANCH  25  27
ENDBRANCH  24  25
ENDBRANCH   4  24
TORSDOF 8
ENDMDL
MODEL 3
REMARK VINA RESULT:    -7.599      3.107      3.678
REMARK INTER + INTRA:         -12.394
REMARK INTER:                 -11.149
REMARK INTRA:                  -1.245
REMARK UNBOUND:                -1.241
REMARK  Name = 
REMARK  11 active torsions:
REMARK  status: ('A' for Active; 'I' for Inactive)
REMARK    1  A    between atoms: C_1  and  O_2
REMARK    2  A    between atoms: O_2  and  C_3
REMARK    3  A    between atoms: C_5  and  C_6
REMARK    4  A    between atoms: C_11  and  C_12
REMARK    5  A    between atoms: N_14  and  C_15
REMARK    6  A    between atoms: C_15  and  C_16
REMARK    7  A    between atoms: C_19  and  C_20
REMARK    8  A    between atoms: C_20  and  N_21
REMARK    9  A    between atoms: N_21  and  C_22
REMARK   10  A    between atoms: C_22  and  C_23
REMARK   11  A    between atoms: C_26  and  C_27
REMARK                            x       y       z     vdW  Elec       q    Type
REMARK                         _______ _______ _______ _____ _____    ______ ____
ROOT
ATOM      1  C   UNL     1      47.911   6.426  14.630  0.00  0.00    +0.000 A 
ATOM      2  C   UNL     1      47.525   6.982  13.404  0.00  0.00    +0.000 A 
ATOM      3  C   UNL     1      46.703   6.266  12.527  0.00  0.00    +0.000 A 
ATOM      4  C   UNL     1      46.253   4.981  12.855  0.00  0.00    +0.000 A 
ATOM      5  C   UNL     1      46.631   4.435  14.088  0.00  0.00    +0.000 A 
ATOM      6  C   UNL     1      47.443   5.151  14.969  0.00  0.00    +0.000 A 
ENDROOT
BRANCH   1   7
ATOM      7  C   UNL     1      48.780   7.202  15.582  0.00  0.00    +0.000 C 
BRANCH   7  10
ATOM      8  C   UNL     1      50.485   6.522  17.203  0.00  0.00    +0.000 C 
ATOM      9  O   UNL     1      50.056   7.305  18.046  0.00  0.00    +0.000 OA
ATOM     10  N   UNL     1      49.961   6.456  15.938  0.00  0.00    +0.000 N 
ATOM     11  H   UNL     1      50.267   5.727  15.305  0.00  0.00    +0.000 HD
BRANCH   8  20
ATOM     12  C   UNL     1      50.768   3.149  17.347  0.00  0.00    +0.000 A 
ATOM     13  N   UNL     1      51.142   1.860  17.466  0.00  0.00    +0.000 NA
ATOM     14  C   UNL     1      52.419   1.587  17.779  0.00  0.00    +0.000 A 
ATOM     15  C   UNL     1      52.804   0.144  17.885  0.00  0.00    +0.000 C 
ATOM     16  N   UNL     1      53.382   2.488  17.993  0.00  0.00    +0.000 NA
ATOM     17  C   UNL     1      52.968   3.758  17.861  0.00  0.00    +0.000 A 
ATOM     18  S   UNL     1      54.059   5.038  18.113  0.00  0.00    +0.000 S 
ATOM     19  C   UNL     1      52.851   6.196  17.809  0.00  0.00    +0.000 A 
ATOM     20  C   UNL     1      51.622   5.640  17.486  0.00  0.00    +0.000 A 
ATOM     21  C   UNL     1      51.690   4.188  17.529  0.00  0.00    +0.000 A 
BRANCH  12  23
ATOM     22  C   UNL     1      48.551   3.320  18.080  0.00  0.00    +0.000 C 
ATOM     23  O   UNL     1      49.465   3.431  16.992  0.00  0.00    +0.000 OA
ENDBRANCH  12  23
ENDBRANCH   8  20
ENDBRANCH   7  10
ENDBRANCH   1   7
BRANCH   4  24
ATOM     24  C   UNL     1      45.364   4.208  11.908  0.00  0.00    +0.000 C 
BRANCH  24  25
ATOM     25  N   UNL     1      44.736   5.090  10.929  0.00  0.00    +0.000 NA
ATOM     26  H   UNL     1      45.448   5.678  10.490  0.00  0.00    +0.000 HD
BRANCH  25  27
ATOM     27  C   UNL     1      44.079   4.319   9.865  0.00  0.00    +0.000 C 
BRANCH  27  28
ATOM     28  C   UNL     1      45.086   3.717   8.908  0.00  0.00    +0.000 A 
ATOM     29  N   UNL     1      45.857   4.575   8.179  0.00  0.00    +0.000 NA
ATOM     30  C   UNL     1      46.744   4.024   7.315  0.00  0.00    +0.000 A 
ATOM     31  C   UNL     1      46.918   2.654   7.136  0.00  0.00    +0.000 A 
ATOM     32  C   UNL     1      47.908   2.105   6.160  0.00  0.00    +0.000 C 
ATOM     33  C   UNL     1      46.128   1.800   7.906  0.00  0.00    +0.000 A 
ATOM     34  C   UNL     1      45.206   2.336   8.796  0.00  0.00    +0.000 A 
ATOM     35  F   UNL     1      44.454   1.509   9.537  0.00  0.00    +0.000 F 
ENDBRANCH  27  28
ENDBRANCH  25  27
ENDBRANCH  24  25
ENDBRANCH   4  24
TORSDOF 8
ENDMDL
MODEL 4
REMARK VINA RESULT:    -7.337      2.564      3.300
REMARK INTER + INTRA:         -12.009
REMARK INTER:                 -11.113
REMARK INTRA:                  -0.896
REMARK UNBOUND:                -1.241
REMARK  Name = 
REMARK  11 active torsions:
REMARK  status: ('A' for Active; 'I' for Inactive)
REMARK    1  A    between atoms: C_1  and  O_2
REMARK    2  A    between atoms: O_2  and  C_3
REMARK    3  A    between atoms: C_5  and  C_6
REMARK    4  A    between atoms: C_11  and  C_12
REMARK    5  A    between atoms: N_14  and  C_15
REMARK    6  A    between atoms: C_15  and  C_16
REMARK    7  A    between atoms: C_19  and  C_20
REMARK    8  A    between atoms: C_20  and  N_21
REMARK    9  A    between atoms: N_21  and  C_22
REMARK   10  A    between atoms: C_22  and  C_23
REMARK   11  A    between atoms: C_26  and  C_27
REMARK                            x       y       z     vdW  Elec       q    Type
REMARK                         _______ _______ _______ _____ _____    ______ ____
ROOT
ATOM      1  C   UNL     1      46.636   3.996  13.953  0.00  0.00    +0.000 A 
ATOM      2  C   UNL     1      45.756   3.197  13.213  0.00  0.00    +0.000 A 
ATOM      3  C   UNL     1      44.824   3.780  12.348  0.00  0.00    +0.000 A 
ATOM      4  C   UNL     1      44.750   5.172  12.208  0.00  0.00    +0.000 A 
ATOM      5  C   UNL     1      45.641   5.966  12.940  0.00  0.00    +0.000 A 
ATOM      6  C   UNL     1      46.579   5.386  13.796  0.00  0.00    +0.000 A 
ENDROOT
BRANCH   1   7
ATOM      7  C   UNL     1      47.652   3.369  14.870  0.00  0.00    +0.000 C 
BRANCH   7  10
ATOM      8  C   UNL     1      47.389   3.994  17.222  0.00  0.00    +0.000 C 
ATOM      9  O   UNL     1      46.531   3.132  17.399  0.00  0.00    +0.000 OA
ATOM     10  N   UNL     1      47.943   4.227  15.992  0.00  0.00    +0.000 N 
ATOM     11  H   UNL     1      48.722   4.869  15.904  0.00  0.00    +0.000 HD
BRANCH   8  20
ATOM     12  C   UNL     1      50.422   4.466  18.655  0.00  0.00    +0.000 A 
ATOM     13  N   UNL     1      51.494   4.831  19.385  0.00  0.00    +0.000 NA
ATOM     14  C   UNL     1      51.331   5.741  20.358  0.00  0.00    +0.000 A 
ATOM     15  C   UNL     1      52.547   6.138  21.137  0.00  0.00    +0.000 C 
ATOM     16  N   UNL     1      50.181   6.335  20.689  0.00  0.00    +0.000 NA
ATOM     17  C   UNL     1      49.140   5.946  19.935  0.00  0.00    +0.000 A 
ATOM     18  S   UNL     1      47.593   6.590  20.227  0.00  0.00    +0.000 S 
ATOM     19  C   UNL     1      46.910   5.649  18.985  0.00  0.00    +0.000 A 
ATOM     20  C   UNL     1      47.837   4.861  18.316  0.00  0.00    +0.000 A 
ATOM     21  C   UNL     1      49.162   5.032  18.891  0.00  0.00    +0.000 A 
BRANCH  12  23
ATOM     22  C   UNL     1      51.830   2.850  17.712  0.00  0.00    +0.000 C 
ATOM     23  O   UNL     1      50.595   3.557  17.632  0.00  0.00    +0.000 OA
ENDBRANCH  12  23
ENDBRANCH   8  20
ENDBRANCH   7  10
ENDBRANCH   1   7
BRANCH   4  24
ATOM     24  C   UNL     1      43.744   5.802  11.273  0.00  0.00    +0.000 C 
BRANCH  24  25
ATOM     25  N   UNL     1      44.109   5.587   9.876  0.00  0.00    +0.000 NA
ATOM     26  H   UNL     1      45.111   5.748   9.754  0.00  0.00    +0.000 HD
BRANCH  25  27
ATOM     27  C   UNL     1      43.828   4.207   9.460  0.00  0.00    +0.000 C 
BRANCH  27  28
ATOM     28  C   UNL     1      44.977   3.615   8.671  0.00  0.00    +0.000 A 
ATOM     29  N   UNL     1      45.755   4.472   7.950  0.00  0.00    +0.000 NA
ATOM     30  C   UNL     1      46.771   3.929   7.235  0.00  0.00    +0.000 A 
ATOM     31  C   UNL     1      47.069   2.570   7.203  0.00  0.00    +0.000 A 
ATOM     32  C   UNL     1      48.200   2.028   6.390  0.00  0.00    +0.000 C 
ATOM     33  C   UNL     1      46.268   1.718   7.964  0.00  0.00    +0.000 A 
ATOM     34  C   UNL     1      45.215   2.245   8.701  0.00  0.00    +0.000 A 
ATOM     35  F   UNL     1      44.452   1.422   9.435  0.00  0.00    +0.000 F 
ENDBRANCH  27  28
ENDBRANCH  25  27
ENDBRANCH  24  25
ENDBRANCH   4  24
TORSDOF 8
ENDMDL
MODEL 5
REMARK VINA RESULT:    -7.261      2.256      2.644
REMARK INTER + INTRA:         -11.898
REMARK INTER:                 -10.309
REMARK INTRA:                  -1.589
REMARK UNBOUND:                -1.241
REMARK  Name = 
REMARK  11 active torsions:
REMARK  status: ('A' for Active; 'I' for Inactive)
REMARK    1  A    between atoms: C_1  and  O_2
REMARK    2  A    between atoms: O_2  and  C_3
REMARK    3  A    between atoms: C_5  and  C_6
REMARK    4  A    between atoms: C_11  and  C_12
REMARK    5  A    between atoms: N_14  and  C_15
REMARK    6  A    between atoms: C_15  and  C_16
REMARK    7  A    between atoms: C_19  and  C_20
REMARK    8  A    between atoms: C_20  and  N_21
REMARK    9  A    between atoms: N_21  and  C_22
REMARK   10  A    between atoms: C_22  and  C_23
REMARK   11  A    between atoms: C_26  and  C_27
REMARK                            x       y       z     vdW  Elec       q    Type
REMARK                         _______ _______ _______ _____ _____    ______ ____
ROOT
ATOM      1  C   UNL     1      48.208   8.783  12.306  0.00  0.00    +0.000 A 
ATOM      2  C   UNL     1      46.956   9.232  12.745  0.00  0.00    +0.000 A 
ATOM      3  C   UNL     1      45.821   8.429  12.597  0.00  0.00    +0.000 A 
ATOM      4  C   UNL     1      45.911   7.163  12.004  0.00  0.00    +0.000 A 
ATOM      5  C   UNL     1      47.167   6.713  11.578  0.00  0.00    +0.000 A 
ATOM      6  C   UNL     1      48.304   7.509  11.734  0.00  0.00    +0.000 A 
ENDROOT
BRANCH   1   7
ATOM      7  C   UNL     1      49.433   9.639  12.482  0.00  0.00    +0.000 C 
BRANCH   7  10
ATOM      8  C   UNL     1      50.002   9.824  14.856  0.00  0.00    +0.000 C 
ATOM      9  O   UNL     1      49.274  10.804  14.997  0.00  0.00    +0.000 OA
ATOM     10  N   UNL     1      50.194   9.231  13.636  0.00  0.00    +0.000 N 
ATOM     11  H   UNL     1      50.715   8.364  13.575  0.00  0.00    +0.000 HD
BRANCH   8  20
ATOM     12  C   UNL     1      50.322   6.658  16.016  0.00  0.00    +0.000 A 
ATOM     13  N   UNL     1      50.609   5.513  16.667  0.00  0.00    +0.000 NA
ATOM     14  C   UNL     1      51.412   5.569  17.742  0.00  0.00    +0.000 A 
ATOM     15  C   UNL     1      51.725   4.276  18.430  0.00  0.00    +0.000 C 
ATOM     16  N   UNL     1      51.968   6.673  18.247  0.00  0.00    +0.000 NA
ATOM     17  C   UNL     1      51.659   7.789  17.566  0.00  0.00    +0.000 A 
ATOM     18  S   UNL     1      52.269   9.292  18.078  0.00  0.00    +0.000 S 
ATOM     19  C   UNL     1      51.463  10.106  16.821  0.00  0.00    +0.000 A 
ATOM     20  C   UNL     1      50.750   9.259  15.983  0.00  0.00    +0.000 A 
ATOM     21  C   UNL     1      50.859   7.881  16.436  0.00  0.00    +0.000 A 
BRANCH  12  23
ATOM     22  C   UNL     1      48.206   6.130  15.162  0.00  0.00    +0.000 C 
ATOM     23  O   UNL     1      49.525   6.598  14.891  0.00  0.00    +0.000 OA
ENDBRANCH  12  23
ENDBRANCH   8  20
ENDBRANCH   7  10
ENDBRANCH   1   7
BRANCH   4  24
ATOM     24  C   UNL     1      44.685   6.295  11.844  0.00  0.00    +0.000 C 
BRANCH  24  25
ATOM     25  N   UNL     1      44.423   5.999  10.439  0.00  0.00    +0.000 NA
ATOM     26  H   UNL     1      45.268   6.167   9.889  0.00  0.00    +0.000 HD
BRANCH  25  27
ATOM     27  C   UNL     1      44.046   4.592  10.254  0.00  0.00    +0.000 C 
BRANCH  27  28
ATOM     28  C   UNL     1      44.953   3.895   9.262  0.00  0.00    +0.000 A 
ATOM     29  N   UNL     1      45.708   4.678   8.438  0.00  0.00    +0.000 NA
ATOM     30  C   UNL     1      46.504   4.043   7.543  0.00  0.00    +0.000 A 
ATOM     31  C   UNL     1      46.604   2.660   7.425  0.00  0.00    +0.000 A 
ATOM     32  C   UNL     1      47.496   2.016   6.413  0.00  0.00    +0.000 C 
ATOM     33  C   UNL     1      45.834   1.883   8.291  0.00  0.00    +0.000 A 
ATOM     34  C   UNL     1      45.004   2.506   9.214  0.00  0.00    +0.000 A 
ATOM     35  F   UNL     1      44.271   1.754  10.047  0.00  0.00    +0.000 F 
ENDBRANCH  27  28
ENDBRANCH  25  27
ENDBRANCH  24  25
ENDBRANCH   4  24
TORSDOF 8
ENDMDL
MODEL 6
REMARK VINA RESULT:    -6.938      5.584      9.574
REMARK INTER + INTRA:         -11.423
REMARK INTER:                 -10.138
REMARK INTRA:                  -1.285
REMARK UNBOUND:                -1.241
REMARK  Name = 
REMARK  11 active torsions:
REMARK  status: ('A' for Active; 'I' for Inactive)
REMARK    1  A    between atoms: C_1  and  O_2
REMARK    2  A    between atoms: O_2  and  C_3
REMARK    3  A    between atoms: C_5  and  C_6
REMARK    4  A    between atoms: C_11  and  C_12
REMARK    5  A    between atoms: N_14  and  C_15
REMARK    6  A    between atoms: C_15  and  C_16
REMARK    7  A    between atoms: C_19  and  C_20
REMARK    8  A    between atoms: C_20  and  N_21
REMARK    9  A    between atoms: N_21  and  C_22
REMARK   10  A    between atoms: C_22  and  C_23
REMARK   11  A    between atoms: C_26  and  C_27
REMARK                            x       y       z     vdW  Elec       q    Type
REMARK                         _______ _______ _______ _____ _____    ______ ____
ROOT
ATOM      1  C   UNL     1      48.641   3.374  17.117  0.00  0.00    +0.000 A 
ATOM      2  C   UNL     1      49.372   2.195  16.924  0.00  0.00    +0.000 A 
ATOM      3  C   UNL     1      50.736   2.147  17.229  0.00  0.00    +0.000 A 
ATOM      4  C   UNL     1      51.399   3.275  17.728  0.00  0.00    +0.000 A 
ATOM      5  C   UNL     1      50.662   4.448  17.932  0.00  0.00    +0.000 A 
ATOM      6  C   UNL     1      49.297   4.495  17.638  0.00  0.00    +0.000 A 
ENDROOT
BRANCH   1   7
ATOM      7  C   UNL     1      47.169   3.422  16.807  0.00  0.00    +0.000 C 
BRANCH   7  10
ATOM      8  C   UNL     1      46.853   4.174  14.499  0.00  0.00    +0.000 C 
ATOM      9  O   UNL     1      47.208   3.087  14.051  0.00  0.00    +0.000 OA
ATOM     10  N   UNL     1      46.871   4.449  15.841  0.00  0.00    +0.000 N 
ATOM     11  H   UNL     1      46.473   5.316  16.182  0.00  0.00    +0.000 HD
BRANCH   8  20
ATOM     12  C   UNL     1      48.312   7.114  13.660  0.00  0.00    +0.000 A 
ATOM     13  N   UNL     1      48.668   8.319  13.174  0.00  0.00    +0.000 NA
ATOM     14  C   UNL     1      47.833   8.944  12.327  0.00  0.00    +0.000 A 
ATOM     15  C   UNL     1      48.268  10.273  11.793  0.00  0.00    +0.000 C 
ATOM     16  N   UNL     1      46.652   8.480  11.909  0.00  0.00    +0.000 NA
ATOM     17  C   UNL     1      46.339   7.276  12.413  0.00  0.00    +0.000 A 
ATOM     18  S   UNL     1      44.863   6.539  11.999  0.00  0.00    +0.000 S 
ATOM     19  C   UNL     1      45.198   5.194  12.984  0.00  0.00    +0.000 A 
ATOM     20  C   UNL     1      46.433   5.265  13.614  0.00  0.00    +0.000 A 
ATOM     21  C   UNL     1      47.105   6.511  13.282  0.00  0.00    +0.000 A 
BRANCH  12  23
ATOM     22  C   UNL     1      49.899   7.334  15.368  0.00  0.00    +0.000 C 
ATOM     23  O   UNL     1      49.184   6.455  14.503  0.00  0.00    +0.000 OA
ENDBRANCH  12  23
ENDBRANCH   8  20
ENDBRANCH   7  10
ENDBRANCH   1   7
BRANCH   4  24
ATOM     24  C   UNL     1      52.873   3.223  18.058  0.00  0.00    +0.000 C 
BRANCH  24  25
ATOM     25  N   UNL     1      53.171   2.140  18.989  0.00  0.00    +0.000 NA
ATOM     26  H   UNL     1      52.568   1.338  18.790  0.00  0.00    +0.000 HD
BRANCH  25  27
ATOM     27  C   UNL     1      54.563   1.690  18.853  0.00  0.00    +0.000 C 
BRANCH  27  28
ATOM     28  C   UNL     1      54.643   0.252  18.387  0.00  0.00    +0.000 A 
ATOM     29  N   UNL     1      54.478  -0.726  19.323  0.00  0.00    +0.000 NA
ATOM     30  C   UNL     1      54.568  -2.009  18.896  0.00  0.00    +0.000 A 
ATOM     31  C   UNL     1      54.805  -2.382  17.576  0.00  0.00    +0.000 A 
ATOM     32  C   UNL     1      54.901  -3.816  17.165  0.00  0.00    +0.000 C 
ATOM     33  C   UNL     1      54.952  -1.362  16.636  0.00  0.00    +0.000 A 
ATOM     34  C   UNL     1      54.872  -0.037  17.045  0.00  0.00    +0.000 A 
ATOM     35  F   UNL     1      55.010   0.939  16.137  0.00  0.00    +0.000 F 
ENDBRANCH  27  28
ENDBRANCH  25  27
ENDBRANCH  24  25
ENDBRANCH   4  24
TORSDOF 8
ENDMDL
MODEL 7
REMARK VINA RESULT:    -6.703      4.047      5.163
REMARK INTER + INTRA:         -11.078
REMARK INTER:                  -9.810
REMARK INTRA:                  -1.268
REMARK UNBOUND:                -1.241
REMARK  Name = 
REMARK  11 active torsions:
REMARK  status: ('A' for Active; 'I' for Inactive)
REMARK    1  A    between atoms: C_1  and  O_2
REMARK    2  A    between atoms: O_2  and  C_3
REMARK    3  A    between atoms: C_5  and  C_6
REMARK    4  A    between atoms: C_11  and  C_12
REMARK    5  A    between atoms: N_14  and  C_15
REMARK    6  A    between atoms: C_15  and  C_16
REMARK    7  A    between atoms: C_19  and  C_20
REMARK    8  A    between atoms: C_20  and  N_21
REMARK    9  A    between atoms: N_21  and  C_22
REMARK   10  A    between atoms: C_22  and  C_23
REMARK   11  A    between atoms: C_26  and  C_27
REMARK                            x       y       z     vdW  Elec       q    Type
REMARK                         _______ _______ _______ _____ _____    ______ ____
ROOT
ATOM      1  C   UNL     1      45.761   9.050  12.190  0.00  0.00    +0.000 A 
ATOM      2  C   UNL     1      44.700   8.792  11.313  0.00  0.00    +0.000 A 
ATOM      3  C   UNL     1      44.086   7.536  11.290  0.00  0.00    +0.000 A 
ATOM      4  C   UNL     1      44.520   6.511  12.141  0.00  0.00    +0.000 A 
ATOM      5  C   UNL     1      45.571   6.777  13.026  0.00  0.00    +0.000 A 
ATOM      6  C   UNL     1      46.180   8.034  13.057  0.00  0.00    +0.000 A 
ENDROOT
BRANCH   1   7
ATOM      7  C   UNL     1      46.411  10.407  12.228  0.00  0.00    +0.000 C 
BRANCH   7  10
ATOM      8  C   UNL     1      48.849  10.556  12.378  0.00  0.00    +0.000 C 
ATOM      9  O   UNL     1      48.799  10.874  13.564  0.00  0.00    +0.000 OA
ATOM     10  N   UNL     1      47.720  10.377  11.625  0.00  0.00    +0.000 N 
ATOM     11  H   UNL     1      47.796  10.012  10.683  0.00  0.00    +0.000 HD
BRANCH   8  20
ATOM     12  C   UNL     1      50.484   7.829  11.211  0.00  0.00    +0.000 A 
ATOM     13  N   UNL     1      51.323   6.924  10.669  0.00  0.00    +0.000 NA
ATOM     14  C   UNL     1      52.471   7.358  10.123  0.00  0.00    +0.000 A 
ATOM     15  C   UNL     1      53.372   6.329   9.514  0.00  0.00    +0.000 C 
ATOM     16  N   UNL     1      52.877   8.630  10.064  0.00  0.00    +0.000 NA
ATOM     17  C   UNL     1      52.010   9.497  10.611  0.00  0.00    +0.000 A 
ATOM     18  S   UNL     1      52.372  11.158  10.637  0.00  0.00    +0.000 S 
ATOM     19  C   UNL     1      50.920  11.515  11.447  0.00  0.00    +0.000 A 
ATOM     20  C   UNL     1      50.131  10.398  11.683  0.00  0.00    +0.000 A 
ATOM     21  C   UNL     1      50.787   9.196  11.194  0.00  0.00    +0.000 A 
BRANCH  12  23
ATOM     22  C   UNL     1      49.381   7.041  13.121  0.00  0.00    +0.000 C 
ATOM     23  O   UNL     1      49.288   7.388  11.742  0.00  0.00    +0.000 OA
ENDBRANCH  12  23
ENDBRANCH   8  20
ENDBRANCH   7  10
ENDBRANCH   1   7
BRANCH   4  24
ATOM     24  C   UNL     1      43.856   5.154  12.117  0.00  0.00    +0.000 C 
BRANCH  24  25
ATOM     25  N   UNL     1      44.583   4.221  11.263  0.00  0.00    +0.000 NA
ATOM     26  H   UNL     1      44.420   3.263  11.582  0.00  0.00    +0.000 HD
BRANCH  25  27
ATOM     27  C   UNL     1      44.124   4.308   9.871  0.00  0.00    +0.000 C 
BRANCH  27  28
ATOM     28  C   UNL     1      45.136   3.719   8.910  0.00  0.00    +0.000 A 
ATOM     29  N   UNL     1      45.901   4.588   8.187  0.00  0.00    +0.000 NA
ATOM     30  C   UNL     1      46.792   4.049   7.320  0.00  0.00    +0.000 A 
ATOM     31  C   UNL     1      46.978   2.683   7.134  0.00  0.00    +0.000 A 
ATOM     32  C   UNL     1      47.974   2.147   6.156  0.00  0.00    +0.000 C 
ATOM     33  C   UNL     1      46.196   1.817   7.899  0.00  0.00    +0.000 A 
ATOM     34  C   UNL     1      45.269   2.340   8.791  0.00  0.00    +0.000 A 
ATOM     35  F   UNL     1      44.524   1.503   9.527  0.00  0.00    +0.000 F 
ENDBRANCH  27  28
ENDBRANCH  25  27
ENDBRANCH  24  25
ENDBRANCH   4  24
TORSDOF 8
ENDMDL
MODEL 8
REMARK VINA RESULT:    -6.193      4.928      9.548
REMARK INTER + INTRA:         -10.330
REMARK INTER:                  -8.322
REMARK INTRA:                  -2.008
REMARK UNBOUND:                -1.241
REMARK  Name = 
REMARK  11 active torsions:
REMARK  status: ('A' for Active; 'I' for Inactive)
REMARK    1  A    between atoms: C_1  and  O_2
REMARK    2  A    between atoms: O_2  and  C_3
REMARK    3  A    between atoms: C_5  and  C_6
REMARK    4  A    between atoms: C_11  and  C_12
REMARK    5  A    between atoms: N_14  and  C_15
REMARK    6  A    between atoms: C_15  and  C_16
REMARK    7  A    between atoms: C_19  and  C_20
REMARK    8  A    between atoms: C_20  and  N_21
REMARK    9  A    between atoms: N_21  and  C_22
REMARK   10  A    between atoms: C_22  and  C_23
REMARK   11  A    between atoms: C_26  and  C_27
REMARK                            x       y       z     vdW  Elec       q    Type
REMARK                         _______ _______ _______ _____ _____    ______ ____
ROOT
ATOM      1  C   UNL     1      48.902   3.313  17.187  0.00  0.00    +0.000 A 
ATOM      2  C   UNL     1      49.665   2.163  16.951  0.00  0.00    +0.000 A 
ATOM      3  C   UNL     1      51.018   2.124  17.301  0.00  0.00    +0.000 A 
ATOM      4  C   UNL     1      51.639   3.234  17.889  0.00  0.00    +0.000 A 
ATOM      5  C   UNL     1      50.868   4.377  18.136  0.00  0.00    +0.000 A 
ATOM      6  C   UNL     1      49.514   4.415  17.796  0.00  0.00    +0.000 A 
ENDROOT
BRANCH   1   7
ATOM      7  C   UNL     1      47.441   3.350  16.828  0.00  0.00    +0.000 C 
BRANCH   7  10
ATOM      8  C   UNL     1      47.019   4.183  14.565  0.00  0.00    +0.000 C 
ATOM      9  O   UNL     1      47.255   3.084  14.070  0.00  0.00    +0.000 OA
ATOM     10  N   UNL     1      47.155   4.422  15.908  0.00  0.00    +0.000 N 
ATOM     11  H   UNL     1      46.851   5.307  16.295  0.00  0.00    +0.000 HD
BRANCH   8  20
ATOM     12  C   UNL     1      48.470   7.189  13.988  0.00  0.00    +0.000 A 
ATOM     13  N   UNL     1      48.829   8.428  13.599  0.00  0.00    +0.000 NA
ATOM     14  C   UNL     1      48.024   9.098  12.758  0.00  0.00    +0.000 A 
ATOM     15  C   UNL     1      48.463  10.465  12.333  0.00  0.00    +0.000 C 
ATOM     16  N   UNL     1      46.869   8.649  12.257  0.00  0.00    +0.000 NA
ATOM     17  C   UNL     1      46.552   7.411  12.667  0.00  0.00    +0.000 A 
ATOM     18  S   UNL     1      45.106   6.686  12.139  0.00  0.00    +0.000 S 
ATOM     19  C   UNL     1      45.417   5.282  13.048  0.00  0.00    +0.000 A 
ATOM     20  C   UNL     1      46.622   5.326  13.736  0.00  0.00    +0.000 A 
ATOM     21  C   UNL     1      47.290   6.599  13.517  0.00  0.00    +0.000 A 
BRANCH  12  23
ATOM     22  C   UNL     1      50.413   7.263  15.292  0.00  0.00    +0.000 C 
ATOM     23  O   UNL     1      49.313   6.486  14.824  0.00  0.00    +0.000 OA
ENDBRANCH  12  23
ENDBRANCH   8  20
ENDBRANCH   7  10
ENDBRANCH   1   7
BRANCH   4  24
ATOM     24  C   UNL     1      53.101   3.192  18.268  0.00  0.00    +0.000 C 
BRANCH  24  25
ATOM     25  N   UNL     1      53.897   4.065  17.411  0.00  0.00    +0.000 NA
ATOM     26  H   UNL     1      53.286   4.543  16.744  0.00  0.00    +0.000 HD
BRANCH  25  27
ATOM     27  C   UNL     1      54.585   5.097  18.198  0.00  0.00    +0.000 C 
BRANCH  27  28
ATOM     28  C   UNL     1      53.977   6.466  17.978  0.00  0.00    +0.000 A 
ATOM     29  N   UNL     1      54.304   7.127  16.830  0.00  0.00    +0.000 NA
ATOM     30  C   UNL     1      53.766   8.358  16.652  0.00  0.00    +0.000 A 
ATOM     31  C   UNL     1      52.904   8.975  17.554  0.00  0.00    +0.000 A 
ATOM     32  C   UNL     1      52.346  10.340  17.306  0.00  0.00    +0.000 C 
ATOM     33  C   UNL     1      52.571   8.270  18.711  0.00  0.00    +0.000 A 
ATOM     34  C   UNL     1      53.113   7.009  18.924  0.00  0.00    +0.000 A 
ATOM     35  F   UNL     1      52.786   6.335  20.036  0.00  0.00    +0.000 F 
ENDBRANCH  27  28
ENDBRANCH  25  27
ENDBRANCH  24  25
ENDBRANCH   4  24
TORSDOF 8
ENDMDL
MODEL 9
REMARK VINA RESULT:    -5.729      2.981      4.596
REMARK INTER + INTRA:          -9.649
REMARK INTER:                  -7.864
REMARK INTRA:                  -1.785
REMARK UNBOUND:                -1.241
REMARK  Name = 
REMARK  11 active torsions:
REMARK  status: ('A' for Active; 'I' for Inactive)
REMARK    1  A    between atoms: C_1  and  O_2
REMARK    2  A    between atoms: O_2  and  C_3
REMARK    3  A    between atoms: C_5  and  C_6
REMARK    4  A    between atoms: C_11  and  C_12
REMARK    5  A    between atoms: N_14  and  C_15
REMARK    6  A    between atoms: C_15  and  C_16
REMARK    7  A    between atoms: C_19  and  C_20
REMARK    8  A    between atoms: C_20  and  N_21
REMARK    9  A    between atoms: N_21  and  C_22
REMARK   10  A    between atoms: C_22  and  C_23
REMARK   11  A    between atoms: C_26  and  C_27
REMARK                            x       y       z     vdW  Elec       q    Type
REMARK                         _______ _______ _______ _____ _____    ______ ____
ROOT
ATOM      1  C   UNL     1      49.968   8.960  13.263  0.00  0.00    +0.000 A 
ATOM      2  C   UNL     1      49.106   9.673  14.104  0.00  0.00    +0.000 A 
ATOM      3  C   UNL     1      47.825  10.032  13.670  0.00  0.00    +0.000 A 
ATOM      4  C   UNL     1      47.381   9.688  12.387  0.00  0.00    +0.000 A 
ATOM      5  C   UNL     1      48.241   8.962  11.554  0.00  0.00    +0.000 A 
ATOM      6  C   UNL     1      49.517   8.595  11.989  0.00  0.00    +0.000 A 
ENDROOT
BRANCH   1   7
ATOM      7  C   UNL     1      51.339   8.557  13.735  0.00  0.00    +0.000 C 
BRANCH   7  10
ATOM      8  C   UNL     1      51.416   7.491  15.937  0.00  0.00    +0.000 C 
ATOM      9  O   UNL     1      51.718   8.548  16.486  0.00  0.00    +0.000 OA
ATOM     10  N   UNL     1      51.280   7.389  14.578  0.00  0.00    +0.000 N 
ATOM     11  H   UNL     1      50.928   6.531  14.170  0.00  0.00    +0.000 HD
BRANCH   8  20
ATOM     12  C   UNL     1      48.735   5.469  16.388  0.00  0.00    +0.000 A 
ATOM     13  N   UNL     1      47.839   4.522  16.726  0.00  0.00    +0.000 NA
ATOM     14  C   UNL     1      48.229   3.529  17.541  0.00  0.00    +0.000 A 
ATOM     15  C   UNL     1      47.213   2.482  17.881  0.00  0.00    +0.000 C 
ATOM     16  N   UNL     1      49.448   3.383  18.069  0.00  0.00    +0.000 NA
ATOM     17  C   UNL     1      50.309   4.346  17.704  0.00  0.00    +0.000 A 
ATOM     18  S   UNL     1      51.904   4.327  18.295  0.00  0.00    +0.000 S 
ATOM     19  C   UNL     1      52.285   5.760  17.462  0.00  0.00    +0.000 A 
ATOM     20  C   UNL     1      51.231   6.256  16.707  0.00  0.00    +0.000 A 
ATOM     21  C   UNL     1      50.053   5.419  16.861  0.00  0.00    +0.000 A 
BRANCH  12  23
ATOM     22  C   UNL     1      47.860   5.978  14.277  0.00  0.00    +0.000 C 
ATOM     23  O   UNL     1      48.346   6.472  15.523  0.00  0.00    +0.000 OA
ENDBRANCH  12  23
ENDBRANCH   8  20
ENDBRANCH   7  10
ENDBRANCH   1   7
BRANCH   4  24
ATOM     24  C   UNL     1      45.997  10.074  11.919  0.00  0.00    +0.000 C 
BRANCH  24  25
ATOM     25  N   UNL     1      45.278   8.923  11.382  0.00  0.00    +0.000 NA
ATOM     26  H   UNL     1      45.758   8.575  10.549  0.00  0.00    +0.000 HD
BRANCH  25  27
ATOM     27  C   UNL     1      45.230   7.825  12.357  0.00  0.00    +0.000 C 
BRANCH  27  28
ATOM     28  C   UNL     1      45.040   6.484  11.680  0.00  0.00    +0.000 A 
ATOM     29  N   UNL     1      45.725   6.258  10.522  0.00  0.00    +0.000 NA
ATOM     30  C   UNL     1      45.536   5.060   9.917  0.00  0.00    +0.000 A 
ATOM     31  C   UNL     1      44.704   4.057  10.407  0.00  0.00    +0.000 A 
ATOM     32  C   UNL     1      44.529   2.757   9.691  0.00  0.00    +0.000 C 
ATOM     33  C   UNL     1      44.029   4.308  11.602  0.00  0.00    +0.000 A 
ATOM     34  C   UNL     1      44.198   5.529  12.240  0.00  0.00    +0.000 A 
ATOM     35  F   UNL     1      43.551   5.762  13.391  0.00  0.00    +0.000 F 
ENDBRANCH  27  28
ENDBRANCH  25  27
ENDBRANCH  24  25
ENDBRANCH   4  24
TORSDOF 8
ENDMDL
