MODEL 1
REMARK VINA RESULT:    -9.090      0.000      0.000
REMARK INTER + INTRA:         -13.948
REMARK INTER:                 -12.810
REMARK INTRA:                  -1.138
REMARK UNBOUND:                -1.138
REMARK  Name = 
REMARK  8 active torsions:
REMARK  status: ('A' for Active; 'I' for Inactive)
REMARK    1  A    between atoms: C_1  and  C_2
REMARK    2  A    between atoms: C_2  and  N_3
REMARK    3  A    between atoms: C_2  and  C_26
REMARK    4  A    between atoms: N_3  and  C_4
REMARK    5  A    between atoms: C_4  and  C_5
REMARK    6  A    between atoms: C_10  and  C_11
REMARK    7  A    between atoms: C_11  and  N_12
REMARK    8  A    between atoms: C_13  and  C_15
REMARK                            x       y       z     vdW  Elec       q    Type
REMARK                         _______ _______ _______ _____ _____    ______ ____
ROOT
ATOM      1  C   UNL     1      44.847   5.392  11.245  0.00  0.00    +0.000 A 
ATOM      2  C   UNL     1      45.820   6.352  10.944  0.00  0.00    +0.000 A 
ATOM      3  C   UNL     1      46.876   6.568  11.823  0.00  0.00    +0.000 A 
ATOM      4  F   UNL     1      47.813   7.475  11.516  0.00  0.00    +0.000 F 
ATOM      5  C   UNL     1      46.995   5.838  13.000  0.00  0.00    +0.000 A 
ATOM      6  C   UNL     1      46.043   4.860  13.312  0.00  0.00    +0.000 A 
ATOM      7  C   UNL     1      44.961   4.664  12.442  0.00  0.00    +0.000 A 
ENDROOT
BRANCH   1   8
ATOM      8  C   UNL     1      43.757   5.051  10.258  0.00  0.00    +0.000 C 
BRANCH   8   9
ATOM      9  N   UNL     1      44.266   4.399   9.052  0.00  0.00    +0.000 NA
ATOM     10  H   UNL     1      44.883   5.047   8.563  0.00  0.00    +0.000 HD
BRANCH   9  12
ATOM     11  C   UNL     1      44.142   2.005   9.820  0.00  0.00    +0.000 C 
ATOM     12  C   UNL     1      45.025   3.173   9.351  0.00  0.00    +0.000 C 
BRANCH  12  13
ATOM     13  C   UNL     1      45.839   2.726   8.136  0.00  0.00    +0.000 A 
ATOM     14  C   UNL     1      46.092   3.624   7.083  0.00  0.00    +0.000 A 
ATOM     15  C   UNL     1      46.934   3.265   6.026  0.00  0.00    +0.000 A 
ATOM     16  C   UNL     1      47.523   2.005   6.002  0.00  0.00    +0.000 A 
ATOM     17  C   UNL     1      47.252   1.089   7.012  0.00  0.00    +0.000 A 
ATOM     18  C   UNL     1      46.410   1.448   8.070  0.00  0.00    +0.000 A 
ENDBRANCH  12  13
ENDBRANCH   9  12
ENDBRANCH   8   9
ENDBRANCH   1   8
BRANCH   6  19
ATOM     19  C   UNL     1      46.174   4.025  14.555  0.00  0.00    +0.000 C 
BRANCH  19  20
ATOM     20  N   UNL     1      47.228   4.506  15.409  0.00  0.00    +0.000 N 
ATOM     21  C   UNL     1      47.385   4.056  16.693  0.00  0.00    +0.000 C 
ATOM     22  O   UNL     1      46.640   3.217  17.191  0.00  0.00    +0.000 OA
ATOM     23  H   UNL     1      47.741   5.323  15.095  0.00  0.00    +0.000 HD
BRANCH  21  24
ATOM     24  C   UNL     1      48.547   4.572  17.429  0.00  0.00    +0.000 A 
ATOM     25  C   UNL     1      48.498   5.853  17.962  0.00  0.00    +0.000 A 
ATOM     26  S   UNL     1      49.918   6.305  18.789  0.00  0.00    +0.000 S 
ATOM     27  C   UNL     1      50.663   4.818  18.429  0.00  0.00    +0.000 A 
ATOM     28  N   UNL     1      51.942   4.568  18.819  0.00  0.00    +0.000 NA
ATOM     29  C   UNL     1      52.396   3.419  18.445  0.00  0.00    +0.000 A 
ATOM     30  N   UNL     1      51.682   2.488  17.737  0.00  0.00    +0.000 N 
ATOM     31  C   UNL     1      50.362   2.666  17.391  0.00  0.00    +0.000 A 
ATOM     32  O   UNL     1      49.709   1.761  16.883  0.00  0.00    +0.000 OA
ATOM     33  C   UNL     1      49.825   3.971  17.727  0.00  0.00    +0.000 A 
ATOM     34  H   UNL     1      52.085   1.592  17.509  0.00  0.00    +0.000 HD
ENDBRANCH  21  24
ENDBRANCH  19  20
ENDBRANCH   6  19
TORSDOF 7
ENDMDL
MODEL 2
REMARK VINA RESULT:    -7.975      3.834      9.406
REMARK INTER + INTRA:         -12.376
REMARK INTER:                 -10.763
REMARK INTRA:                  -1.613
REMARK UNBOUND:                -1.138
REMARK  Name = 
REMARK  8 active torsions:
REMARK  status: ('A' for Active; 'I' for Inactive)
REMARK    1  A    between atoms: C_1  and  C_2
REMARK    2  A    between atoms: C_2  and  N_3
REMARK    3  A    between atoms: C_2  and  C_26
REMARK    4  A    between atoms: N_3  and  C_4
REMARK    5  A    between atoms: C_4  and  C_5
REMARK    6  A    between atoms: C_10  and  C_11
REMARK    7  A    between atoms: C_11  and  N_12
REMARK    8  A    between atoms: C_13  and  C_15
REMARK                            x       y       z     vdW  Elec       q    Type
REMARK                         _______ _______ _______ _____ _____    ______ ____
ROOT
ATOM      1  C   UNL     1      49.371   5.050  18.992  0.00  0.00    +0.000 A 
ATOM      2  C   UNL     1      48.602   3.885  18.910  0.00  0.00    +0.000 A 
ATOM      3  C   UNL     1      47.864   3.622  17.760  0.00  0.00    +0.000 A 
ATOM      4  F   UNL     1      47.145   2.494  17.682  0.00  0.00    +0.000 F 
ATOM      5  C   UNL     1      47.883   4.493  16.676  0.00  0.00    +0.000 A 
ATOM      6  C   UNL     1      48.661   5.655  16.731  0.00  0.00    +0.000 A 
ATOM      7  C   UNL     1      49.380   5.937  17.902  0.00  0.00    +0.000 A 
ENDROOT
BRANCH   1   8
ATOM      8  C   UNL     1      50.274   5.306  20.175  0.00  0.00    +0.000 C 
BRANCH   8   9
ATOM      9  N   UNL     1      51.417   4.394  20.225  0.00  0.00    +0.000 NA
ATOM     10  H   UNL     1      51.071   3.436  20.276  0.00  0.00    +0.000 HD
BRANCH   9  12
ATOM     11  C   UNL     1      53.581   5.292  19.306  0.00  0.00    +0.000 C 
ATOM     12  C   UNL     1      52.284   4.510  19.041  0.00  0.00    +0.000 C 
BRANCH  12  13
ATOM     13  C   UNL     1      52.639   3.130  18.487  0.00  0.00    +0.000 A 
ATOM     14  C   UNL     1      53.884   2.546  18.784  0.00  0.00    +0.000 A 
ATOM     15  C   UNL     1      54.172   1.237  18.384  0.00  0.00    +0.000 A 
ATOM     16  C   UNL     1      53.228   0.502  17.675  0.00  0.00    +0.000 A 
ATOM     17  C   UNL     1      52.009   1.076  17.336  0.00  0.00    +0.000 A 
ATOM     18  C   UNL     1      51.719   2.385  17.736  0.00  0.00    +0.000 A 
ENDBRANCH  12  13
ENDBRANCH   9  12
ENDBRANCH   8   9
ENDBRANCH   1   8
BRANCH   6  19
ATOM     19  C   UNL     1      48.735   6.590  15.556  0.00  0.00    +0.000 C 
BRANCH  19  20
ATOM     20  N   UNL     1      47.561   6.498  14.729  0.00  0.00    +0.000 N 
ATOM     21  C   UNL     1      47.629   6.155  13.405  0.00  0.00    +0.000 C 
ATOM     22  O   UNL     1      48.692   5.904  12.845  0.00  0.00    +0.000 OA
ATOM     23  H   UNL     1      46.698   6.874  15.109  0.00  0.00    +0.000 HD
BRANCH  21  24
ATOM     24  C   UNL     1      46.348   6.024  12.698  0.00  0.00    +0.000 A 
ATOM     25  C   UNL     1      45.765   7.152  12.136  0.00  0.00    +0.000 A 
ATOM     26  S   UNL     1      44.287   6.838  11.347  0.00  0.00    +0.000 S 
ATOM     27  C   UNL     1      44.356   5.190  11.763  0.00  0.00    +0.000 A 
ATOM     28  N   UNL     1      43.347   4.342  11.421  0.00  0.00    +0.000 NA
ATOM     29  C   UNL     1      43.509   3.130  11.835  0.00  0.00    +0.000 A 
ATOM     30  N   UNL     1      44.596   2.682  12.539  0.00  0.00    +0.000 N 
ATOM     31  C   UNL     1      45.674   3.484  12.837  0.00  0.00    +0.000 A 
ATOM     32  O   UNL     1      46.692   3.022  13.342  0.00  0.00    +0.000 OA
ATOM     33  C   UNL     1      45.511   4.874  12.455  0.00  0.00    +0.000 A 
ATOM     34  H   UNL     1      44.678   1.711  12.799  0.00  0.00    +0.000 HD
ENDBRANCH  21  24
ENDBRANCH  19  20
ENDBRANCH   6  19
TORSDOF 7
ENDMDL
MODEL 3
REMARK VINA RESULT:    -7.836      3.084      3.618
REMARK INTER + INTRA:         -12.181
REMARK INTER:                 -10.864
REMARK INTRA:                  -1.317
REMARK UNBOUND:                -1.138
REMARK  Name = 
REMARK  8 active torsions:
REMARK  status: ('A' for Active; 'I' for Inactive)
REMARK    1  A    between atoms: C_1  and  C_2
REMARK    2  A    between atoms: C_2  and  N_3
REMARK    3  A    between atoms: C_2  and  C_26
REMARK    4  A    between atoms: N_3  and  C_4
REMARK    5  A    between atoms: C_4  and  C_5
REMARK    6  A    between atoms: C_10  and  C_11
REMARK    7  A    between atoms: C_11  and  N_12
REMARK    8  A    between atoms: C_13  and  C_15
REMARK                            x       y       z     vdW  Elec       q    Type
REMARK                         _______ _______ _______ _____ _____    ______ ____
ROOT
ATOM      1  C   UNL     1      45.059   5.302  11.414  0.00  0.00    +0.000 A 
ATOM      2  C   UNL     1      45.078   4.647  12.650  0.00  0.00    +0.000 A 
ATOM      3  C   UNL     1      46.086   4.926  13.567  0.00  0.00    +0.000 A 
ATOM      4  F   UNL     1      46.085   4.308  14.755  0.00  0.00    +0.000 F 
ATOM      5  C   UNL     1      47.078   5.859  13.285  0.00  0.00    +0.000 A 
ATOM      6  C   UNL     1      47.067   6.539  12.063  0.00  0.00    +0.000 A 
ATOM      7  C   UNL     1      46.070   6.235  11.125  0.00  0.00    +0.000 A 
ENDROOT
BRANCH   1   8
ATOM      8  C   UNL     1      43.915   5.110  10.447  0.00  0.00    +0.000 C 
BRANCH   8   9
ATOM      9  N   UNL     1      44.323   4.450   9.208  0.00  0.00    +0.000 NA
ATOM     10  H   UNL     1      44.937   5.076   8.688  0.00  0.00    +0.000 HD
BRANCH   9  12
ATOM     11  C   UNL     1      44.133   2.040   9.907  0.00  0.00    +0.000 C 
ATOM     12  C   UNL     1      45.045   3.190   9.450  0.00  0.00    +0.000 C 
BRANCH  12  13
ATOM     13  C   UNL     1      45.813   2.752   8.203  0.00  0.00    +0.000 A 
ATOM     14  C   UNL     1      46.040   3.662   7.155  0.00  0.00    +0.000 A 
ATOM     15  C   UNL     1      46.842   3.310   6.064  0.00  0.00    +0.000 A 
ATOM     16  C   UNL     1      47.416   2.045   6.002  0.00  0.00    +0.000 A 
ATOM     17  C   UNL     1      47.170   1.118   7.008  0.00  0.00    +0.000 A 
ATOM     18  C   UNL     1      46.368   1.470   8.099  0.00  0.00    +0.000 A 
ENDBRANCH  12  13
ENDBRANCH   9  12
ENDBRANCH   8   9
ENDBRANCH   1   8
BRANCH   6  19
ATOM     19  C   UNL     1      48.101   7.586  11.753  0.00  0.00    +0.000 C 
BRANCH  19  20
ATOM     20  N   UNL     1      49.277   7.427  12.567  0.00  0.00    +0.000 N 
ATOM     21  C   UNL     1      49.847   8.480  13.234  0.00  0.00    +0.000 C 
ATOM     22  O   UNL     1      49.389   9.617  13.180  0.00  0.00    +0.000 OA
ATOM     23  H   UNL     1      49.781   6.550  12.486  0.00  0.00    +0.000 HD
BRANCH  21  24
ATOM     24  C   UNL     1      50.998   8.165  14.090  0.00  0.00    +0.000 A 
ATOM     25  C   UNL     1      52.251   8.658  13.750  0.00  0.00    +0.000 A 
ATOM     26  S   UNL     1      53.481   8.211  14.842  0.00  0.00    +0.000 S 
ATOM     27  C   UNL     1      52.389   7.309  15.785  0.00  0.00    +0.000 A 
ATOM     28  N   UNL     1      52.817   6.617  16.875  0.00  0.00    +0.000 NA
ATOM     29  C   UNL     1      51.892   5.944  17.474  0.00  0.00    +0.000 A 
ATOM     30  N   UNL     1      50.575   5.918  17.097  0.00  0.00    +0.000 N 
ATOM     31  C   UNL     1      50.083   6.665  16.050  0.00  0.00    +0.000 A 
ATOM     32  O   UNL     1      48.880   6.732  15.825  0.00  0.00    +0.000 OA
ATOM     33  C   UNL     1      51.095   7.384  15.300  0.00  0.00    +0.000 A 
ATOM     34  H   UNL     1      49.895   5.401  17.633  0.00  0.00    +0.000 HD
ENDBRANCH  21  24
ENDBRANCH  19  20
ENDBRANCH   6  19
TORSDOF 7
ENDMDL
MODEL 4
REMARK VINA RESULT:    -7.826      3.467      8.799
REMARK INTER + INTRA:         -12.167
REMARK INTER:                 -10.952
REMARK INTRA:                  -1.215
REMARK UNBOUND:                -1.138
REMARK  Name = 
REMARK  8 active torsions:
REMARK  status: ('A' for Active; 'I' for Inactive)
REMARK    1  A    between atoms: C_1  and  C_2
REMARK    2  A    between atoms: C_2  and  N_3
REMARK    3  A    between atoms: C_2  and  C_26
REMARK    4  A    between atoms: N_3  and  C_4
REMARK    5  A    between atoms: C_4  and  C_5
REMARK    6  A    between atoms: C_10  and  C_11
REMARK    7  A    between atoms: C_11  and  N_12
REMARK    8  A    between atoms: C_13  and  C_15
REMARK                            x       y       z     vdW  Elec       q    Type
REMARK                         _______ _______ _______ _____ _____    ______ ____
ROOT
ATOM      1  C   UNL     1      49.396   6.939  15.168  0.00  0.00    +0.000 A 
ATOM      2  C   UNL     1      50.602   7.645  15.120  0.00  0.00    +0.000 A 
ATOM      3  C   UNL     1      50.948   8.350  13.971  0.00  0.00    +0.000 A 
ATOM      4  F   UNL     1      52.096   9.039  13.942  0.00  0.00    +0.000 F 
ATOM      5  C   UNL     1      50.107   8.379  12.864  0.00  0.00    +0.000 A 
ATOM      6  C   UNL     1      48.887   7.695  12.898  0.00  0.00    +0.000 A 
ATOM      7  C   UNL     1      48.553   6.958  14.044  0.00  0.00    +0.000 A 
ENDROOT
BRANCH   1   8
ATOM      8  C   UNL     1      48.938   6.264  16.439  0.00  0.00    +0.000 C 
BRANCH   8   9
ATOM      9  N   UNL     1      48.524   4.877  16.228  0.00  0.00    +0.000 NA
ATOM     10  H   UNL     1      49.110   4.466  15.502  0.00  0.00    +0.000 HD
BRANCH   9  12
ATOM     11  C   UNL     1      47.553   2.993  17.585  0.00  0.00    +0.000 C 
ATOM     12  C   UNL     1      48.653   4.059  17.445  0.00  0.00    +0.000 C 
BRANCH  12  13
ATOM     13  C   UNL     1      50.020   3.374  17.500  0.00  0.00    +0.000 A 
ATOM     14  C   UNL     1      51.152   4.088  17.932  0.00  0.00    +0.000 A 
ATOM     15  C   UNL     1      52.381   3.442  18.102  0.00  0.00    +0.000 A 
ATOM     16  C   UNL     1      52.496   2.082  17.832  0.00  0.00    +0.000 A 
ATOM     17  C   UNL     1      51.398   1.369  17.364  0.00  0.00    +0.000 A 
ATOM     18  C   UNL     1      50.168   2.015  17.195  0.00  0.00    +0.000 A 
ENDBRANCH  12  13
ENDBRANCH   9  12
ENDBRANCH   8   9
ENDBRANCH   1   8
BRANCH   6  19
ATOM     19  C   UNL     1      47.940   7.748  11.731  0.00  0.00    +0.000 C 
BRANCH  19  20
ATOM     20  N   UNL     1      47.134   6.559  11.647  0.00  0.00    +0.000 N 
ATOM     21  C   UNL     1      45.769   6.598  11.749  0.00  0.00    +0.000 C 
ATOM     22  O   UNL     1      45.152   7.645  11.917  0.00  0.00    +0.000 OA
ATOM     23  H   UNL     1      47.619   5.668  11.694  0.00  0.00    +0.000 HD
BRANCH  21  24
ATOM     24  C   UNL     1      45.064   5.322  11.569  0.00  0.00    +0.000 A 
ATOM     25  C   UNL     1      44.318   4.804  12.620  0.00  0.00    +0.000 A 
ATOM     26  S   UNL     1      43.558   3.324  12.255  0.00  0.00    +0.000 S 
ATOM     27  C   UNL     1      44.231   3.302  10.694  0.00  0.00    +0.000 A 
ATOM     28  N   UNL     1      44.006   2.257   9.852  0.00  0.00    +0.000 NA
ATOM     29  C   UNL     1      44.610   2.350   8.715  0.00  0.00    +0.000 A 
ATOM     30  N   UNL     1      45.400   3.403   8.333  0.00  0.00    +0.000 N 
ATOM     31  C   UNL     1      45.590   4.517   9.119  0.00  0.00    +0.000 A 
ATOM     32  O   UNL     1      46.183   5.503   8.695  0.00  0.00    +0.000 OA
ATOM     33  C   UNL     1      44.989   4.430  10.436  0.00  0.00    +0.000 A 
ATOM     34  H   UNL     1      45.811   3.432   7.413  0.00  0.00    +0.000 HD
ENDBRANCH  21  24
ENDBRANCH  19  20
ENDBRANCH   6  19
TORSDOF 7
ENDMDL
MODEL 5
REMARK VINA RESULT:    -7.815      2.689      3.421
REMARK INTER + INTRA:         -12.151
REMARK INTER:                 -11.169
REMARK INTRA:                  -0.982
REMARK UNBOUND:                -1.138
REMARK  Name = 
REMARK  8 active torsions:
REMARK  status: ('A' for Active; 'I' for Inactive)
REMARK    1  A    between atoms: C_1  and  C_2
REMARK    2  A    between atoms: C_2  and  N_3
REMARK    3  A    between atoms: C_2  and  C_26
REMARK    4  A    between atoms: N_3  and  C_4
REMARK    5  A    between atoms: C_4  and  C_5
REMARK    6  A    between atoms: C_10  and  C_11
REMARK    7  A    between atoms: C_11  and  N_12
REMARK    8  A    between atoms: C_13  and  C_15
REMARK                            x       y       z     vdW  Elec       q    Type
REMARK                         _______ _______ _______ _____ _____    ______ ____
ROOT
ATOM      1  C   UNL     1      44.842   4.994  11.293  0.00  0.00    +0.000 A 
ATOM      2  C   UNL     1      45.348   3.954  12.079  0.00  0.00    +0.000 A 
ATOM      3  C   UNL     1      46.262   4.232  13.091  0.00  0.00    +0.000 A 
ATOM      4  F   UNL     1      46.727   3.231  13.851  0.00  0.00    +0.000 F 
ATOM      5  C   UNL     1      46.677   5.533  13.350  0.00  0.00    +0.000 A 
ATOM      6  C   UNL     1      46.168   6.591  12.588  0.00  0.00    +0.000 A 
ATOM      7  C   UNL     1      45.272   6.308  11.547  0.00  0.00    +0.000 A 
ENDROOT
BRANCH   1   8
ATOM      8  C   UNL     1      43.762   4.742  10.268  0.00  0.00    +0.000 C 
BRANCH   8   9
ATOM      9  N   UNL     1      44.289   4.234   9.002  0.00  0.00    +0.000 NA
ATOM     10  H   UNL     1      44.932   4.923   8.613  0.00  0.00    +0.000 HD
BRANCH   9  12
ATOM     11  C   UNL     1      44.086   1.742   9.288  0.00  0.00    +0.000 C 
ATOM     12  C   UNL     1      45.013   2.963   9.161  0.00  0.00    +0.000 C 
BRANCH  12  13
ATOM     13  C   UNL     1      45.980   2.735   7.998  0.00  0.00    +0.000 A 
ATOM     14  C   UNL     1      46.676   1.519   7.884  0.00  0.00    +0.000 A 
ATOM     15  C   UNL     1      47.469   1.253   6.763  0.00  0.00    +0.000 A 
ATOM     16  C   UNL     1      47.585   2.200   5.752  0.00  0.00    +0.000 A 
ATOM     17  C   UNL     1      46.937   3.425   5.866  0.00  0.00    +0.000 A 
ATOM     18  C   UNL     1      46.143   3.691   6.987  0.00  0.00    +0.000 A 
ENDBRANCH  12  13
ENDBRANCH   9  12
ENDBRANCH   8   9
ENDBRANCH   1   8
BRANCH   6  19
ATOM     19  C   UNL     1      46.565   8.011  12.878  0.00  0.00    +0.000 C 
BRANCH  19  20
ATOM     20  N   UNL     1      47.075   8.158  14.215  0.00  0.00    +0.000 N 
ATOM     21  C   UNL     1      48.261   8.792  14.476  0.00  0.00    +0.000 C 
ATOM     22  O   UNL     1      48.957   9.274  13.587  0.00  0.00    +0.000 OA
ATOM     23  H   UNL     1      46.622   7.616  14.944  0.00  0.00    +0.000 HD
BRANCH  21  24
ATOM     24  C   UNL     1      48.626   8.939  15.890  0.00  0.00    +0.000 A 
ATOM     25  C   UNL     1      48.591  10.199  16.473  0.00  0.00    +0.000 A 
ATOM     26  S   UNL     1      49.035  10.206  18.118  0.00  0.00    +0.000 S 
ATOM     27  C   UNL     1      49.330   8.531  18.099  0.00  0.00    +0.000 A 
ATOM     28  N   UNL     1      49.791   7.892  19.208  0.00  0.00    +0.000 NA
ATOM     29  C   UNL     1      50.010   6.631  19.043  0.00  0.00    +0.000 A 
ATOM     30  N   UNL     1      49.789   5.944  17.877  0.00  0.00    +0.000 N 
ATOM     31  C   UNL     1      49.249   6.533  16.756  0.00  0.00    +0.000 A 
ATOM     32  O   UNL     1      48.930   5.866  15.777  0.00  0.00    +0.000 OA
ATOM     33  C   UNL     1      49.050   7.965  16.868  0.00  0.00    +0.000 A 
ATOM     34  H   UNL     1      49.945   4.949  17.826  0.00  0.00    +0.000 HD
ENDBRANCH  21  24
ENDBRANCH  19  20
ENDBRANCH   6  19
TORSDOF 7
ENDMDL
MODEL 6
REMARK VINA RESULT:    -7.728      4.097      9.738
REMARK INTER + INTRA:         -12.029
REMARK INTER:                 -10.134
REMARK INTRA:                  -1.895
REMARK UNBOUND:                -1.138
REMARK  Name = 
REMARK  8 active torsions:
REMARK  status: ('A' for Active; 'I' for Inactive)
REMARK    1  A    between atoms: C_1  and  C_2
REMARK    2  A    between atoms: C_2  and  N_3
REMARK    3  A    between atoms: C_2  and  C_26
REMARK    4  A    between atoms: N_3  and  C_4
REMARK    5  A    between atoms: C_4  and  C_5
REMARK    6  A    between atoms: C_10  and  C_11
REMARK    7  A    between atoms: C_11  and  N_12
REMARK    8  A    between atoms: C_13  and  C_15
REMARK                            x       y       z     vdW  Elec       q    Type
REMARK                         _______ _______ _______ _____ _____    ______ ____
ROOT
ATOM      1  C   UNL     1      50.723   4.658  17.441  0.00  0.00    +0.000 A 
ATOM      2  C   UNL     1      51.423   3.447  17.457  0.00  0.00    +0.000 A 
ATOM      3  C   UNL     1      50.736   2.248  17.293  0.00  0.00    +0.000 A 
ATOM      4  F   UNL     1      51.417   1.094  17.291  0.00  0.00    +0.000 F 
ATOM      5  C   UNL     1      49.359   2.227  17.100  0.00  0.00    +0.000 A 
ATOM      6  C   UNL     1      48.643   3.428  17.062  0.00  0.00    +0.000 A 
ATOM      7  C   UNL     1      49.330   4.635  17.259  0.00  0.00    +0.000 A 
ENDROOT
BRANCH   1   8
ATOM      8  C   UNL     1      51.452   5.979  17.497  0.00  0.00    +0.000 C 
BRANCH   8   9
ATOM      9  N   UNL     1      51.988   6.277  18.825  0.00  0.00    +0.000 NA
ATOM     10  H   UNL     1      52.983   6.483  18.741  0.00  0.00    +0.000 HD
BRANCH   9  12
ATOM     11  C   UNL     1      51.314   8.688  18.565  0.00  0.00    +0.000 C 
ATOM     12  C   UNL     1      51.328   7.432  19.454  0.00  0.00    +0.000 C 
BRANCH  12  13
ATOM     13  C   UNL     1      49.893   7.090  19.855  0.00  0.00    +0.000 A 
ATOM     14  C   UNL     1      48.809   7.665  19.167  0.00  0.00    +0.000 A 
ATOM     15  C   UNL     1      47.496   7.270  19.444  0.00  0.00    +0.000 A 
ATOM     16  C   UNL     1      47.250   6.306  20.416  0.00  0.00    +0.000 A 
ATOM     17  C   UNL     1      48.305   5.757  21.136  0.00  0.00    +0.000 A 
ATOM     18  C   UNL     1      49.618   6.152  20.858  0.00  0.00    +0.000 A 
ENDBRANCH  12  13
ENDBRANCH   9  12
ENDBRANCH   8   9
ENDBRANCH   1   8
BRANCH   6  19
ATOM     19  C   UNL     1      47.161   3.435  16.807  0.00  0.00    +0.000 C 
BRANCH  19  20
ATOM     20  N   UNL     1      46.798   4.410  15.812  0.00  0.00    +0.000 N 
ATOM     21  C   UNL     1      46.811   4.120  14.473  0.00  0.00    +0.000 C 
ATOM     22  O   UNL     1      47.130   3.016  14.043  0.00  0.00    +0.000 OA
ATOM     23  H   UNL     1      46.710   5.373  16.120  0.00  0.00    +0.000 HD
BRANCH  21  24
ATOM     24  C   UNL     1      46.345   5.181  13.572  0.00  0.00    +0.000 A 
ATOM     25  C   UNL     1      47.171   6.268  13.318  0.00  0.00    +0.000 A 
ATOM     26  S   UNL     1      46.493   7.410  12.250  0.00  0.00    +0.000 S 
ATOM     27  C   UNL     1      45.053   6.512  12.122  0.00  0.00    +0.000 A 
ATOM     28  N   UNL     1      44.012   6.968  11.374  0.00  0.00    +0.000 NA
ATOM     29  C   UNL     1      42.968   6.209  11.398  0.00  0.00    +0.000 A 
ATOM     30  N   UNL     1      42.878   5.024  12.081  0.00  0.00    +0.000 N 
ATOM     31  C   UNL     1      43.932   4.486  12.784  0.00  0.00    +0.000 A 
ATOM     32  O   UNL     1      43.868   3.360  13.265  0.00  0.00    +0.000 OA
ATOM     33  C   UNL     1      45.106   5.335  12.847  0.00  0.00    +0.000 A 
ATOM     34  H   UNL     1      42.045   4.459  12.025  0.00  0.00    +0.000 HD
ENDBRANCH  21  24
ENDBRANCH  19  20
ENDBRANCH   6  19
TORSDOF 7
ENDMDL
MODEL 7
REMARK VINA RESULT:    -7.649      2.425      4.015
REMARK INTER + INTRA:         -11.918
REMARK INTER:                 -10.776
REMARK INTRA:                  -1.142
REMARK UNBOUND:                -1.138
REMARK  Name = 
REMARK  8 active torsions:
REMARK  status: ('A' for Active; 'I' for Inactive)
REMARK    1  A    between atoms: C_1  and  C_2
REMARK    2  A    between atoms: C_2  and  N_3
REMARK    3  A    between atoms: C_2  and  C_26
REMARK    4  A    between atoms: N_3  and  C_4
REMARK    5  A    between atoms: C_4  and  C_5
REMARK    6  A    between atoms: C_10  and  C_11
REMARK    7  A    between atoms: C_11  and  N_12
REMARK    8  A    between atoms: C_13  and  C_15
REMARK                            x       y       z     vdW  Elec       q    Type
REMARK                         _______ _______ _______ _____ _____    ______ ____
ROOT
ATOM      1  C   UNL     1      47.036   4.689  14.361  0.00  0.00    +0.000 A 
ATOM      2  C   UNL     1      47.673   5.934  14.366  0.00  0.00    +0.000 A 
ATOM      3  C   UNL     1      48.406   6.333  15.479  0.00  0.00    +0.000 A 
ATOM      4  F   UNL     1      49.029   7.519  15.467  0.00  0.00    +0.000 F 
ATOM      5  C   UNL     1      48.532   5.509  16.592  0.00  0.00    +0.000 A 
ATOM      6  C   UNL     1      47.918   4.251  16.600  0.00  0.00    +0.000 A 
ATOM      7  C   UNL     1      47.152   3.862  15.491  0.00  0.00    +0.000 A 
ENDROOT
BRANCH   1   8
ATOM      8  C   UNL     1      46.334   4.178  13.125  0.00  0.00    +0.000 C 
BRANCH   8   9
ATOM      9  N   UNL     1      44.876   4.244  13.232  0.00  0.00    +0.000 NA
ATOM     10  H   UNL     1      44.631   4.740  14.089  0.00  0.00    +0.000 HD
BRANCH   9  12
ATOM     11  C   UNL     1      44.630   6.440  12.027  0.00  0.00    +0.000 C 
ATOM     12  C   UNL     1      44.259   4.949  12.097  0.00  0.00    +0.000 C 
BRANCH  12  13
ATOM     13  C   UNL     1      44.629   4.281  10.773  0.00  0.00    +0.000 A 
ATOM     14  C   UNL     1      44.264   2.945  10.527  0.00  0.00    +0.000 A 
ATOM     15  C   UNL     1      44.490   2.361   9.277  0.00  0.00    +0.000 A 
ATOM     16  C   UNL     1      45.092   3.099   8.262  0.00  0.00    +0.000 A 
ATOM     17  C   UNL     1      45.497   4.407   8.499  0.00  0.00    +0.000 A 
ATOM     18  C   UNL     1      45.270   4.992   9.750  0.00  0.00    +0.000 A 
ENDBRANCH  12  13
ENDBRANCH   9  12
ENDBRANCH   8   9
ENDBRANCH   1   8
BRANCH   6  19
ATOM     19  C   UNL     1      48.076   3.323  17.772  0.00  0.00    +0.000 C 
BRANCH  19  20
ATOM     20  N   UNL     1      49.461   3.025  18.029  0.00  0.00    +0.000 N 
ATOM     21  C   UNL     1      50.204   2.239  17.188  0.00  0.00    +0.000 C 
ATOM     22  O   UNL     1      49.736   1.745  16.167  0.00  0.00    +0.000 OA
ATOM     23  H   UNL     1      49.821   3.262  18.948  0.00  0.00    +0.000 HD
BRANCH  21  24
ATOM     24  C   UNL     1      51.623   2.078  17.529  0.00  0.00    +0.000 A 
ATOM     25  C   UNL     1      52.144   0.800  17.682  0.00  0.00    +0.000 A 
ATOM     26  S   UNL     1      53.803   0.779  18.071  0.00  0.00    +0.000 S 
ATOM     27  C   UNL     1      53.874   2.478  18.089  0.00  0.00    +0.000 A 
ATOM     28  N   UNL     1      55.029   3.124  18.405  0.00  0.00    +0.000 NA
ATOM     29  C   UNL     1      54.932   4.411  18.421  0.00  0.00    +0.000 A 
ATOM     30  N   UNL     1      53.792   5.113  18.126  0.00  0.00    +0.000 N 
ATOM     31  C   UNL     1      52.625   4.505  17.724  0.00  0.00    +0.000 A 
ATOM     32  O   UNL     1      51.667   5.162  17.330  0.00  0.00    +0.000 OA
ATOM     33  C   UNL     1      52.661   3.055  17.758  0.00  0.00    +0.000 A 
ATOM     34  H   UNL     1      53.794   6.121  18.119  0.00  0.00    +0.000 HD
ENDBRANCH  21  24
ENDBRANCH  19  20
ENDBRANCH   6  19
TORSDOF 7
ENDMDL
MODEL 8
REMARK VINA RESULT:    -7.465      3.975      9.922
REMARK INTER + INTRA:         -11.658
REMARK INTER:                  -9.724
REMARK INTRA:                  -1.934
REMARK UNBOUND:                -1.138
REMARK  Name = 
REMARK  8 active torsions:
REMARK  status: ('A' for Active; 'I' for Inactive)
REMARK    1  A    between atoms: C_1  and  C_2
REMARK    2  A    between atoms: C_2  and  N_3
REMARK    3  A    between atoms: C_2  and  C_26
REMARK    4  A    between atoms: N_3  and  C_4
REMARK    5  A    between atoms: C_4  and  C_5
REMARK    6  A    between atoms: C_10  and  C_11
REMARK    7  A    between atoms: C_11  and  N_12
REMARK    8  A    between atoms: C_13  and  C_15
REMARK                            x       y       z     vdW  Elec       q    Type
REMARK                         _______ _______ _______ _____ _____    ______ ____
ROOT
ATOM      1  C   UNL     1      49.612   4.640  18.342  0.00  0.00    +0.000 A 
ATOM      2  C   UNL     1      48.691   3.600  18.507  0.00  0.00    +0.000 A 
ATOM      3  C   UNL     1      47.650   3.446  17.597  0.00  0.00    +0.000 A 
ATOM      4  F   UNL     1      46.784   2.435  17.753  0.00  0.00    +0.000 F 
ATOM      5  C   UNL     1      47.510   4.301  16.510  0.00  0.00    +0.000 A 
ATOM      6  C   UNL     1      48.430   5.337  16.316  0.00  0.00    +0.000 A 
ATOM      7  C   UNL     1      49.462   5.513  17.250  0.00  0.00    +0.000 A 
ENDROOT
BRANCH   1   8
ATOM      8  C   UNL     1      50.818   4.763  19.242  0.00  0.00    +0.000 C 
BRANCH   8   9
ATOM      9  N   UNL     1      50.533   5.492  20.477  0.00  0.00    +0.000 NA
ATOM     10  H   UNL     1      51.054   5.061  21.241  0.00  0.00    +0.000 HD
BRANCH   9  12
ATOM     11  C   UNL     1      52.100   7.171  19.448  0.00  0.00    +0.000 C 
ATOM     12  C   UNL     1      50.918   6.910  20.398  0.00  0.00    +0.000 C 
BRANCH  12  13
ATOM     13  C   UNL     1      49.733   7.774  19.967  0.00  0.00    +0.000 A 
ATOM     14  C   UNL     1      48.445   7.509  20.466  0.00  0.00    +0.000 A 
ATOM     15  C   UNL     1      47.377   8.364  20.175  0.00  0.00    +0.000 A 
ATOM     16  C   UNL     1      47.579   9.483  19.375  0.00  0.00    +0.000 A 
ATOM     17  C   UNL     1      48.836   9.739  18.839  0.00  0.00    +0.000 A 
ATOM     18  C   UNL     1      49.905   8.885  19.130  0.00  0.00    +0.000 A 
ENDBRANCH  12  13
ENDBRANCH   9  12
ENDBRANCH   8   9
ENDBRANCH   1   8
BRANCH   6  19
ATOM     19  C   UNL     1      48.328   6.247  15.124  0.00  0.00    +0.000 C 
BRANCH  19  20
ATOM     20  N   UNL     1      47.118   6.014  14.380  0.00  0.00    +0.000 N 
ATOM     21  C   UNL     1      46.971   6.428  13.083  0.00  0.00    +0.000 C 
ATOM     22  O   UNL     1      47.860   7.019  12.477  0.00  0.00    +0.000 OA
ATOM     23  H   UNL     1      46.308   5.697  14.903  0.00  0.00    +0.000 HD
BRANCH  21  24
ATOM     24  C   UNL     1      45.715   6.058  12.418  0.00  0.00    +0.000 A 
ATOM     25  C   UNL     1      44.956   7.046  11.805  0.00  0.00    +0.000 A 
ATOM     26  S   UNL     1      43.532   6.460  11.074  0.00  0.00    +0.000 S 
ATOM     27  C   UNL     1      43.861   4.872  11.586  0.00  0.00    +0.000 A 
ATOM     28  N   UNL     1      42.990   3.860  11.321  0.00  0.00    +0.000 NA
ATOM     29  C   UNL     1      43.343   2.716  11.802  0.00  0.00    +0.000 A 
ATOM     30  N   UNL     1      44.497   2.484  12.503  0.00  0.00    +0.000 N 
ATOM     31  C   UNL     1      45.444   3.458  12.725  0.00  0.00    +0.000 A 
ATOM     32  O   UNL     1      46.528   3.190  13.230  0.00  0.00    +0.000 OA
ATOM     33  C   UNL     1      45.062   4.780  12.266  0.00  0.00    +0.000 A 
ATOM     34  H   UNL     1      44.732   1.555  12.818  0.00  0.00    +0.000 HD
ENDBRANCH  21  24
ENDBRANCH  19  20
ENDBRANCH   6  19
TORSDOF 7
ENDMDL
MODEL 9
REMARK VINA RESULT:    -7.376      3.556      8.774
REMARK INTER + INTRA:         -11.532
REMARK INTER:                 -10.079
REMARK INTRA:                  -1.453
REMARK UNBOUND:                -1.138
REMARK  Name = 
REMARK  8 active torsions:
REMARK  status: ('A' for Active; 'I' for Inactive)
REMARK    1  A    between atoms: C_1  and  C_2
REMARK    2  A    between atoms: C_2  and  N_3
REMARK    3  A    between atoms: C_2  and  C_26
REMARK    4  A    between atoms: N_3  and  C_4
REMARK    5  A    between atoms: C_4  and  C_5
REMARK    6  A    between atoms: C_10  and  C_11
REMARK    7  A    between atoms: C_11  and  N_12
REMARK    8  A    between atoms: C_13  and  C_15
REMARK                            x       y       z     vdW  Elec       q    Type
REMARK                         _______ _______ _______ _____ _____    ______ ____
ROOT
ATOM      1  C   UNL     1      50.119   7.825  14.148  0.00  0.00    +0.000 A 
ATOM      2  C   UNL     1      50.781   8.140  12.958  0.00  0.00    +0.000 A 
ATOM      3  C   UNL     1      50.050   8.355  11.794  0.00  0.00    +0.000 A 
ATOM      4  F   UNL     1      50.692   8.675  10.662  0.00  0.00    +0.000 F 
ATOM      5  C   UNL     1      48.662   8.277  11.790  0.00  0.00    +0.000 A 
ATOM      6  C   UNL     1      47.978   7.982  12.974  0.00  0.00    +0.000 A 
ATOM      7  C   UNL     1      48.716   7.733  14.141  0.00  0.00    +0.000 A 
ENDROOT
BRANCH   1   8
ATOM      8  C   UNL     1      50.873   7.702  15.451  0.00  0.00    +0.000 C 
BRANCH   8   9
ATOM      9  N   UNL     1      50.962   6.323  15.928  0.00  0.00    +0.000 NA
ATOM     10  H   UNL     1      51.938   6.029  15.906  0.00  0.00    +0.000 HD
BRANCH   9  12
ATOM     11  C   UNL     1      49.806   7.440  17.864  0.00  0.00    +0.000 C 
ATOM     12  C   UNL     1      50.463   6.167  17.304  0.00  0.00    +0.000 C 
BRANCH  12  13
ATOM     13  C   UNL     1      49.467   5.011  17.396  0.00  0.00    +0.000 A 
ATOM     14  C   UNL     1      48.084   5.267  17.407  0.00  0.00    +0.000 A 
ATOM     15  C   UNL     1      47.163   4.215  17.369  0.00  0.00    +0.000 A 
ATOM     16  C   UNL     1      47.610   2.899  17.333  0.00  0.00    +0.000 A 
ATOM     17  C   UNL     1      48.973   2.625  17.364  0.00  0.00    +0.000 A 
ATOM     18  C   UNL     1      49.895   3.677  17.400  0.00  0.00    +0.000 A 
ENDBRANCH  12  13
ENDBRANCH   9  12
ENDBRANCH   8   9
ENDBRANCH   1   8
BRANCH   6  19
ATOM     19  C   UNL     1      46.476   7.937  13.007  0.00  0.00    +0.000 C 
BRANCH  19  20
ATOM     20  N   UNL     1      45.976   6.636  12.649  0.00  0.00    +0.000 N 
ATOM     21  C   UNL     1      44.889   6.475  11.830  0.00  0.00    +0.000 C 
ATOM     22  O   UNL     1      44.279   7.428  11.354  0.00  0.00    +0.000 OA
ATOM     23  H   UNL     1      46.339   5.842  13.167  0.00  0.00    +0.000 HD
BRANCH  21  24
ATOM     24  C   UNL     1      44.531   5.094  11.483  0.00  0.00    +0.000 A 
ATOM     25  C   UNL     1      43.765   4.348  12.368  0.00  0.00    +0.000 A 
ATOM     26  S   UNL     1      43.430   2.769  11.822  0.00  0.00    +0.000 S 
ATOM     27  C   UNL     1      44.332   3.013  10.401  0.00  0.00    +0.000 A 
ATOM     28  N   UNL     1      44.490   2.011   9.494  0.00  0.00    +0.000 NA
ATOM     29  C   UNL     1      45.231   2.319   8.484  0.00  0.00    +0.000 A 
ATOM     30  N   UNL     1      45.811   3.545   8.284  0.00  0.00    +0.000 N 
ATOM     31  C   UNL     1      45.613   4.611   9.132  0.00  0.00    +0.000 A 
ATOM     32  O   UNL     1      46.026   5.731   8.855  0.00  0.00    +0.000 OA
ATOM     33  C   UNL     1      44.845   4.296  10.321  0.00  0.00    +0.000 A 
ATOM     34  H   UNL     1      46.347   3.733   7.451  0.00  0.00    +0.000 HD
ENDBRANCH  21  24
ENDBRANCH  19  20
ENDBRANCH   6  19
TORSDOF 7
ENDMDL
