MODEL 1
REMARK VINA RESULT:    -7.596      0.000      0.000
REMARK INTER + INTRA:         -11.150
REMARK INTER:                 -10.704
REMARK INTRA:                  -0.446
REMARK UNBOUND:                -0.446
REMARK  Name = 
REMARK  9 active torsions:
REMARK  status: ('A' for Active; 'I' for Inactive)
REMARK    1  A    between atoms: C_1  and  C_2
REMARK    2  A    between atoms: C_2  and  C_3
REMARK    3  A    between atoms: C_2  and  N_4
REMARK    4  A    between atoms: N_4  and  C_5
REMARK    5  A    between atoms: C_5  and  C_6
REMARK    6  A    between atoms: C_10  and  C_11
REMARK    7  A    between atoms: C_11  and  O_12
REMARK    8  A    between atoms: O_12  and  C_13
REMARK    9  A    between atoms: C_15  and  C_16
REMARK                            x       y       z     vdW  Elec       q    Type
REMARK                         _______ _______ _______ _____ _____    ______ ____
ROOT
ATOM      1  C   UNL     1      43.496   3.728  11.408  0.00  0.00    +0.000 C 
ENDROOT
BRANCH   1   6
ATOM      2  C   UNL     1      46.080   5.868  12.935  0.00  0.00    +0.000 A 
ATOM      3  C   UNL     1      46.911   4.957  13.558  0.00  0.00    +0.000 A 
ATOM      4  C   UNL     1      46.546   3.637  13.457  0.00  0.00    +0.000 A 
ATOM      5  N   UNL     1      45.450   3.214  12.801  0.00  0.00    +0.000 NA
ATOM      6  C   UNL     1      44.690   4.168  12.224  0.00  0.00    +0.000 A 
ATOM      7  N   UNL     1      44.966   5.490  12.270  0.00  0.00    +0.000 NA
BRANCH   2   8
ATOM      8  C   UNL     1      46.439   7.339  12.914  0.00  0.00    +0.000 C 
BRANCH   8   9
ATOM      9  N   UNL     1      45.278   8.246  12.850  0.00  0.00    +0.000 NA
ATOM     10  H   UNL     1      44.450   7.686  12.651  0.00  0.00    +0.000 HD
BRANCH   9  12
ATOM     11  C   UNL     1      44.212  10.260  11.807  0.00  0.00    +0.000 C 
ATOM     12  C   UNL     1      45.402   9.300  11.829  0.00  0.00    +0.000 C 
ATOM     13  C   UNL     1      46.688  10.085  12.112  0.00  0.00    +0.000 C 
ENDBRANCH   9  12
ENDBRANCH   8   9
ENDBRANCH   2   8
ENDBRANCH   1   6
BRANCH   1  14
ATOM     14  O   UNL     1      43.800   2.553  10.644  0.00  0.00    +0.000 OA
BRANCH  14  15
ATOM     15  C   UNL     1      44.601   2.842   9.557  0.00  0.00    +0.000 A 
ATOM     16  C   UNL     1      45.385   1.819   9.058  0.00  0.00    +0.000 A 
ATOM     17  C   UNL     1      46.191   2.085   7.945  0.00  0.00    +0.000 A 
ATOM     18  C   UNL     1      46.174   3.361   7.383  0.00  0.00    +0.000 A 
ATOM     19  C   UNL     1      45.358   4.315   7.959  0.00  0.00    +0.000 A 
ATOM     20  N   UNL     1      44.577   4.084   9.030  0.00  0.00    +0.000 NA
BRANCH  17  21
ATOM     21  C   UNL     1      47.031   0.979   7.408  0.00  0.00    +0.000 C 
ATOM     22  N   UNL     1      46.678  -0.312   7.688  0.00  0.00    +0.000 N 
ATOM     23  O   UNL     1      48.023   1.205   6.725  0.00  0.00    +0.000 OA
ATOM     24  H   UNL     1      45.887  -0.605   8.237  0.00  0.00    +0.000 HD
ATOM     25  H   UNL     1      47.275  -1.035   7.305  0.00  0.00    +0.000 HD
ENDBRANCH  17  21
ENDBRANCH  14  15
ENDBRANCH   1  14
TORSDOF 7
ENDMDL
MODEL 2
REMARK VINA RESULT:    -7.352      1.890      3.593
REMARK INTER + INTRA:         -10.807
REMARK INTER:                 -10.397
REMARK INTRA:                  -0.410
REMARK UNBOUND:                -0.446
REMARK  Name = 
REMARK  9 active torsions:
REMARK  status: ('A' for Active; 'I' for Inactive)
REMARK    1  A    between atoms: C_1  and  C_2
REMARK    2  A    between atoms: C_2  and  C_3
REMARK    3  A    between atoms: C_2  and  N_4
REMARK    4  A    between atoms: N_4  and  C_5
REMARK    5  A    between atoms: C_5  and  C_6
REMARK    6  A    between atoms: C_10  and  C_11
REMARK    7  A    between atoms: C_11  and  O_12
REMARK    8  A    between atoms: O_12  and  C_13
REMARK    9  A    between atoms: C_15  and  C_16
REMARK                            x       y       z     vdW  Elec       q    Type
REMARK                         _______ _______ _______ _____ _____    ______ ____
ROOT
ATOM      1  C   UNL     1      44.148   2.520  11.360  0.00  0.00    +0.000 C 
ENDROOT
BRANCH   1   6
ATOM      2  C   UNL     1      46.158   4.595  13.651  0.00  0.00    +0.000 A 
ATOM      3  C   UNL     1      45.570   5.840  13.540  0.00  0.00    +0.000 A 
ATOM      4  C   UNL     1      44.517   5.937  12.663  0.00  0.00    +0.000 A 
ATOM      5  N   UNL     1      44.056   4.905  11.934  0.00  0.00    +0.000 NA
ATOM      6  C   UNL     1      44.688   3.724  12.098  0.00  0.00    +0.000 A 
ATOM      7  N   UNL     1      45.732   3.530  12.934  0.00  0.00    +0.000 NA
BRANCH   2   8
ATOM      8  C   UNL     1      47.269   4.361  14.652  0.00  0.00    +0.000 C 
BRANCH   8   9
ATOM      9  N   UNL     1      46.839   3.683  15.889  0.00  0.00    +0.000 NA
ATOM     10  H   UNL     1      45.837   3.833  16.000  0.00  0.00    +0.000 HD
BRANCH   9  12
ATOM     11  C   UNL     1      48.405   3.084  17.752  0.00  0.00    +0.000 C 
ATOM     12  C   UNL     1      47.533   4.157  17.099  0.00  0.00    +0.000 C 
ATOM     13  C   UNL     1      48.402   5.357  16.708  0.00  0.00    +0.000 C 
ENDBRANCH   9  12
ENDBRANCH   8   9
ENDBRANCH   2   8
ENDBRANCH   1   6
BRANCH   1  14
ATOM     14  O   UNL     1      43.660   2.889  10.063  0.00  0.00    +0.000 OA
BRANCH  14  15
ATOM     15  C   UNL     1      44.691   3.111   9.172  0.00  0.00    +0.000 A 
ATOM     16  C   UNL     1      45.378   2.006   8.709  0.00  0.00    +0.000 A 
ATOM     17  C   UNL     1      46.416   2.207   7.791  0.00  0.00    +0.000 A 
ATOM     18  C   UNL     1      46.715   3.505   7.378  0.00  0.00    +0.000 A 
ATOM     19  C   UNL     1      45.970   4.543   7.903  0.00  0.00    +0.000 A 
ATOM     20  N   UNL     1      44.971   4.375   8.788  0.00  0.00    +0.000 NA
BRANCH  17  21
ATOM     21  C   UNL     1      47.152   1.013   7.292  0.00  0.00    +0.000 C 
ATOM     22  N   UNL     1      46.760  -0.227   7.716  0.00  0.00    +0.000 N 
ATOM     23  O   UNL     1      48.093   1.122   6.515  0.00  0.00    +0.000 OA
ATOM     24  H   UNL     1      46.004  -0.425   8.350  0.00  0.00    +0.000 HD
ATOM     25  H   UNL     1      47.285  -1.013   7.354  0.00  0.00    +0.000 HD
ENDBRANCH  17  21
ENDBRANCH  14  15
ENDBRANCH   1  14
TORSDOF 7
ENDMDL
MODEL 3
REMARK VINA RESULT:    -7.199      2.383      4.038
REMARK INTER + INTRA:         -10.591
REMARK INTER:                  -9.985
REMARK INTRA:                  -0.606
REMARK UNBOUND:                -0.446
REMARK  Name = 
REMARK  9 active torsions:
REMARK  status: ('A' for Active; 'I' for Inactive)
REMARK    1  A    between atoms: C_1  and  C_2
REMARK    2  A    between atoms: C_2  and  C_3
REMARK    3  A    between atoms: C_2  and  N_4
REMARK    4  A    between atoms: N_4  and  C_5
REMARK    5  A    between atoms: C_5  and  C_6
REMARK    6  A    between atoms: C_10  and  C_11
REMARK    7  A    between atoms: C_11  and  O_12
REMARK    8  A    between atoms: O_12  and  C_13
REMARK    9  A    between atoms: C_15  and  C_16
REMARK                            x       y       z     vdW  Elec       q    Type
REMARK                         _______ _______ _______ _____ _____    ______ ____
ROOT
ATOM      1  C   UNL     1      44.567   5.164  10.869  0.00  0.00    +0.000 C 
ENDROOT
BRANCH   1   6
ATOM      2  C   UNL     1      46.895   5.263  13.725  0.00  0.00    +0.000 A 
ATOM      3  C   UNL     1      47.642   6.399  13.480  0.00  0.00    +0.000 A 
ATOM      4  C   UNL     1      47.341   7.083  12.327  0.00  0.00    +0.000 A 
ATOM      5  N   UNL     1      46.386   6.703  11.461  0.00  0.00    +0.000 NA
ATOM      6  C   UNL     1      45.705   5.580  11.773  0.00  0.00    +0.000 A 
ATOM      7  N   UNL     1      45.928   4.839  12.881  0.00  0.00    +0.000 NA
BRANCH   2   8
ATOM      8  C   UNL     1      47.089   4.485  15.009  0.00  0.00    +0.000 C 
BRANCH   8   9
ATOM      9  N   UNL     1      48.289   4.869  15.777  0.00  0.00    +0.000 NA
ATOM     10  H   UNL     1      49.110   4.582  15.245  0.00  0.00    +0.000 HD
BRANCH   9  12
ATOM     11  C   UNL     1      47.235   4.750  18.048  0.00  0.00    +0.000 C 
ATOM     12  C   UNL     1      48.352   4.270  17.121  0.00  0.00    +0.000 C 
ATOM     13  C   UNL     1      48.272   2.748  16.966  0.00  0.00    +0.000 C 
ENDBRANCH   9  12
ENDBRANCH   8   9
ENDBRANCH   2   8
ENDBRANCH   1   6
BRANCH   1  14
ATOM     14  O   UNL     1      44.971   5.179   9.494  0.00  0.00    +0.000 OA
BRANCH  14  15
ATOM     15  C   UNL     1      45.260   3.911   9.030  0.00  0.00    +0.000 A 
ATOM     16  C   UNL     1      46.164   3.806   7.992  0.00  0.00    +0.000 A 
ATOM     17  C   UNL     1      46.484   2.528   7.518  0.00  0.00    +0.000 A 
ATOM     18  C   UNL     1      45.886   1.416   8.108  0.00  0.00    +0.000 A 
ATOM     19  C   UNL     1      44.991   1.628   9.139  0.00  0.00    +0.000 A 
ATOM     20  N   UNL     1      44.665   2.846   9.609  0.00  0.00    +0.000 NA
BRANCH  17  21
ATOM     21  C   UNL     1      47.462   2.419   6.401  0.00  0.00    +0.000 C 
ATOM     22  N   UNL     1      47.352   3.279   5.342  0.00  0.00    +0.000 N 
ATOM     23  O   UNL     1      48.356   1.581   6.414  0.00  0.00    +0.000 OA
ATOM     24  H   UNL     1      46.658   4.000   5.234  0.00  0.00    +0.000 HD
ATOM     25  H   UNL     1      48.035   3.173   4.604  0.00  0.00    +0.000 HD
ENDBRANCH  17  21
ENDBRANCH  14  15
ENDBRANCH   1  14
TORSDOF 7
ENDMDL
MODEL 4
REMARK VINA RESULT:    -7.147      3.650      7.900
REMARK INTER + INTRA:         -10.518
REMARK INTER:                  -9.963
REMARK INTRA:                  -0.555
REMARK UNBOUND:                -0.446
REMARK  Name = 
REMARK  9 active torsions:
REMARK  status: ('A' for Active; 'I' for Inactive)
REMARK    1  A    between atoms: C_1  and  C_2
REMARK    2  A    between atoms: C_2  and  C_3
REMARK    3  A    between atoms: C_2  and  N_4
REMARK    4  A    between atoms: N_4  and  C_5
REMARK    5  A    between atoms: C_5  and  C_6
REMARK    6  A    between atoms: C_10  and  C_11
REMARK    7  A    between atoms: C_11  and  O_12
REMARK    8  A    between atoms: O_12  and  C_13
REMARK    9  A    between atoms: C_15  and  C_16
REMARK                            x       y       z     vdW  Elec       q    Type
REMARK                         _______ _______ _______ _____ _____    ______ ____
ROOT
ATOM      1  C   UNL     1      46.638   4.596  13.801  0.00  0.00    +0.000 C 
ENDROOT
BRANCH   1   6
ATOM      2  C   UNL     1      44.158   3.548  11.283  0.00  0.00    +0.000 A 
ATOM      3  C   UNL     1      43.065   4.342  11.572  0.00  0.00    +0.000 A 
ATOM      4  C   UNL     1      43.203   5.195  12.639  0.00  0.00    +0.000 A 
ATOM      5  N   UNL     1      44.318   5.282  13.386  0.00  0.00    +0.000 NA
ATOM      6  C   UNL     1      45.338   4.470  13.039  0.00  0.00    +0.000 A 
ATOM      7  N   UNL     1      45.297   3.597  12.009  0.00  0.00    +0.000 NA
BRANCH   2   8
ATOM      8  C   UNL     1      44.140   2.634  10.075  0.00  0.00    +0.000 C 
BRANCH   8   9
ATOM      9  N   UNL     1      45.476   2.228   9.601  0.00  0.00    +0.000 NA
ATOM     10  H   UNL     1      46.170   2.784  10.099  0.00  0.00    +0.000 HD
BRANCH   9  12
ATOM     11  C   UNL     1      46.104   3.817   7.767  0.00  0.00    +0.000 C 
ATOM     12  C   UNL     1      45.671   2.401   8.152  0.00  0.00    +0.000 C 
ATOM     13  C   UNL     1      46.734   1.397   7.693  0.00  0.00    +0.000 C 
ENDBRANCH   9  12
ENDBRANCH   8   9
ENDBRANCH   2   8
ENDBRANCH   1   6
BRANCH   1  14
ATOM     14  O   UNL     1      47.142   3.307  14.174  0.00  0.00    +0.000 OA
BRANCH  14  15
ATOM     15  C   UNL     1      47.712   3.323  15.431  0.00  0.00    +0.000 A 
ATOM     16  C   UNL     1      47.317   4.327  16.293  0.00  0.00    +0.000 A 
ATOM     17  C   UNL     1      47.869   4.351  17.579  0.00  0.00    +0.000 A 
ATOM     18  C   UNL     1      48.789   3.369  17.943  0.00  0.00    +0.000 A 
ATOM     19  C   UNL     1      49.120   2.410  17.005  0.00  0.00    +0.000 A 
ATOM     20  N   UNL     1      48.606   2.367  15.763  0.00  0.00    +0.000 NA
BRANCH  17  21
ATOM     21  C   UNL     1      47.438   5.433  18.507  0.00  0.00    +0.000 C 
ATOM     22  N   UNL     1      48.356   6.366  18.904  0.00  0.00    +0.000 N 
ATOM     23  O   UNL     1      46.285   5.502  18.916  0.00  0.00    +0.000 OA
ATOM     24  H   UNL     1      49.323   6.400  18.628  0.00  0.00    +0.000 HD
ATOM     25  H   UNL     1      48.024   7.085  19.534  0.00  0.00    +0.000 HD
ENDBRANCH  17  21
ENDBRANCH  14  15
ENDBRANCH   1  14
TORSDOF 7
ENDMDL
MODEL 5
REMARK VINA RESULT:    -6.923      4.042      7.530
REMARK INTER + INTRA:         -10.203
REMARK INTER:                  -9.698
REMARK INTRA:                  -0.505
REMARK UNBOUND:                -0.446
REMARK  Name = 
REMARK  9 active torsions:
REMARK  status: ('A' for Active; 'I' for Inactive)
REMARK    1  A    between atoms: C_1  and  C_2
REMARK    2  A    between atoms: C_2  and  C_3
REMARK    3  A    between atoms: C_2  and  N_4
REMARK    4  A    between atoms: N_4  and  C_5
REMARK    5  A    between atoms: C_5  and  C_6
REMARK    6  A    between atoms: C_10  and  C_11
REMARK    7  A    between atoms: C_11  and  O_12
REMARK    8  A    between atoms: O_12  and  C_13
REMARK    9  A    between atoms: C_15  and  C_16
REMARK                            x       y       z     vdW  Elec       q    Type
REMARK                         _______ _______ _______ _____ _____    ______ ____
ROOT
ATOM      1  C   UNL     1      47.115   4.169  14.159  0.00  0.00    +0.000 C 
ENDROOT
BRANCH   1   6
ATOM      2  C   UNL     1      45.019   5.168  11.296  0.00  0.00    +0.000 A 
ATOM      3  C   UNL     1      45.045   6.548  11.357  0.00  0.00    +0.000 A 
ATOM      4  C   UNL     1      45.760   7.095  12.395  0.00  0.00    +0.000 A 
ATOM      5  N   UNL     1      46.409   6.365  13.320  0.00  0.00    +0.000 NA
ATOM      6  C   UNL     1      46.331   5.024  13.190  0.00  0.00    +0.000 A 
ATOM      7  N   UNL     1      45.652   4.394  12.206  0.00  0.00    +0.000 NA
BRANCH   2   8
ATOM      8  C   UNL     1      44.331   4.469  10.143  0.00  0.00    +0.000 C 
BRANCH   8   9
ATOM      9  N   UNL     1      44.922   4.750   8.822  0.00  0.00    +0.000 NA
ATOM     10  H   UNL     1      44.291   5.374   8.320  0.00  0.00    +0.000 HD
BRANCH   9  12
ATOM     11  C   UNL     1      46.481   3.586   7.242  0.00  0.00    +0.000 C 
ATOM     12  C   UNL     1      45.157   3.547   8.006  0.00  0.00    +0.000 C 
ATOM     13  C   UNL     1      45.139   2.331   8.939  0.00  0.00    +0.000 C 
ENDBRANCH   9  12
ENDBRANCH   8   9
ENDBRANCH   2   8
ENDBRANCH   1   6
BRANCH   1  14
ATOM     14  O   UNL     1      46.396   3.993  15.387  0.00  0.00    +0.000 OA
BRANCH  14  15
ATOM     15  C   UNL     1      47.244   3.952  16.476  0.00  0.00    +0.000 A 
ATOM     16  C   UNL     1      48.376   3.168  16.369  0.00  0.00    +0.000 A 
ATOM     17  C   UNL     1      49.258   3.126  17.455  0.00  0.00    +0.000 A 
ATOM     18  C   UNL     1      48.967   3.872  18.596  0.00  0.00    +0.000 A 
ATOM     19  C   UNL     1      47.807   4.623  18.604  0.00  0.00    +0.000 A 
ATOM     20  N   UNL     1      46.943   4.677  17.575  0.00  0.00    +0.000 NA
BRANCH  17  21
ATOM     21  C   UNL     1      50.478   2.282  17.335  0.00  0.00    +0.000 C 
ATOM     22  N   UNL     1      51.566   2.582  18.109  0.00  0.00    +0.000 N 
ATOM     23  O   UNL     1      50.524   1.331  16.563  0.00  0.00    +0.000 OA
ATOM     24  H   UNL     1      51.632   3.336  18.771  0.00  0.00    +0.000 HD
ATOM     25  H   UNL     1      52.376   1.984  17.997  0.00  0.00    +0.000 HD
ENDBRANCH  17  21
ENDBRANCH  14  15
ENDBRANCH   1  14
TORSDOF 7
ENDMDL
MODEL 6
REMARK VINA RESULT:    -6.617      4.648      7.282
REMARK INTER + INTRA:          -9.770
REMARK INTER:                  -9.197
REMARK INTRA:                  -0.573
REMARK UNBOUND:                -0.446
REMARK  Name = 
REMARK  9 active torsions:
REMARK  status: ('A' for Active; 'I' for Inactive)
REMARK    1  A    between atoms: C_1  and  C_2
REMARK    2  A    between atoms: C_2  and  C_3
REMARK    3  A    between atoms: C_2  and  N_4
REMARK    4  A    between atoms: N_4  and  C_5
REMARK    5  A    between atoms: C_5  and  C_6
REMARK    6  A    between atoms: C_10  and  C_11
REMARK    7  A    between atoms: C_11  and  O_12
REMARK    8  A    between atoms: O_12  and  C_13
REMARK    9  A    between atoms: C_15  and  C_16
REMARK                            x       y       z     vdW  Elec       q    Type
REMARK                         _______ _______ _______ _____ _____    ______ ____
ROOT
ATOM      1  C   UNL     1      46.912   4.697  14.651  0.00  0.00    +0.000 C 
ENDROOT
BRANCH   1   6
ATOM      2  C   UNL     1      49.301   4.032  17.379  0.00  0.00    +0.000 A 
ATOM      3  C   UNL     1      48.593   3.191  18.216  0.00  0.00    +0.000 A 
ATOM      4  C   UNL     1      47.307   2.897  17.831  0.00  0.00    +0.000 A 
ATOM      5  N   UNL     1      46.733   3.381  16.716  0.00  0.00    +0.000 NA
ATOM      6  C   UNL     1      47.491   4.199  15.956  0.00  0.00    +0.000 A 
ATOM      7  N   UNL     1      48.763   4.547  16.251  0.00  0.00    +0.000 NA
BRANCH   2   8
ATOM      8  C   UNL     1      50.753   4.350  17.668  0.00  0.00    +0.000 C 
BRANCH   8   9
ATOM      9  N   UNL     1      51.424   3.376  18.549  0.00  0.00    +0.000 NA
ATOM     10  H   UNL     1      51.874   3.892  19.305  0.00  0.00    +0.000 HD
BRANCH   9  12
ATOM     11  C   UNL     1      53.680   2.297  18.712  0.00  0.00    +0.000 C 
ATOM     12  C   UNL     1      52.433   2.551  17.864  0.00  0.00    +0.000 C 
ATOM     13  C   UNL     1      51.782   1.213  17.496  0.00  0.00    +0.000 C 
ENDBRANCH   9  12
ENDBRANCH   8   9
ENDBRANCH   2   8
ENDBRANCH   1   6
BRANCH   1  14
ATOM     14  O   UNL     1      46.307   3.626  13.916  0.00  0.00    +0.000 OA
BRANCH  14  15
ATOM     15  C   UNL     1      45.319   4.082  13.066  0.00  0.00    +0.000 A 
ATOM     16  C   UNL     1      45.339   5.422  12.730  0.00  0.00    +0.000 A 
ATOM     17  C   UNL     1      44.358   5.901  11.855  0.00  0.00    +0.000 A 
ATOM     18  C   UNL     1      43.402   5.017  11.356  0.00  0.00    +0.000 A 
ATOM     19  C   UNL     1      43.466   3.696  11.756  0.00  0.00    +0.000 A 
ATOM     20  N   UNL     1      44.398   3.213  12.597  0.00  0.00    +0.000 NA
BRANCH  17  21
ATOM     21  C   UNL     1      44.385   7.345  11.493  0.00  0.00    +0.000 C 
ATOM     22  N   UNL     1      43.264   7.910  10.950  0.00  0.00    +0.000 N 
ATOM     23  O   UNL     1      45.386   8.029  11.673  0.00  0.00    +0.000 OA
ATOM     24  H   UNL     1      42.395   7.439  10.762  0.00  0.00    +0.000 HD
ATOM     25  H   UNL     1      43.323   8.893  10.718  0.00  0.00    +0.000 HD
ENDBRANCH  17  21
ENDBRANCH  14  15
ENDBRANCH   1  14
TORSDOF 7
ENDMDL
MODEL 7
REMARK VINA RESULT:    -6.271      3.776      5.078
REMARK INTER + INTRA:          -9.284
REMARK INTER:                  -8.775
REMARK INTRA:                  -0.509
REMARK UNBOUND:                -0.446
REMARK  Name = 
REMARK  9 active torsions:
REMARK  status: ('A' for Active; 'I' for Inactive)
REMARK    1  A    between atoms: C_1  and  C_2
REMARK    2  A    between atoms: C_2  and  C_3
REMARK    3  A    between atoms: C_2  and  N_4
REMARK    4  A    between atoms: N_4  and  C_5
REMARK    5  A    between atoms: C_5  and  C_6
REMARK    6  A    between atoms: C_10  and  C_11
REMARK    7  A    between atoms: C_11  and  O_12
REMARK    8  A    between atoms: O_12  and  C_13
REMARK    9  A    between atoms: C_15  and  C_16
REMARK                            x       y       z     vdW  Elec       q    Type
REMARK                         _______ _______ _______ _____ _____    ______ ____
ROOT
ATOM      1  C   UNL     1      46.791   4.037  13.875  0.00  0.00    +0.000 C 
ENDROOT
BRANCH   1   6
ATOM      2  C   UNL     1      48.578   4.934  16.973  0.00  0.00    +0.000 A 
ATOM      3  C   UNL     1      49.008   3.710  17.449  0.00  0.00    +0.000 A 
ATOM      4  C   UNL     1      48.650   2.612  16.707  0.00  0.00    +0.000 A 
ATOM      5  N   UNL     1      47.922   2.679  15.578  0.00  0.00    +0.000 NA
ATOM      6  C   UNL     1      47.539   3.910  15.183  0.00  0.00    +0.000 A 
ATOM      7  N   UNL     1      47.840   5.049  15.846  0.00  0.00    +0.000 NA
BRANCH   2   8
ATOM      8  C   UNL     1      48.990   6.213  17.670  0.00  0.00    +0.000 C 
BRANCH   8   9
ATOM      9  N   UNL     1      48.338   7.427  17.146  0.00  0.00    +0.000 NA
ATOM     10  H   UNL     1      48.775   7.661  16.256  0.00  0.00    +0.000 HD
BRANCH   9  12
ATOM     11  C   UNL     1      47.307   8.640  19.083  0.00  0.00    +0.000 C 
ATOM     12  C   UNL     1      48.432   8.588  18.047  0.00  0.00    +0.000 C 
ATOM     13  C   UNL     1      49.785   8.525  18.763  0.00  0.00    +0.000 C 
ENDBRANCH   9  12
ENDBRANCH   8   9
ENDBRANCH   2   8
ENDBRANCH   1   6
BRANCH   1  14
ATOM     14  O   UNL     1      46.013   5.241  13.843  0.00  0.00    +0.000 OA
BRANCH  14  15
ATOM     15  C   UNL     1      45.053   5.205  12.852  0.00  0.00    +0.000 A 
ATOM     16  C   UNL     1      45.482   4.961  11.562  0.00  0.00    +0.000 A 
ATOM     17  C   UNL     1      44.523   4.903  10.544  0.00  0.00    +0.000 A 
ATOM     18  C   UNL     1      43.179   5.089  10.865  0.00  0.00    +0.000 A 
ATOM     19  C   UNL     1      42.854   5.330  12.186  0.00  0.00    +0.000 A 
ATOM     20  N   UNL     1      43.757   5.394  13.181  0.00  0.00    +0.000 NA
BRANCH  17  21
ATOM     21  C   UNL     1      44.990   4.637   9.155  0.00  0.00    +0.000 C 
ATOM     22  N   UNL     1      44.299   3.739   8.388  0.00  0.00    +0.000 N 
ATOM     23  O   UNL     1      45.973   5.204   8.692  0.00  0.00    +0.000 OA
ATOM     24  H   UNL     1      43.483   3.222   8.671  0.00  0.00    +0.000 HD
ATOM     25  H   UNL     1      44.648   3.586   7.451  0.00  0.00    +0.000 HD
ENDBRANCH  17  21
ENDBRANCH  14  15
ENDBRANCH   1  14
TORSDOF 7
ENDMDL
MODEL 8
REMARK VINA RESULT:    -6.173      3.378      5.871
REMARK INTER + INTRA:          -9.146
REMARK INTER:                  -8.554
REMARK INTRA:                  -0.591
REMARK UNBOUND:                -0.446
REMARK  Name = 
REMARK  9 active torsions:
REMARK  status: ('A' for Active; 'I' for Inactive)
REMARK    1  A    between atoms: C_1  and  C_2
REMARK    2  A    between atoms: C_2  and  C_3
REMARK    3  A    between atoms: C_2  and  N_4
REMARK    4  A    between atoms: N_4  and  C_5
REMARK    5  A    between atoms: C_5  and  C_6
REMARK    6  A    between atoms: C_10  and  C_11
REMARK    7  A    between atoms: C_11  and  O_12
REMARK    8  A    between atoms: O_12  and  C_13
REMARK    9  A    between atoms: C_15  and  C_16
REMARK                            x       y       z     vdW  Elec       q    Type
REMARK                         _______ _______ _______ _____ _____    ______ ____
ROOT
ATOM      1  C   UNL     1      47.318   6.334  12.504  0.00  0.00    +0.000 C 
ENDROOT
BRANCH   1   6
ATOM      2  C   UNL     1      48.567   6.064  15.962  0.00  0.00    +0.000 A 
ATOM      3  C   UNL     1      49.057   7.330  16.216  0.00  0.00    +0.000 A 
ATOM      4  C   UNL     1      48.967   8.232  15.184  0.00  0.00    +0.000 A 
ATOM      5  N   UNL     1      48.443   7.940  13.981  0.00  0.00    +0.000 NA
ATOM      6  C   UNL     1      47.990   6.680  13.813  0.00  0.00    +0.000 A 
ATOM      7  N   UNL     1      48.036   5.723  14.767  0.00  0.00    +0.000 NA
BRANCH   2   8
ATOM      8  C   UNL     1      48.540   5.021  17.060  0.00  0.00    +0.000 C 
BRANCH   8   9
ATOM      9  N   UNL     1      49.029   3.692  16.646  0.00  0.00    +0.000 NA
ATOM     10  H   UNL     1      48.230   3.059  16.611  0.00  0.00    +0.000 HD
BRANCH   9  12
ATOM     11  C   UNL     1      50.633   1.808  17.040  0.00  0.00    +0.000 C 
ATOM     12  C   UNL     1      50.050   3.128  17.545  0.00  0.00    +0.000 C 
ATOM     13  C   UNL     1      51.172   4.160  17.696  0.00  0.00    +0.000 C 
ENDBRANCH   9  12
ENDBRANCH   8   9
ENDBRANCH   2   8
ENDBRANCH   1   6
BRANCH   1  14
ATOM     14  O   UNL     1      45.955   6.778  12.493  0.00  0.00    +0.000 OA
BRANCH  14  15
ATOM     15  C   UNL     1      45.078   5.737  12.265  0.00  0.00    +0.000 A 
ATOM     16  C   UNL     1      45.160   5.095  11.045  0.00  0.00    +0.000 A 
ATOM     17  C   UNL     1      44.292   4.025  10.799  0.00  0.00    +0.000 A 
ATOM     18  C   UNL     1      43.383   3.647  11.786  0.00  0.00    +0.000 A 
ATOM     19  C   UNL     1      43.378   4.356  12.972  0.00  0.00    +0.000 A 
ATOM     20  N   UNL     1      44.200   5.389  13.230  0.00  0.00    +0.000 NA
BRANCH  17  21
ATOM     21  C   UNL     1      44.386   3.333   9.484  0.00  0.00    +0.000 C 
ATOM     22  N   UNL     1      44.190   4.060   8.341  0.00  0.00    +0.000 N 
ATOM     23  O   UNL     1      44.636   2.136   9.409  0.00  0.00    +0.000 OA
ATOM     24  H   UNL     1      43.980   5.043   8.293  0.00  0.00    +0.000 HD
ATOM     25  H   UNL     1      44.262   3.553   7.468  0.00  0.00    +0.000 HD
ENDBRANCH  17  21
ENDBRANCH  14  15
ENDBRANCH   1  14
TORSDOF 7
ENDMDL
MODEL 9
REMARK VINA RESULT:    -6.172      4.953      8.107
REMARK INTER + INTRA:          -9.144
REMARK INTER:                  -8.543
REMARK INTRA:                  -0.602
REMARK UNBOUND:                -0.446
REMARK  Name = 
REMARK  9 active torsions:
REMARK  status: ('A' for Active; 'I' for Inactive)
REMARK    1  A    between atoms: C_1  and  C_2
REMARK    2  A    between atoms: C_2  and  C_3
REMARK    3  A    between atoms: C_2  and  N_4
REMARK    4  A    between atoms: N_4  and  C_5
REMARK    5  A    between atoms: C_5  and  C_6
REMARK    6  A    between atoms: C_10  and  C_11
REMARK    7  A    between atoms: C_11  and  O_12
REMARK    8  A    between atoms: O_12  and  C_13
REMARK    9  A    between atoms: C_15  and  C_16
REMARK                            x       y       z     vdW  Elec       q    Type
REMARK                         _______ _______ _______ _____ _____    ______ ____
ROOT
ATOM      1  C   UNL     1      47.450   3.838  15.993  0.00  0.00    +0.000 C 
ENDROOT
BRANCH   1   6
ATOM      2  C   UNL     1      45.685   4.692  12.870  0.00  0.00    +0.000 A 
ATOM      3  C   UNL     1      46.383   5.792  12.409  0.00  0.00    +0.000 A 
ATOM      4  C   UNL     1      47.422   6.223  13.196  0.00  0.00    +0.000 A 
ATOM      5  N   UNL     1      47.772   5.639  14.356  0.00  0.00    +0.000 NA
ATOM      6  C   UNL     1      47.038   4.574  14.737  0.00  0.00    +0.000 A 
ATOM      7  N   UNL     1      45.997   4.077  14.033  0.00  0.00    +0.000 NA
BRANCH   2   8
ATOM      8  C   UNL     1      44.576   4.086  12.036  0.00  0.00    +0.000 C 
BRANCH   8   9
ATOM      9  N   UNL     1      44.967   2.870  11.300  0.00  0.00    +0.000 NA
ATOM     10  H   UNL     1      45.869   2.559  11.659  0.00  0.00    +0.000 HD
BRANCH   9  12
ATOM     11  C   UNL     1      44.646   1.833   9.040  0.00  0.00    +0.000 C 
ATOM     12  C   UNL     1      45.070   3.064   9.843  0.00  0.00    +0.000 C 
ATOM     13  C   UNL     1      44.188   4.256   9.460  0.00  0.00    +0.000 C 
ENDBRANCH   9  12
ENDBRANCH   8   9
ENDBRANCH   2   8
ENDBRANCH   1   6
BRANCH   1  14
ATOM     14  O   UNL     1      47.729   4.756  17.057  0.00  0.00    +0.000 OA
BRANCH  14  15
ATOM     15  C   UNL     1      49.030   4.641  17.505  0.00  0.00    +0.000 A 
ATOM     16  C   UNL     1      49.662   3.428  17.314  0.00  0.00    +0.000 A 
ATOM     17  C   UNL     1      50.987   3.295  17.745  0.00  0.00    +0.000 A 
ATOM     18  C   UNL     1      51.618   4.383  18.345  0.00  0.00    +0.000 A 
ATOM     19  C   UNL     1      50.898   5.553  18.493  0.00  0.00    +0.000 A 
ATOM     20  N   UNL     1      49.623   5.704  18.090  0.00  0.00    +0.000 NA
BRANCH  17  21
ATOM     21  C   UNL     1      51.665   1.986  17.533  0.00  0.00    +0.000 C 
ATOM     22  N   UNL     1      52.985   1.866  17.871  0.00  0.00    +0.000 N 
ATOM     23  O   UNL     1      51.065   1.025  17.067  0.00  0.00    +0.000 OA
ATOM     24  H   UNL     1      53.566   2.591  18.258  0.00  0.00    +0.000 HD
ATOM     25  H   UNL     1      53.410   0.961  17.712  0.00  0.00    +0.000 HD
ENDBRANCH  17  21
ENDBRANCH  14  15
ENDBRANCH   1  14
TORSDOF 7
ENDMDL
