MODEL 1
REMARK VINA RESULT:    -7.774      0.000      0.000
REMARK INTER + INTRA:         -10.295
REMARK INTER:                  -9.819
REMARK INTRA:                  -0.475
REMARK UNBOUND:                -0.475
REMARK  Name = 
REMARK  5 active torsions:
REMARK  status: ('A' for Active; 'I' for Inactive)
REMARK    1  A    between atoms: N_1  and  C_2
REMARK    2  A    between atoms: C_2  and  C_3
REMARK    3  A    between atoms: C_3  and  C_4
REMARK    4  A    between atoms: C_7  and  C_8
REMARK    5  A    between atoms: C_8  and  N_9
REMARK                            x       y       z     vdW  Elec       q    Type
REMARK                         _______ _______ _______ _____ _____    ______ ____
ROOT
ATOM      1  C   UNL     1      45.870   2.968   7.908  0.00  0.00    +0.000 A 
ATOM      2  C   UNL     1      45.247   2.249   8.936  0.00  0.00    +0.000 A 
ATOM      3  C   UNL     1      44.784   2.902  10.082  0.00  0.00    +0.000 A 
ATOM      4  C   UNL     1      44.929   4.288  10.222  0.00  0.00    +0.000 A 
ATOM      5  C   UNL     1      45.537   5.008   9.184  0.00  0.00    +0.000 A 
ATOM      6  C   UNL     1      45.995   4.356   8.035  0.00  0.00    +0.000 A 
ENDROOT
BRANCH   1   7
ATOM      7  C   UNL     1      46.415   2.255   6.694  0.00  0.00    +0.000 C 
BRANCH   7   8
ATOM      8  C   UNL     1      47.870   1.808   6.867  0.00  0.00    +0.000 C 
BRANCH   8   9
ATOM      9  N   UNL     1      48.573   1.817   5.585  0.00  0.00    +0.000 NA
ATOM     10  H   UNL     1      47.979   1.399   4.869  0.00  0.00    +0.000 HD
ATOM     11  H   UNL     1      49.403   1.227   5.643  0.00  0.00    +0.000 HD
ENDBRANCH   8   9
ENDBRANCH   7   8
ENDBRANCH   1   7
BRANCH   4  12
ATOM     12  C   UNL     1      44.438   5.002  11.458  0.00  0.00    +0.000 C 
BRANCH  12  13
ATOM     13  N   UNL     1      45.449   5.091  12.504  0.00  0.00    +0.000 N 
ATOM     14  N   UNL     1      45.462   4.162  13.494  0.00  0.00    +0.000 NA
ATOM     15  C   UNL     1      46.597   4.424  14.151  0.00  0.00    +0.000 A 
ATOM     16  C   UNL     1      47.319   5.490  13.584  0.00  0.00    +0.000 A 
ATOM     17  N   UNL     1      48.516   6.032  13.917  0.00  0.00    +0.000 NA
ATOM     18  C   UNL     1      48.911   7.046  13.119  0.00  0.00    +0.000 A 
ATOM     19  C   UNL     1      48.195   7.552  12.040  0.00  0.00    +0.000 A 
ATOM     20  C   UNL     1      46.964   6.988  11.710  0.00  0.00    +0.000 A 
ATOM     21  C   UNL     1      46.545   5.925  12.515  0.00  0.00    +0.000 A 
ENDBRANCH  12  13
ENDBRANCH   4  12
TORSDOF 5
ENDMDL
MODEL 2
REMARK VINA RESULT:    -7.373      1.496      2.082
REMARK INTER + INTRA:          -9.788
REMARK INTER:                  -9.287
REMARK INTRA:                  -0.501
REMARK UNBOUND:                -0.475
REMARK  Name = 
REMARK  5 active torsions:
REMARK  status: ('A' for Active; 'I' for Inactive)
REMARK    1  A    between atoms: N_1  and  C_2
REMARK    2  A    between atoms: C_2  and  C_3
REMARK    3  A    between atoms: C_3  and  C_4
REMARK    4  A    between atoms: C_7  and  C_8
REMARK    5  A    between atoms: C_8  and  N_9
REMARK                            x       y       z     vdW  Elec       q    Type
REMARK                         _______ _______ _______ _____ _____    ______ ____
ROOT
ATOM      1  C   UNL     1      46.095   2.367   7.832  0.00  0.00    +0.000 A 
ATOM      2  C   UNL     1      46.156   3.766   7.818  0.00  0.00    +0.000 A 
ATOM      3  C   UNL     1      45.403   4.520   8.722  0.00  0.00    +0.000 A 
ATOM      4  C   UNL     1      44.577   3.891   9.663  0.00  0.00    +0.000 A 
ATOM      5  C   UNL     1      44.531   2.490   9.687  0.00  0.00    +0.000 A 
ATOM      6  C   UNL     1      45.289   1.735   8.786  0.00  0.00    +0.000 A 
ENDROOT
BRANCH   1   7
ATOM      7  C   UNL     1      46.869   1.554   6.821  0.00  0.00    +0.000 C 
BRANCH   7   8
ATOM      8  C   UNL     1      48.218   2.182   6.458  0.00  0.00    +0.000 C 
BRANCH   8   9
ATOM      9  N   UNL     1      48.269   2.519   5.035  0.00  0.00    +0.000 NA
ATOM     10  H   UNL     1      48.139   3.524   4.920  0.00  0.00    +0.000 HD
ATOM     11  H   UNL     1      47.490   2.076   4.549  0.00  0.00    +0.000 HD
ENDBRANCH   8   9
ENDBRANCH   7   8
ENDBRANCH   1   7
BRANCH   4  12
ATOM     12  C   UNL     1      43.756   4.697  10.640  0.00  0.00    +0.000 C 
BRANCH  12  13
ATOM     13  N   UNL     1      44.556   5.289  11.704  0.00  0.00    +0.000 N 
ATOM     14  N   UNL     1      45.265   4.478  12.530  0.00  0.00    +0.000 NA
ATOM     15  C   UNL     1      46.009   5.332  13.241  0.00  0.00    +0.000 A 
ATOM     16  C   UNL     1      45.803   6.672  12.869  0.00  0.00    +0.000 A 
ATOM     17  N   UNL     1      46.380   7.818  13.307  0.00  0.00    +0.000 NA
ATOM     18  C   UNL     1      45.940   8.935  12.693  0.00  0.00    +0.000 A 
ATOM     19  C   UNL     1      44.971   8.983  11.698  0.00  0.00    +0.000 A 
ATOM     20  C   UNL     1      44.382   7.798  11.258  0.00  0.00    +0.000 A 
ATOM     21  C   UNL     1      44.837   6.627  11.872  0.00  0.00    +0.000 A 
ENDBRANCH  12  13
ENDBRANCH   4  12
TORSDOF 5
ENDMDL
MODEL 3
REMARK VINA RESULT:    -7.249      1.503      2.377
REMARK INTER + INTRA:          -9.631
REMARK INTER:                  -9.151
REMARK INTRA:                  -0.479
REMARK UNBOUND:                -0.475
REMARK  Name = 
REMARK  5 active torsions:
REMARK  status: ('A' for Active; 'I' for Inactive)
REMARK    1  A    between atoms: N_1  and  C_2
REMARK    2  A    between atoms: C_2  and  C_3
REMARK    3  A    between atoms: C_3  and  C_4
REMARK    4  A    between atoms: C_7  and  C_8
REMARK    5  A    between atoms: C_8  and  N_9
REMARK                            x       y       z     vdW  Elec       q    Type
REMARK                         _______ _______ _______ _____ _____    ______ ____
ROOT
ATOM      1  C   UNL     1      46.115   2.221   7.823  0.00  0.00    +0.000 A 
ATOM      2  C   UNL     1      46.217   3.615   7.748  0.00  0.00    +0.000 A 
ATOM      3  C   UNL     1      45.474   4.431   8.606  0.00  0.00    +0.000 A 
ATOM      4  C   UNL     1      44.617   3.869   9.561  0.00  0.00    +0.000 A 
ATOM      5  C   UNL     1      44.530   2.472   9.647  0.00  0.00    +0.000 A 
ATOM      6  C   UNL     1      45.277   1.656   8.792  0.00  0.00    +0.000 A 
ENDROOT
BRANCH   1   7
ATOM      7  C   UNL     1      46.879   1.342   6.861  0.00  0.00    +0.000 C 
BRANCH   7   8
ATOM      8  C   UNL     1      48.264   1.899   6.515  0.00  0.00    +0.000 C 
BRANCH   8   9
ATOM      9  N   UNL     1      48.347   2.237   5.094  0.00  0.00    +0.000 NA
ATOM     10  H   UNL     1      49.059   2.955   4.958  0.00  0.00    +0.000 HD
ATOM     11  H   UNL     1      47.467   2.649   4.786  0.00  0.00    +0.000 HD
ENDBRANCH   8   9
ENDBRANCH   7   8
ENDBRANCH   1   7
BRANCH   4  12
ATOM     12  C   UNL     1      43.806   4.741  10.489  0.00  0.00    +0.000 C 
BRANCH  12  13
ATOM     13  N   UNL     1      44.630   5.518  11.405  0.00  0.00    +0.000 N 
ATOM     14  N   UNL     1      44.438   6.858  11.497  0.00  0.00    +0.000 NA
ATOM     15  C   UNL     1      45.204   7.213  12.534  0.00  0.00    +0.000 A 
ATOM     16  C   UNL     1      45.865   6.118  13.121  0.00  0.00    +0.000 A 
ATOM     17  N   UNL     1      46.685   6.044  14.197  0.00  0.00    +0.000 NA
ATOM     18  C   UNL     1      47.121   4.800  14.483  0.00  0.00    +0.000 A 
ATOM     19  C   UNL     1      46.807   3.650  13.770  0.00  0.00    +0.000 A 
ATOM     20  C   UNL     1      45.965   3.739  12.662  0.00  0.00    +0.000 A 
ATOM     21  C   UNL     1      45.490   5.018  12.359  0.00  0.00    +0.000 A 
ENDBRANCH  12  13
ENDBRANCH   4  12
TORSDOF 5
ENDMDL
MODEL 4
REMARK VINA RESULT:    -5.960      2.216      5.691
REMARK INTER + INTRA:          -8.004
REMARK INTER:                  -7.560
REMARK INTRA:                  -0.444
REMARK UNBOUND:                -0.475
REMARK  Name = 
REMARK  5 active torsions:
REMARK  status: ('A' for Active; 'I' for Inactive)
REMARK    1  A    between atoms: N_1  and  C_2
REMARK    2  A    between atoms: C_2  and  C_3
REMARK    3  A    between atoms: C_3  and  C_4
REMARK    4  A    between atoms: C_7  and  C_8
REMARK    5  A    between atoms: C_8  and  N_9
REMARK                            x       y       z     vdW  Elec       q    Type
REMARK                         _______ _______ _______ _____ _____    ______ ____
ROOT
ATOM      1  C   UNL     1      48.430   7.512  12.655  0.00  0.00    +0.000 A 
ATOM      2  C   UNL     1      48.085   6.217  13.061  0.00  0.00    +0.000 A 
ATOM      3  C   UNL     1      46.760   5.778  12.991  0.00  0.00    +0.000 A 
ATOM      4  C   UNL     1      45.753   6.624  12.508  0.00  0.00    +0.000 A 
ATOM      5  C   UNL     1      46.104   7.913  12.085  0.00  0.00    +0.000 A 
ATOM      6  C   UNL     1      47.430   8.351  12.150  0.00  0.00    +0.000 A 
ENDROOT
BRANCH   1   7
ATOM      7  C   UNL     1      49.854   8.002  12.779  0.00  0.00    +0.000 C 
BRANCH   7   8
ATOM      8  C   UNL     1      50.519   8.256  11.423  0.00  0.00    +0.000 C 
BRANCH   8   9
ATOM      9  N   UNL     1      51.711   7.423  11.264  0.00  0.00    +0.000 NA
ATOM     10  H   UNL     1      51.932   6.975  12.154  0.00  0.00    +0.000 HD
ATOM     11  H   UNL     1      52.513   8.009  11.035  0.00  0.00    +0.000 HD
ENDBRANCH   8   9
ENDBRANCH   7   8
ENDBRANCH   1   7
BRANCH   4  12
ATOM     12  C   UNL     1      44.318   6.161  12.433  0.00  0.00    +0.000 C 
BRANCH  12  13
ATOM     13  N   UNL     1      44.185   4.794  11.948  0.00  0.00    +0.000 N 
ATOM     14  N   UNL     1      43.483   3.895  12.683  0.00  0.00    +0.000 NA
ATOM     15  C   UNL     1      43.403   2.829  11.878  0.00  0.00    +0.000 A 
ATOM     16  C   UNL     1      44.023   3.041  10.634  0.00  0.00    +0.000 A 
ATOM     17  N   UNL     1      44.126   2.244   9.542  0.00  0.00    +0.000 NA
ATOM     18  C   UNL     1      44.784   2.801   8.504  0.00  0.00    +0.000 A 
ATOM     19  C   UNL     1      45.346   4.071   8.491  0.00  0.00    +0.000 A 
ATOM     20  C   UNL     1      45.236   4.880   9.621  0.00  0.00    +0.000 A 
ATOM     21  C   UNL     1      44.543   4.327  10.702  0.00  0.00    +0.000 A 
ENDBRANCH  12  13
ENDBRANCH   4  12
TORSDOF 5
ENDMDL
MODEL 5
REMARK VINA RESULT:    -5.895      1.608      1.897
REMARK INTER + INTRA:          -7.921
REMARK INTER:                  -7.546
REMARK INTRA:                  -0.375
REMARK UNBOUND:                -0.475
REMARK  Name = 
REMARK  5 active torsions:
REMARK  status: ('A' for Active; 'I' for Inactive)
REMARK    1  A    between atoms: N_1  and  C_2
REMARK    2  A    between atoms: C_2  and  C_3
REMARK    3  A    between atoms: C_3  and  C_4
REMARK    4  A    between atoms: C_7  and  C_8
REMARK    5  A    between atoms: C_8  and  N_9
REMARK                            x       y       z     vdW  Elec       q    Type
REMARK                         _______ _______ _______ _____ _____    ______ ____
ROOT
ATOM      1  C   UNL     1      45.156   3.664   8.806  0.00  0.00    +0.000 A 
ATOM      2  C   UNL     1      44.501   2.933   9.804  0.00  0.00    +0.000 A 
ATOM      3  C   UNL     1      44.350   3.461  11.090  0.00  0.00    +0.000 A 
ATOM      4  C   UNL     1      44.846   4.734  11.401  0.00  0.00    +0.000 A 
ATOM      5  C   UNL     1      45.485   5.471  10.395  0.00  0.00    +0.000 A 
ATOM      6  C   UNL     1      45.632   4.945   9.108  0.00  0.00    +0.000 A 
ENDROOT
BRANCH   1   7
ATOM      7  C   UNL     1      45.365   3.071   7.432  0.00  0.00    +0.000 C 
BRANCH   7   8
ATOM      8  C   UNL     1      46.751   3.375   6.854  0.00  0.00    +0.000 C 
BRANCH   8   9
ATOM      9  N   UNL     1      47.657   2.244   7.055  0.00  0.00    +0.000 NA
ATOM     10  H   UNL     1      48.523   2.408   6.542  0.00  0.00    +0.000 HD
ATOM     11  H   UNL     1      47.247   1.400   6.658  0.00  0.00    +0.000 HD
ENDBRANCH   8   9
ENDBRANCH   7   8
ENDBRANCH   1   7
BRANCH   4  12
ATOM     12  C   UNL     1      44.692   5.311  12.788  0.00  0.00    +0.000 C 
BRANCH  12  13
ATOM     13  N   UNL     1      45.875   6.033  13.238  0.00  0.00    +0.000 N 
ATOM     14  N   UNL     1      46.905   5.341  13.787  0.00  0.00    +0.000 NA
ATOM     15  C   UNL     1      47.869   6.260  13.906  0.00  0.00    +0.000 A 
ATOM     16  C   UNL     1      47.479   7.522  13.422  0.00  0.00    +0.000 A 
ATOM     17  N   UNL     1      48.162   8.689  13.324  0.00  0.00    +0.000 NA
ATOM     18  C   UNL     1      47.459   9.703  12.777  0.00  0.00    +0.000 A 
ATOM     19  C   UNL     1      46.141   9.632  12.344  0.00  0.00    +0.000 A 
ATOM     20  C   UNL     1      45.449   8.427  12.453  0.00  0.00    +0.000 A 
ATOM     21  C   UNL     1      46.165   7.359  13.002  0.00  0.00    +0.000 A 
ENDBRANCH  12  13
ENDBRANCH   4  12
TORSDOF 5
ENDMDL
MODEL 6
REMARK VINA RESULT:    -5.475      1.961      3.013
REMARK INTER + INTRA:          -7.391
REMARK INTER:                  -7.010
REMARK INTRA:                  -0.380
REMARK UNBOUND:                -0.475
REMARK  Name = 
REMARK  5 active torsions:
REMARK  status: ('A' for Active; 'I' for Inactive)
REMARK    1  A    between atoms: N_1  and  C_2
REMARK    2  A    between atoms: C_2  and  C_3
REMARK    3  A    between atoms: C_3  and  C_4
REMARK    4  A    between atoms: C_7  and  C_8
REMARK    5  A    between atoms: C_8  and  N_9
REMARK                            x       y       z     vdW  Elec       q    Type
REMARK                         _______ _______ _______ _____ _____    ______ ____
ROOT
ATOM      1  C   UNL     1      44.725   3.372   9.813  0.00  0.00    +0.000 A 
ATOM      2  C   UNL     1      45.267   4.629   9.520  0.00  0.00    +0.000 A 
ATOM      3  C   UNL     1      45.326   5.625  10.500  0.00  0.00    +0.000 A 
ATOM      4  C   UNL     1      44.850   5.381  11.794  0.00  0.00    +0.000 A 
ATOM      5  C   UNL     1      44.324   4.115  12.090  0.00  0.00    +0.000 A 
ATOM      6  C   UNL     1      44.270   3.118  11.112  0.00  0.00    +0.000 A 
ENDROOT
BRANCH   1   7
ATOM      7  C   UNL     1      44.614   2.315   8.739  0.00  0.00    +0.000 C 
BRANCH   7   8
ATOM      8  C   UNL     1      45.939   1.593   8.473  0.00  0.00    +0.000 C 
BRANCH   8   9
ATOM      9  N   UNL     1      46.627   2.179   7.322  0.00  0.00    +0.000 NA
ATOM     10  H   UNL     1      46.077   2.016   6.479  0.00  0.00    +0.000 HD
ATOM     11  H   UNL     1      47.517   1.703   7.176  0.00  0.00    +0.000 HD
ENDBRANCH   8   9
ENDBRANCH   7   8
ENDBRANCH   1   7
BRANCH   4  12
ATOM     12  C   UNL     1      44.905   6.451  12.858  0.00  0.00    +0.000 C 
BRANCH  12  13
ATOM     13  N   UNL     1      45.732   7.588  12.479  0.00  0.00    +0.000 N 
ATOM     14  N   UNL     1      45.142   8.789  12.247  0.00  0.00    +0.000 NA
ATOM     15  C   UNL     1      46.179   9.624  12.114  0.00  0.00    +0.000 A 
ATOM     16  C   UNL     1      47.419   8.982  12.280  0.00  0.00    +0.000 A 
ATOM     17  N   UNL     1      48.684   9.468  12.265  0.00  0.00    +0.000 NA
ATOM     18  C   UNL     1      49.641   8.543  12.486  0.00  0.00    +0.000 A 
ATOM     19  C   UNL     1      49.421   7.188  12.704  0.00  0.00    +0.000 A 
ATOM     20  C   UNL     1      48.115   6.699  12.714  0.00  0.00    +0.000 A 
ATOM     21  C   UNL     1      47.108   7.646  12.502  0.00  0.00    +0.000 A 
ENDBRANCH  12  13
ENDBRANCH   4  12
TORSDOF 5
ENDMDL
MODEL 7
REMARK VINA RESULT:    -5.378      4.433      7.671
REMARK INTER + INTRA:          -7.268
REMARK INTER:                  -6.711
REMARK INTRA:                  -0.557
REMARK UNBOUND:                -0.475
REMARK  Name = 
REMARK  5 active torsions:
REMARK  status: ('A' for Active; 'I' for Inactive)
REMARK    1  A    between atoms: N_1  and  C_2
REMARK    2  A    between atoms: C_2  and  C_3
REMARK    3  A    between atoms: C_3  and  C_4
REMARK    4  A    between atoms: C_7  and  C_8
REMARK    5  A    between atoms: C_8  and  N_9
REMARK                            x       y       z     vdW  Elec       q    Type
REMARK                         _______ _______ _______ _____ _____    ______ ____
ROOT
ATOM      1  C   UNL     1      51.289   2.723  17.641  0.00  0.00    +0.000 A 
ATOM      2  C   UNL     1      50.313   1.942  17.010  0.00  0.00    +0.000 A 
ATOM      3  C   UNL     1      49.065   2.483  16.689  0.00  0.00    +0.000 A 
ATOM      4  C   UNL     1      48.769   3.820  16.987  0.00  0.00    +0.000 A 
ATOM      5  C   UNL     1      49.754   4.605  17.602  0.00  0.00    +0.000 A 
ATOM      6  C   UNL     1      51.004   4.065  17.919  0.00  0.00    +0.000 A 
ENDROOT
BRANCH   1   7
ATOM      7  C   UNL     1      52.617   2.122  18.034  0.00  0.00    +0.000 C 
BRANCH   7   8
ATOM      8  C   UNL     1      52.852   0.738  17.420  0.00  0.00    +0.000 C 
BRANCH   8   9
ATOM      9  N   UNL     1      52.726  -0.309  18.433  0.00  0.00    +0.000 NA
ATOM     10  H   UNL     1      51.874  -0.158  18.973  0.00  0.00    +0.000 HD
ATOM     11  H   UNL     1      53.498  -0.242  19.096  0.00  0.00    +0.000 HD
ENDBRANCH   8   9
ENDBRANCH   7   8
ENDBRANCH   1   7
BRANCH   4  12
ATOM     12  C   UNL     1      47.423   4.413  16.649  0.00  0.00    +0.000 C 
BRANCH  12  13
ATOM     13  N   UNL     1      47.259   4.679  15.226  0.00  0.00    +0.000 N 
ATOM     14  N   UNL     1      46.379   3.934  14.509  0.00  0.00    +0.000 NA
ATOM     15  C   UNL     1      46.342   4.552  13.324  0.00  0.00    +0.000 A 
ATOM     16  C   UNL     1      47.166   5.690  13.278  0.00  0.00    +0.000 A 
ATOM     17  N   UNL     1      47.376   6.600  12.295  0.00  0.00    +0.000 NA
ATOM     18  C   UNL     1      48.233   7.589  12.624  0.00  0.00    +0.000 A 
ATOM     19  C   UNL     1      48.891   7.718  13.841  0.00  0.00    +0.000 A 
ATOM     20  C   UNL     1      48.669   6.774  14.843  0.00  0.00    +0.000 A 
ATOM     21  C   UNL     1      47.771   5.750  14.527  0.00  0.00    +0.000 A 
ENDBRANCH  12  13
ENDBRANCH   4  12
TORSDOF 5
ENDMDL
MODEL 8
REMARK VINA RESULT:    -5.188      3.695      7.816
REMARK INTER + INTRA:          -7.027
REMARK INTER:                  -6.541
REMARK INTRA:                  -0.487
REMARK UNBOUND:                -0.475
REMARK  Name = 
REMARK  5 active torsions:
REMARK  status: ('A' for Active; 'I' for Inactive)
REMARK    1  A    between atoms: N_1  and  C_2
REMARK    2  A    between atoms: C_2  and  C_3
REMARK    3  A    between atoms: C_3  and  C_4
REMARK    4  A    between atoms: C_7  and  C_8
REMARK    5  A    between atoms: C_8  and  N_9
REMARK                            x       y       z     vdW  Elec       q    Type
REMARK                         _______ _______ _______ _____ _____    ______ ____
ROOT
ATOM      1  C   UNL     1      48.189   5.669  17.704  0.00  0.00    +0.000 A 
ATOM      2  C   UNL     1      47.498   4.604  17.114  0.00  0.00    +0.000 A 
ATOM      3  C   UNL     1      47.338   4.541  15.726  0.00  0.00    +0.000 A 
ATOM      4  C   UNL     1      47.870   5.540  14.901  0.00  0.00    +0.000 A 
ATOM      5  C   UNL     1      48.578   6.595  15.493  0.00  0.00    +0.000 A 
ATOM      6  C   UNL     1      48.743   6.656  16.880  0.00  0.00    +0.000 A 
ENDROOT
BRANCH   1   7
ATOM      7  C   UNL     1      48.317   5.762  19.206  0.00  0.00    +0.000 C 
BRANCH   7   8
ATOM      8  C   UNL     1      49.202   4.662  19.800  0.00  0.00    +0.000 C 
BRANCH   8   9
ATOM      9  N   UNL     1      48.388   3.628  20.439  0.00  0.00    +0.000 NA
ATOM     10  H   UNL     1      48.449   2.766  19.899  0.00  0.00    +0.000 HD
ATOM     11  H   UNL     1      47.406   3.904  20.422  0.00  0.00    +0.000 HD
ENDBRANCH   8   9
ENDBRANCH   7   8
ENDBRANCH   1   7
BRANCH   4  12
ATOM     12  C   UNL     1      47.698   5.484  13.402  0.00  0.00    +0.000 C 
BRANCH  12  13
ATOM     13  N   UNL     1      46.373   5.906  12.965  0.00  0.00    +0.000 N 
ATOM     14  N   UNL     1      46.134   7.225  12.753  0.00  0.00    +0.000 NA
ATOM     15  C   UNL     1      44.918   7.234  12.195  0.00  0.00    +0.000 A 
ATOM     16  C   UNL     1      44.387   5.943  12.028  0.00  0.00    +0.000 A 
ATOM     17  N   UNL     1      43.223   5.522  11.474  0.00  0.00    +0.000 NA
ATOM     18  C   UNL     1      43.060   4.183  11.468  0.00  0.00    +0.000 A 
ATOM     19  C   UNL     1      43.960   3.256  11.980  0.00  0.00    +0.000 A 
ATOM     20  C   UNL     1      45.151   3.701  12.550  0.00  0.00    +0.000 A 
ATOM     21  C   UNL     1      45.347   5.085  12.551  0.00  0.00    +0.000 A 
ENDBRANCH  12  13
ENDBRANCH   4  12
TORSDOF 5
ENDMDL
MODEL 9
REMARK VINA RESULT:    -5.187      2.222      3.444
REMARK INTER + INTRA:          -7.027
REMARK INTER:                  -6.500
REMARK INTRA:                  -0.527
REMARK UNBOUND:                -0.475
REMARK  Name = 
REMARK  5 active torsions:
REMARK  status: ('A' for Active; 'I' for Inactive)
REMARK    1  A    between atoms: N_1  and  C_2
REMARK    2  A    between atoms: C_2  and  C_3
REMARK    3  A    between atoms: C_3  and  C_4
REMARK    4  A    between atoms: C_7  and  C_8
REMARK    5  A    between atoms: C_8  and  N_9
REMARK                            x       y       z     vdW  Elec       q    Type
REMARK                         _______ _______ _______ _____ _____    ______ ____
ROOT
ATOM      1  C   UNL     1      44.517   4.103  10.839  0.00  0.00    +0.000 A 
ATOM      2  C   UNL     1      44.062   4.370  12.136  0.00  0.00    +0.000 A 
ATOM      3  C   UNL     1      44.438   5.544  12.795  0.00  0.00    +0.000 A 
ATOM      4  C   UNL     1      45.274   6.478  12.168  0.00  0.00    +0.000 A 
ATOM      5  C   UNL     1      45.714   6.216  10.863  0.00  0.00    +0.000 A 
ATOM      6  C   UNL     1      45.333   5.044  10.202  0.00  0.00    +0.000 A 
ENDROOT
BRANCH   1   7
ATOM      7  C   UNL     1      44.151   2.810  10.148  0.00  0.00    +0.000 C 
BRANCH   7   8
ATOM      8  C   UNL     1      44.886   2.615   8.818  0.00  0.00    +0.000 C 
BRANCH   8   9
ATOM      9  N   UNL     1      45.643   1.363   8.821  0.00  0.00    +0.000 NA
ATOM     10  H   UNL     1      46.538   1.510   9.288  0.00  0.00    +0.000 HD
ATOM     11  H   UNL     1      45.863   1.092   7.864  0.00  0.00    +0.000 HD
ENDBRANCH   8   9
ENDBRANCH   7   8
ENDBRANCH   1   7
BRANCH   4  12
ATOM     12  C   UNL     1      45.691   7.746  12.873  0.00  0.00    +0.000 C 
BRANCH  12  13
ATOM     13  N   UNL     1      47.129   7.827  13.095  0.00  0.00    +0.000 N 
ATOM     14  N   UNL     1      47.748   6.844  13.797  0.00  0.00    +0.000 NA
ATOM     15  C   UNL     1      49.047   7.127  13.650  0.00  0.00    +0.000 A 
ATOM     16  C   UNL     1      49.268   8.262  12.849  0.00  0.00    +0.000 A 
ATOM     17  N   UNL     1      50.417   8.847  12.430  0.00  0.00    +0.000 NA
ATOM     18  C   UNL     1      50.238   9.926  11.640  0.00  0.00    +0.000 A 
ATOM     19  C   UNL     1      49.011  10.455  11.260  0.00  0.00    +0.000 A 
ATOM     20  C   UNL     1      47.836   9.846  11.699  0.00  0.00    +0.000 A 
ATOM     21  C   UNL     1      48.001   8.717  12.506  0.00  0.00    +0.000 A 
ENDBRANCH  12  13
ENDBRANCH   4  12
TORSDOF 5
ENDMDL
