MODEL 1
REMARK VINA RESULT:    -8.189      0.000      0.000
REMARK INTER + INTRA:         -10.739
REMARK INTER:                 -10.104
REMARK INTRA:                  -0.635
REMARK UNBOUND:                -0.635
REMARK  Name = 
REMARK  6 active torsions:
REMARK  status: ('A' for Active; 'I' for Inactive)
REMARK    1  A    between atoms: C_1  and  N_2
REMARK    2  A    between atoms: C_3  and  C_5
REMARK    3  A    between atoms: C_8  and  C_9
REMARK    4  A    between atoms: C_9  and  C_10
REMARK    5  A    between atoms: C_9  and  N_11
REMARK    6  A    between atoms: N_11  and  C_12
REMARK                            x       y       z     vdW  Elec       q    Type
REMARK                         _______ _______ _______ _____ _____    ______ ____
ROOT
ATOM      1  C   UNL     1      43.524   4.586  11.271  0.00  0.00    +0.000 C 
ATOM      2  C   UNL     1      42.363   5.465  11.748  0.00  0.00    +0.000 C 
ENDROOT
BRANCH   1   6
ATOM      3  C   UNL     1      46.964   5.589  13.595  0.00  0.00    +0.000 A 
ATOM      4  C   UNL     1      46.387   4.338  13.625  0.00  0.00    +0.000 A 
ATOM      5  N   UNL     1      45.320   3.982  12.870  0.00  0.00    +0.000 NA
ATOM      6  C   UNL     1      44.796   4.939  12.070  0.00  0.00    +0.000 A 
ATOM      7  N   UNL     1      45.317   6.181  11.951  0.00  0.00    +0.000 NA
ATOM      8  C   UNL     1      46.377   6.484  12.733  0.00  0.00    +0.000 A 
BRANCH   3  11
ATOM      9  C   UNL     1      49.032   6.149  16.700  0.00  0.00    +0.000 C 
ATOM     10  N   UNL     1      47.960   5.793  15.803  0.00  0.00    +0.000 N 
ATOM     11  C   UNL     1      48.087   6.009  14.447  0.00  0.00    +0.000 C 
ATOM     12  O   UNL     1      49.080   6.510  13.932  0.00  0.00    +0.000 OA
ATOM     13  H   UNL     1      47.214   5.215  16.166  0.00  0.00    +0.000 HD
ENDBRANCH   3  11
ENDBRANCH   1   6
BRANCH   1  14
ATOM     14  N   UNL     1      43.753   4.744   9.813  0.00  0.00    +0.000 N 
ATOM     15  H   UNL     1      43.842   5.731   9.572  0.00  0.00    +0.000 HD
BRANCH  14  16
ATOM     16  C   UNL     1      44.715   3.967   9.156  0.00  0.00    +0.000 A 
ATOM     17  C   UNL     1      45.649   4.610   8.324  0.00  0.00    +0.000 A 
ATOM     18  C   UNL     1      46.600   3.886   7.589  0.00  0.00    +0.000 A 
ATOM     19  C   UNL     1      46.604   2.498   7.643  0.00  0.00    +0.000 A 
ATOM     20 CL   UNL     1      47.769   1.607   6.743  0.00  0.00    +0.000 Cl
ATOM     21  C   UNL     1      45.657   1.846   8.422  0.00  0.00    +0.000 A 
ATOM     22  F   UNL     1      45.614   0.506   8.474  0.00  0.00    +0.000 F 
ATOM     23  C   UNL     1      44.722   2.570   9.166  0.00  0.00    +0.000 A 
ENDBRANCH  14  16
ENDBRANCH   1  14
TORSDOF 4
ENDMDL
MODEL 2
REMARK VINA RESULT:    -7.998      0.983      1.428
REMARK INTER + INTRA:         -10.504
REMARK INTER:                  -9.892
REMARK INTRA:                  -0.612
REMARK UNBOUND:                -0.635
REMARK  Name = 
REMARK  6 active torsions:
REMARK  status: ('A' for Active; 'I' for Inactive)
REMARK    1  A    between atoms: C_1  and  N_2
REMARK    2  A    between atoms: C_3  and  C_5
REMARK    3  A    between atoms: C_8  and  C_9
REMARK    4  A    between atoms: C_9  and  C_10
REMARK    5  A    between atoms: C_9  and  N_11
REMARK    6  A    between atoms: N_11  and  C_12
REMARK                            x       y       z     vdW  Elec       q    Type
REMARK                         _______ _______ _______ _____ _____    ______ ____
ROOT
ATOM      1  C   UNL     1      43.619   4.664  11.414  0.00  0.00    +0.000 C 
ATOM      2  C   UNL     1      42.440   5.484  11.947  0.00  0.00    +0.000 C 
ENDROOT
BRANCH   1   6
ATOM      3  C   UNL     1      47.093   5.787  13.631  0.00  0.00    +0.000 A 
ATOM      4  C   UNL     1      46.516   4.540  13.737  0.00  0.00    +0.000 A 
ATOM      5  N   UNL     1      45.438   4.145  13.017  0.00  0.00    +0.000 NA
ATOM      6  C   UNL     1      44.903   5.058  12.175  0.00  0.00    +0.000 A 
ATOM      7  N   UNL     1      45.423   6.291  11.981  0.00  0.00    +0.000 NA
ATOM      8  C   UNL     1      46.494   6.635  12.730  0.00  0.00    +0.000 A 
BRANCH   3  11
ATOM      9  C   UNL     1      49.158   6.617  16.677  0.00  0.00    +0.000 C 
ATOM     10  N   UNL     1      48.078   6.209  15.813  0.00  0.00    +0.000 N 
ATOM     11  C   UNL     1      48.228   6.251  14.443  0.00  0.00    +0.000 C 
ATOM     12  O   UNL     1      49.250   6.635  13.885  0.00  0.00    +0.000 OA
ATOM     13  H   UNL     1      47.300   5.718  16.232  0.00  0.00    +0.000 HD
ENDBRANCH   3  11
ENDBRANCH   1   6
BRANCH   1  14
ATOM     14  N   UNL     1      43.789   4.856   9.952  0.00  0.00    +0.000 N 
ATOM     15  H   UNL     1      44.011   5.830   9.745  0.00  0.00    +0.000 HD
BRANCH  14  16
ATOM     16  C   UNL     1      44.587   3.979   9.208  0.00  0.00    +0.000 A 
ATOM     17  C   UNL     1      44.523   2.602   9.490  0.00  0.00    +0.000 A 
ATOM     18  C   UNL     1      45.340   1.676   8.825  0.00  0.00    +0.000 A 
ATOM     19  C   UNL     1      46.269   2.119   7.891  0.00  0.00    +0.000 A 
ATOM     20 CL   UNL     1      47.272   0.986   7.074  0.00  0.00    +0.000 Cl
ATOM     21  C   UNL     1      46.378   3.480   7.636  0.00  0.00    +0.000 A 
ATOM     22  F   UNL     1      47.284   3.944   6.763  0.00  0.00    +0.000 F 
ATOM     23  C   UNL     1      45.552   4.398   8.288  0.00  0.00    +0.000 A 
ENDBRANCH  14  16
ENDBRANCH   1  14
TORSDOF 4
ENDMDL
MODEL 3
REMARK VINA RESULT:    -7.718      1.312      1.691
REMARK INTER + INTRA:         -10.158
REMARK INTER:                  -9.658
REMARK INTRA:                  -0.500
REMARK UNBOUND:                -0.635
REMARK  Name = 
REMARK  6 active torsions:
REMARK  status: ('A' for Active; 'I' for Inactive)
REMARK    1  A    between atoms: C_1  and  N_2
REMARK    2  A    between atoms: C_3  and  C_5
REMARK    3  A    between atoms: C_8  and  C_9
REMARK    4  A    between atoms: C_9  and  C_10
REMARK    5  A    between atoms: C_9  and  N_11
REMARK    6  A    between atoms: N_11  and  C_12
REMARK                            x       y       z     vdW  Elec       q    Type
REMARK                         _______ _______ _______ _____ _____    ______ ____
ROOT
ATOM      1  C   UNL     1      44.643   3.340  11.688  0.00  0.00    +0.000 C 
ATOM      2  C   UNL     1      43.323   3.182  12.448  0.00  0.00    +0.000 C 
ENDROOT
BRANCH   1   6
ATOM      3  C   UNL     1      47.247   6.094  13.658  0.00  0.00    +0.000 A 
ATOM      4  C   UNL     1      46.587   6.404  12.489  0.00  0.00    +0.000 A 
ATOM      5  N   UNL     1      45.726   5.564  11.865  0.00  0.00    +0.000 NA
ATOM      6  C   UNL     1      45.546   4.348  12.430  0.00  0.00    +0.000 A 
ATOM      7  N   UNL     1      46.124   3.973  13.593  0.00  0.00    +0.000 NA
ATOM      8  C   UNL     1      46.979   4.846  14.169  0.00  0.00    +0.000 A 
BRANCH   3  11
ATOM      9  C   UNL     1      48.668   9.105  15.432  0.00  0.00    +0.000 C 
ATOM     10  N   UNL     1      47.776   8.202  14.746  0.00  0.00    +0.000 N 
ATOM     11  C   UNL     1      48.226   6.970  14.320  0.00  0.00    +0.000 C 
ATOM     12  O   UNL     1      49.376   6.577  14.478  0.00  0.00    +0.000 OA
ATOM     13  H   UNL     1      46.788   8.413  14.764  0.00  0.00    +0.000 HD
ENDBRANCH   3  11
ENDBRANCH   1   6
BRANCH   1  14
ATOM     14  N   UNL     1      44.408   3.771  10.287  0.00  0.00    +0.000 N 
ATOM     15  H   UNL     1      44.250   4.777  10.246  0.00  0.00    +0.000 HD
BRANCH  14  16
ATOM     16  C   UNL     1      45.258   3.344   9.259  0.00  0.00    +0.000 A 
ATOM     17  C   UNL     1      45.735   4.293   8.338  0.00  0.00    +0.000 A 
ATOM     18  C   UNL     1      46.540   3.924   7.250  0.00  0.00    +0.000 A 
ATOM     19  C   UNL     1      46.847   2.584   7.042  0.00  0.00    +0.000 A 
ATOM     20 CL   UNL     1      47.834   2.127   5.709  0.00  0.00    +0.000 Cl
ATOM     21  C   UNL     1      46.344   1.629   7.915  0.00  0.00    +0.000 A 
ATOM     22  F   UNL     1      46.596   0.325   7.726  0.00  0.00    +0.000 F 
ATOM     23  C   UNL     1      45.557   2.002   9.006  0.00  0.00    +0.000 A 
ENDBRANCH  14  16
ENDBRANCH   1  14
TORSDOF 4
ENDMDL
MODEL 4
REMARK VINA RESULT:    -6.684      3.796      6.354
REMARK INTER + INTRA:          -8.883
REMARK INTER:                  -8.294
REMARK INTRA:                  -0.588
REMARK UNBOUND:                -0.635
REMARK  Name = 
REMARK  6 active torsions:
REMARK  status: ('A' for Active; 'I' for Inactive)
REMARK    1  A    between atoms: C_1  and  N_2
REMARK    2  A    between atoms: C_3  and  C_5
REMARK    3  A    between atoms: C_8  and  C_9
REMARK    4  A    between atoms: C_9  and  C_10
REMARK    5  A    between atoms: C_9  and  N_11
REMARK    6  A    between atoms: N_11  and  C_12
REMARK                            x       y       z     vdW  Elec       q    Type
REMARK                         _______ _______ _______ _____ _____    ______ ____
ROOT
ATOM      1  C   UNL     1      43.632   5.975  11.568  0.00  0.00    +0.000 C 
ATOM      2  C   UNL     1      42.217   5.524  11.944  0.00  0.00    +0.000 C 
ENDROOT
BRANCH   1   6
ATOM      3  C   UNL     1      45.451   3.111   8.974  0.00  0.00    +0.000 A 
ATOM      4  C   UNL     1      44.509   2.764   9.919  0.00  0.00    +0.000 A 
ATOM      5  N   UNL     1      43.889   3.657  10.727  0.00  0.00    +0.000 NA
ATOM      6  C   UNL     1      44.255   4.952  10.595  0.00  0.00    +0.000 A 
ATOM      7  N   UNL     1      45.143   5.387   9.673  0.00  0.00    +0.000 NA
ATOM      8  C   UNL     1      45.737   4.453   8.898  0.00  0.00    +0.000 A 
BRANCH   3  11
ATOM      9  C   UNL     1      47.768   1.792   6.305  0.00  0.00    +0.000 C 
ATOM     10  N   UNL     1      47.000   2.670   7.153  0.00  0.00    +0.000 N 
ATOM     11  C   UNL     1      46.175   2.150   8.127  0.00  0.00    +0.000 C 
ATOM     12  O   UNL     1      46.033   0.948   8.324  0.00  0.00    +0.000 OA
ATOM     13  H   UNL     1      47.231   3.654   7.144  0.00  0.00    +0.000 HD
ENDBRANCH   3  11
ENDBRANCH   1   6
BRANCH   1  14
ATOM     14  N   UNL     1      44.480   6.145  12.774  0.00  0.00    +0.000 N 
ATOM     15  H   UNL     1      44.629   5.246  13.233  0.00  0.00    +0.000 HD
BRANCH  14  16
ATOM     16  C   UNL     1      45.663   6.891  12.713  0.00  0.00    +0.000 A 
ATOM     17  C   UNL     1      45.576   8.281  12.516  0.00  0.00    +0.000 A 
ATOM     18  C   UNL     1      46.722   9.079  12.383  0.00  0.00    +0.000 A 
ATOM     19  C   UNL     1      47.980   8.489  12.404  0.00  0.00    +0.000 A 
ATOM     20 CL   UNL     1      49.388   9.465  12.242  0.00  0.00    +0.000 Cl
ATOM     21  C   UNL     1      48.081   7.112  12.549  0.00  0.00    +0.000 A 
ATOM     22  F   UNL     1      49.279   6.508  12.544  0.00  0.00    +0.000 F 
ATOM     23  C   UNL     1      46.939   6.323  12.698  0.00  0.00    +0.000 A 
ENDBRANCH  14  16
ENDBRANCH   1  14
TORSDOF 4
ENDMDL
MODEL 5
REMARK VINA RESULT:    -6.468      3.778      6.484
REMARK INTER + INTRA:          -8.616
REMARK INTER:                  -8.688
REMARK INTRA:                   0.071
REMARK UNBOUND:                -0.635
REMARK  Name = 
REMARK  6 active torsions:
REMARK  status: ('A' for Active; 'I' for Inactive)
REMARK    1  A    between atoms: C_1  and  N_2
REMARK    2  A    between atoms: C_3  and  C_5
REMARK    3  A    between atoms: C_8  and  C_9
REMARK    4  A    between atoms: C_9  and  C_10
REMARK    5  A    between atoms: C_9  and  N_11
REMARK    6  A    between atoms: N_11  and  C_12
REMARK                            x       y       z     vdW  Elec       q    Type
REMARK                         _______ _______ _______ _____ _____    ______ ____
ROOT
ATOM      1  C   UNL     1      43.340   4.085  11.023  0.00  0.00    +0.000 C 
ATOM      2  C   UNL     1      43.399   3.145  12.230  0.00  0.00    +0.000 C 
ENDROOT
BRANCH   1   6
ATOM      3  C   UNL     1      45.940   2.559   7.997  0.00  0.00    +0.000 A 
ATOM      4  C   UNL     1      45.338   1.749   8.936  0.00  0.00    +0.000 A 
ATOM      5  N   UNL     1      44.480   2.202   9.882  0.00  0.00    +0.000 NA
ATOM      6  C   UNL     1      44.240   3.533   9.898  0.00  0.00    +0.000 A 
ATOM      7  N   UNL     1      44.759   4.396   8.994  0.00  0.00    +0.000 NA
ATOM      8  C   UNL     1      45.614   3.892   8.078  0.00  0.00    +0.000 A 
BRANCH   3  11
ATOM      9  C   UNL     1      48.051   2.506   4.871  0.00  0.00    +0.000 C 
ATOM     10  N   UNL     1      47.089   2.879   5.879  0.00  0.00    +0.000 N 
ATOM     11  C   UNL     1      46.916   2.094   7.000  0.00  0.00    +0.000 C 
ATOM     12  O   UNL     1      47.538   1.058   7.203  0.00  0.00    +0.000 OA
ATOM     13  H   UNL     1      46.699   3.810   5.835  0.00  0.00    +0.000 HD
ENDBRANCH   3  11
ENDBRANCH   1   6
BRANCH   1  14
ATOM     14  N   UNL     1      43.744   5.464  11.396  0.00  0.00    +0.000 N 
ATOM     15  H   UNL     1      43.011   5.913  11.945  0.00  0.00    +0.000 HD
BRANCH  14  16
ATOM     16  C   UNL     1      45.012   5.713  11.934  0.00  0.00    +0.000 A 
ATOM     17  C   UNL     1      45.328   5.177  13.196  0.00  0.00    +0.000 A 
ATOM     18  C   UNL     1      46.557   5.438  13.819  0.00  0.00    +0.000 A 
ATOM     19  C   UNL     1      47.478   6.279  13.206  0.00  0.00    +0.000 A 
ATOM     20 CL   UNL     1      48.986   6.601  13.968  0.00  0.00    +0.000 Cl
ATOM     21  C   UNL     1      47.162   6.854  11.983  0.00  0.00    +0.000 A 
ATOM     22  F   UNL     1      48.016   7.694  11.377  0.00  0.00    +0.000 F 
ATOM     23  C   UNL     1      45.944   6.579  11.356  0.00  0.00    +0.000 A 
ENDBRANCH  14  16
ENDBRANCH   1  14
TORSDOF 4
ENDMDL
MODEL 6
REMARK VINA RESULT:    -5.942      4.136      6.426
REMARK INTER + INTRA:          -7.967
REMARK INTER:                  -7.438
REMARK INTRA:                  -0.529
REMARK UNBOUND:                -0.635
REMARK  Name = 
REMARK  6 active torsions:
REMARK  status: ('A' for Active; 'I' for Inactive)
REMARK    1  A    between atoms: C_1  and  N_2
REMARK    2  A    between atoms: C_3  and  C_5
REMARK    3  A    between atoms: C_8  and  C_9
REMARK    4  A    between atoms: C_9  and  C_10
REMARK    5  A    between atoms: C_9  and  N_11
REMARK    6  A    between atoms: N_11  and  C_12
REMARK                            x       y       z     vdW  Elec       q    Type
REMARK                         _______ _______ _______ _____ _____    ______ ____
ROOT
ATOM      1  C   UNL     1      47.620   4.462  16.680  0.00  0.00    +0.000 C 
ATOM      2  C   UNL     1      47.166   5.059  18.015  0.00  0.00    +0.000 C 
ENDROOT
BRANCH   1   6
ATOM      3  C   UNL     1      51.249   2.315  17.361  0.00  0.00    +0.000 A 
ATOM      4  C   UNL     1      50.139   1.734  16.786  0.00  0.00    +0.000 A 
ATOM      5  N   UNL     1      48.990   2.401  16.523  0.00  0.00    +0.000 NA
ATOM      6  C   UNL     1      48.949   3.705  16.882  0.00  0.00    +0.000 A 
ATOM      7  N   UNL     1      50.001   4.365  17.419  0.00  0.00    +0.000 NA
ATOM      8  C   UNL     1      51.120   3.649  17.666  0.00  0.00    +0.000 A 
BRANCH   3  11
ATOM      9  C   UNL     1      53.515  -0.485  18.482  0.00  0.00    +0.000 C 
ATOM     10  N   UNL     1      52.348   0.298  18.157  0.00  0.00    +0.000 N 
ATOM     11  C   UNL     1      52.484   1.593  17.704  0.00  0.00    +0.000 C 
ATOM     12  O   UNL     1      53.566   2.152  17.562  0.00  0.00    +0.000 OA
ATOM     13  H   UNL     1      51.463  -0.184  18.084  0.00  0.00    +0.000 HD
ENDBRANCH   3  11
ENDBRANCH   1   6
BRANCH   1  14
ATOM     14  N   UNL     1      47.762   5.514  15.641  0.00  0.00    +0.000 N 
ATOM     15  H   UNL     1      48.734   5.814  15.569  0.00  0.00    +0.000 HD
BRANCH  14  16
ATOM     16  C   UNL     1      47.182   5.348  14.378  0.00  0.00    +0.000 A 
ATOM     17  C   UNL     1      47.266   6.403  13.451  0.00  0.00    +0.000 A 
ATOM     18  C   UNL     1      46.655   6.326  12.191  0.00  0.00    +0.000 A 
ATOM     19  C   UNL     1      45.910   5.204  11.852  0.00  0.00    +0.000 A 
ATOM     20 CL   UNL     1      45.159   5.107  10.307  0.00  0.00    +0.000 Cl
ATOM     21  C   UNL     1      45.776   4.174  12.774  0.00  0.00    +0.000 A 
ATOM     22  F   UNL     1      45.040   3.089  12.490  0.00  0.00    +0.000 F 
ATOM     23  C   UNL     1      46.400   4.246  14.021  0.00  0.00    +0.000 A 
ENDBRANCH  14  16
ENDBRANCH   1  14
TORSDOF 4
ENDMDL
MODEL 7
REMARK VINA RESULT:    -5.616      4.313      7.681
REMARK INTER + INTRA:          -7.565
REMARK INTER:                  -7.051
REMARK INTRA:                  -0.514
REMARK UNBOUND:                -0.635
REMARK  Name = 
REMARK  6 active torsions:
REMARK  status: ('A' for Active; 'I' for Inactive)
REMARK    1  A    between atoms: C_1  and  N_2
REMARK    2  A    between atoms: C_3  and  C_5
REMARK    3  A    between atoms: C_8  and  C_9
REMARK    4  A    between atoms: C_9  and  C_10
REMARK    5  A    between atoms: C_9  and  N_11
REMARK    6  A    between atoms: N_11  and  C_12
REMARK                            x       y       z     vdW  Elec       q    Type
REMARK                         _______ _______ _______ _____ _____    ______ ____
ROOT
ATOM      1  C   UNL     1      48.105   6.665  14.028  0.00  0.00    +0.000 C 
ATOM      2  C   UNL     1      47.982   8.128  13.590  0.00  0.00    +0.000 C 
ENDROOT
BRANCH   1   6
ATOM      3  C   UNL     1      45.392   4.230  11.802  0.00  0.00    +0.000 A 
ATOM      4  C   UNL     1      45.995   3.798  12.964  0.00  0.00    +0.000 A 
ATOM      5  N   UNL     1      46.828   4.563  13.710  0.00  0.00    +0.000 NA
ATOM      6  C   UNL     1      47.086   5.808  13.248  0.00  0.00    +0.000 A 
ATOM      7  N   UNL     1      46.513   6.327  12.138  0.00  0.00    +0.000 NA
ATOM      8  C   UNL     1      45.696   5.518  11.428  0.00  0.00    +0.000 A 
BRANCH   3  11
ATOM      9  C   UNL     1      44.377   1.747   9.149  0.00  0.00    +0.000 C 
ATOM     10  N   UNL     1      45.153   2.616  10.000  0.00  0.00    +0.000 N 
ATOM     11  C   UNL     1      44.529   3.396  10.951  0.00  0.00    +0.000 C 
ATOM     12  O   UNL     1      43.316   3.411  11.126  0.00  0.00    +0.000 OA
ATOM     13  H   UNL     1      46.156   2.492  10.010  0.00  0.00    +0.000 HD
ENDBRANCH   3  11
ENDBRANCH   1   6
BRANCH   1  14
ATOM     14  N   UNL     1      47.904   6.524  15.492  0.00  0.00    +0.000 N 
ATOM     15  H   UNL     1      46.956   6.206  15.692  0.00  0.00    +0.000 HD
BRANCH  14  16
ATOM     16  C   UNL     1      48.847   5.850  16.278  0.00  0.00    +0.000 A 
ATOM     17  C   UNL     1      50.154   6.365  16.356  0.00  0.00    +0.000 A 
ATOM     18  C   UNL     1      51.163   5.707  17.074  0.00  0.00    +0.000 A 
ATOM     19  C   UNL     1      50.889   4.494  17.695  0.00  0.00    +0.000 A 
ATOM     20 CL   UNL     1      52.124   3.684  18.577  0.00  0.00    +0.000 Cl
ATOM     21  C   UNL     1      49.617   3.948  17.587  0.00  0.00    +0.000 A 
ATOM     22  F   UNL     1      49.328   2.765  18.150  0.00  0.00    +0.000 F 
ATOM     23  C   UNL     1      48.610   4.614  16.885  0.00  0.00    +0.000 A 
ENDBRANCH  14  16
ENDBRANCH   1  14
TORSDOF 4
ENDMDL
MODEL 8
REMARK VINA RESULT:    -5.546      4.849      8.273
REMARK INTER + INTRA:          -7.478
REMARK INTER:                  -6.984
REMARK INTRA:                  -0.494
REMARK UNBOUND:                -0.635
REMARK  Name = 
REMARK  6 active torsions:
REMARK  status: ('A' for Active; 'I' for Inactive)
REMARK    1  A    between atoms: C_1  and  N_2
REMARK    2  A    between atoms: C_3  and  C_5
REMARK    3  A    between atoms: C_8  and  C_9
REMARK    4  A    between atoms: C_9  and  C_10
REMARK    5  A    between atoms: C_9  and  N_11
REMARK    6  A    between atoms: N_11  and  C_12
REMARK                            x       y       z     vdW  Elec       q    Type
REMARK                         _______ _______ _______ _____ _____    ______ ____
ROOT
ATOM      1  C   UNL     1      48.461   4.598  16.981  0.00  0.00    +0.000 C 
ATOM      2  C   UNL     1      47.478   4.856  18.127  0.00  0.00    +0.000 C 
ENDROOT
BRANCH   1   6
ATOM      3  C   UNL     1      46.615   5.297  13.193  0.00  0.00    +0.000 A 
ATOM      4  C   UNL     1      46.193   4.306  14.053  0.00  0.00    +0.000 A 
ATOM      5  N   UNL     1      46.735   4.089  15.276  0.00  0.00    +0.000 NA
ATOM      6  C   UNL     1      47.766   4.887  15.634  0.00  0.00    +0.000 A 
ATOM      7  N   UNL     1      48.223   5.905  14.869  0.00  0.00    +0.000 NA
ATOM      8  C   UNL     1      47.651   6.073  13.657  0.00  0.00    +0.000 A 
BRANCH   3  11
ATOM      9  C   UNL     1      44.553   4.760  10.080  0.00  0.00    +0.000 C 
ATOM     10  N   UNL     1      45.151   4.598  11.383  0.00  0.00    +0.000 N 
ATOM     11  C   UNL     1      46.076   5.512  11.841  0.00  0.00    +0.000 C 
ATOM     12  O   UNL     1      46.448   6.484  11.193  0.00  0.00    +0.000 OA
ATOM     13  H   UNL     1      44.736   3.924  12.011  0.00  0.00    +0.000 HD
ENDBRANCH   3  11
ENDBRANCH   1   6
BRANCH   1  14
ATOM     14  N   UNL     1      48.981   3.208  17.022  0.00  0.00    +0.000 N 
ATOM     15  H   UNL     1      48.727   2.708  16.170  0.00  0.00    +0.000 HD
BRANCH  14  16
ATOM     16  C   UNL     1      50.309   2.956  17.387  0.00  0.00    +0.000 A 
ATOM     17  C   UNL     1      51.144   4.045  17.696  0.00  0.00    +0.000 A 
ATOM     18  C   UNL     1      52.500   3.868  18.009  0.00  0.00    +0.000 A 
ATOM     19  C   UNL     1      53.055   2.594  17.976  0.00  0.00    +0.000 A 
ATOM     20 CL   UNL     1      54.718   2.373  18.360  0.00  0.00    +0.000 Cl
ATOM     21  C   UNL     1      52.256   1.514  17.626  0.00  0.00    +0.000 A 
ATOM     22  F   UNL     1      52.767   0.276  17.556  0.00  0.00    +0.000 F 
ATOM     23  C   UNL     1      50.903   1.692  17.331  0.00  0.00    +0.000 A 
ENDBRANCH  14  16
ENDBRANCH   1  14
TORSDOF 4
ENDMDL
MODEL 9
REMARK VINA RESULT:    -5.366      4.661      8.057
REMARK INTER + INTRA:          -7.257
REMARK INTER:                  -6.715
REMARK INTRA:                  -0.541
REMARK UNBOUND:                -0.635
REMARK  Name = 
REMARK  6 active torsions:
REMARK  status: ('A' for Active; 'I' for Inactive)
REMARK    1  A    between atoms: C_1  and  N_2
REMARK    2  A    between atoms: C_3  and  C_5
REMARK    3  A    between atoms: C_8  and  C_9
REMARK    4  A    between atoms: C_9  and  C_10
REMARK    5  A    between atoms: C_9  and  N_11
REMARK    6  A    between atoms: N_11  and  C_12
REMARK                            x       y       z     vdW  Elec       q    Type
REMARK                         _______ _______ _______ _____ _____    ______ ____
ROOT
ATOM      1  C   UNL     1      49.196   6.694  15.609  0.00  0.00    +0.000 C 
ATOM      2  C   UNL     1      49.225   8.192  15.924  0.00  0.00    +0.000 C 
ENDROOT
BRANCH   1   6
ATOM      3  C   UNL     1      45.991   5.953  12.883  0.00  0.00    +0.000 A 
ATOM      4  C   UNL     1      46.638   7.168  12.956  0.00  0.00    +0.000 A 
ATOM      5  N   UNL     1      47.682   7.418  13.783  0.00  0.00    +0.000 NA
ATOM      6  C   UNL     1      48.071   6.406  14.592  0.00  0.00    +0.000 A 
ATOM      7  N   UNL     1      47.518   5.172  14.564  0.00  0.00    +0.000 NA
ATOM      8  C   UNL     1      46.476   4.980  13.725  0.00  0.00    +0.000 A 
BRANCH   3  11
ATOM      9  C   UNL     1      42.388   5.512  11.858  0.00  0.00    +0.000 C 
ATOM     10  N   UNL     1      43.583   5.736  12.633  0.00  0.00    +0.000 N 
ATOM     11  C   UNL     1      44.823   5.681  12.032  0.00  0.00    +0.000 C 
ATOM     12  O   UNL     1      44.989   5.437  10.843  0.00  0.00    +0.000 OA
ATOM     13  H   UNL     1      43.476   6.118  13.563  0.00  0.00    +0.000 HD
ENDBRANCH   3  11
ENDBRANCH   1   6
BRANCH   1  14
ATOM     14  N   UNL     1      49.014   5.889  16.842  0.00  0.00    +0.000 N 
ATOM     15  H   UNL     1      48.074   5.496  16.875  0.00  0.00    +0.000 HD
BRANCH  14  16
ATOM     16  C   UNL     1      49.977   4.946  17.225  0.00  0.00    +0.000 A 
ATOM     17  C   UNL     1      51.287   5.385  17.486  0.00  0.00    +0.000 A 
ATOM     18  C   UNL     1      52.313   4.487  17.813  0.00  0.00    +0.000 A 
ATOM     19  C   UNL     1      52.052   3.122  17.843  0.00  0.00    +0.000 A 
ATOM     20 CL   UNL     1      53.309   2.017  18.243  0.00  0.00    +0.000 Cl
ATOM     21  C   UNL     1      50.776   2.668  17.540  0.00  0.00    +0.000 A 
ATOM     22  F   UNL     1      50.497   1.356  17.531  0.00  0.00    +0.000 F 
ATOM     23  C   UNL     1      49.752   3.567  17.231  0.00  0.00    +0.000 A 
ENDBRANCH  14  16
ENDBRANCH   1  14
TORSDOF 4
ENDMDL
