MODEL 1
REMARK VINA RESULT:    -9.203      0.000      0.000
REMARK INTER + INTRA:         -15.420
REMARK INTER:                 -14.045
REMARK INTRA:                  -1.375
REMARK UNBOUND:                -1.375
REMARK  Name = 
REMARK  9 active torsions:
REMARK  status: ('A' for Active; 'I' for Inactive)
REMARK    1  A    between atoms: C_2  and  C_3
REMARK    2  A    between atoms: C_2  and  O_17
REMARK    3  A    between atoms: C_3  and  N_4
REMARK    4  A    between atoms: C_5  and  C_7
REMARK    5  A    between atoms: O_17  and  C_18
REMARK    6  A    between atoms: C_18  and  C_19
REMARK    7  A    between atoms: C_22  and  C_23
REMARK    8  A    between atoms: C_23  and  N_24
REMARK    9  A    between atoms: C_25  and  C_27
REMARK                            x       y       z     vdW  Elec       q    Type
REMARK                         _______ _______ _______ _____ _____    ______ ____
ROOT
ATOM      1  O   UNL     1      47.473   3.932  15.627  0.00  0.00    +0.000 OA
ENDROOT
BRANCH   1   3
ATOM      2  O   UNL     1      46.430   2.973  17.437  0.00  0.00    +0.000 OA
ATOM      3  C   UNL     1      47.180   3.809  16.947  0.00  0.00    +0.000 C 
BRANCH   3   4
ATOM      4  C   UNL     1      47.976   4.811  17.767  0.00  0.00    +0.000 C 
BRANCH   4   5
ATOM      5  N   UNL     1      49.262   4.268  18.152  0.00  0.00    +0.000 N 
ATOM      6  C   UNL     1      50.417   4.670  17.529  0.00  0.00    +0.000 C 
ATOM      7  O   UNL     1      50.427   5.556  16.679  0.00  0.00    +0.000 OA
ATOM      8  H   UNL     1      49.253   3.387  18.660  0.00  0.00    +0.000 HD
BRANCH   6   9
ATOM      9  C   UNL     1      51.659   4.038  17.984  0.00  0.00    +0.000 A 
ATOM     10  C   UNL     1      52.646   4.809  18.583  0.00  0.00    +0.000 A 
ATOM     11  S   UNL     1      53.999   3.907  19.097  0.00  0.00    +0.000 S 
ATOM     12  C   UNL     1      53.335   2.463  18.489  0.00  0.00    +0.000 A 
ATOM     13  N   UNL     1      54.010   1.286  18.585  0.00  0.00    +0.000 NA
ATOM     14  C   UNL     1      53.404   0.279  18.047  0.00  0.00    +0.000 A 
ATOM     15  N   UNL     1      52.184   0.342  17.425  0.00  0.00    +0.000 N 
ATOM     16  C   UNL     1      51.446   1.499  17.345  0.00  0.00    +0.000 A 
ATOM     17  O   UNL     1      50.325   1.513  16.852  0.00  0.00    +0.000 OA
ATOM     18  C   UNL     1      52.092   2.664  17.917  0.00  0.00    +0.000 A 
ATOM     19  H   UNL     1      51.759  -0.486  17.035  0.00  0.00    +0.000 HD
ENDBRANCH   6   9
ENDBRANCH   4   5
ENDBRANCH   3   4
ENDBRANCH   1   3
BRANCH   1  20
ATOM     20  C   UNL     1      47.174   5.192  15.019  0.00  0.00    +0.000 C 
BRANCH  20  21
ATOM     21  C   UNL     1      46.332   4.942  13.793  0.00  0.00    +0.000 A 
ATOM     22  C   UNL     1      46.127   3.645  13.308  0.00  0.00    +0.000 A 
ATOM     23  C   UNL     1      45.338   3.427  12.175  0.00  0.00    +0.000 A 
ATOM     24  C   UNL     1      44.750   4.503  11.496  0.00  0.00    +0.000 A 
ATOM     25  C   UNL     1      44.947   5.800  11.987  0.00  0.00    +0.000 A 
ATOM     26  C   UNL     1      45.732   6.017  13.122  0.00  0.00    +0.000 A 
BRANCH  24  27
ATOM     27  C   UNL     1      43.904   4.272  10.271  0.00  0.00    +0.000 C 
BRANCH  27  28
ATOM     28  N   UNL     1      44.592   3.458   9.295  0.00  0.00    +0.000 N 
ATOM     29  C   UNL     1      45.560   4.013   8.490  0.00  0.00    +0.000 C 
ATOM     30  O   UNL     1      45.879   5.197   8.529  0.00  0.00    +0.000 OA
ATOM     31  H   UNL     1      44.528   2.454   9.393  0.00  0.00    +0.000 HD
BRANCH  29  32
ATOM     32  C   UNL     1      46.256   3.089   7.553  0.00  0.00    +0.000 A 
ATOM     33  C   UNL     1      46.703   3.516   6.304  0.00  0.00    +0.000 A 
ATOM     34  C   UNL     1      47.350   2.593   5.499  0.00  0.00    +0.000 A 
ATOM     35  N   UNL     1      47.571   1.312   5.856  0.00  0.00    +0.000 NA
ATOM     36  C   UNL     1      47.145   0.930   7.079  0.00  0.00    +0.000 A 
ATOM     37  C   UNL     1      46.492   1.775   7.960  0.00  0.00    +0.000 A 
ENDBRANCH  29  32
ENDBRANCH  27  28
ENDBRANCH  24  27
ENDBRANCH  20  21
ENDBRANCH   1  20
TORSDOF 9
ENDMDL
MODEL 2
REMARK VINA RESULT:    -8.581      1.273      2.268
REMARK INTER + INTRA:         -14.471
REMARK INTER:                 -13.172
REMARK INTRA:                  -1.298
REMARK UNBOUND:                -1.375
REMARK  Name = 
REMARK  9 active torsions:
REMARK  status: ('A' for Active; 'I' for Inactive)
REMARK    1  A    between atoms: C_2  and  C_3
REMARK    2  A    between atoms: C_2  and  O_17
REMARK    3  A    between atoms: C_3  and  N_4
REMARK    4  A    between atoms: C_5  and  C_7
REMARK    5  A    between atoms: O_17  and  C_18
REMARK    6  A    between atoms: C_18  and  C_19
REMARK    7  A    between atoms: C_22  and  C_23
REMARK    8  A    between atoms: C_23  and  N_24
REMARK    9  A    between atoms: C_25  and  C_27
REMARK                            x       y       z     vdW  Elec       q    Type
REMARK                         _______ _______ _______ _____ _____    ______ ____
ROOT
ATOM      1  O   UNL     1      46.671   4.025  16.137  0.00  0.00    +0.000 OA
ENDROOT
BRANCH   1   3
ATOM      2  O   UNL     1      47.219   5.100  18.093  0.00  0.00    +0.000 OA
ATOM      3  C   UNL     1      47.216   4.105  17.377  0.00  0.00    +0.000 C 
BRANCH   3   4
ATOM      4  C   UNL     1      47.765   2.755  17.808  0.00  0.00    +0.000 C 
BRANCH   4   5
ATOM      5  N   UNL     1      49.197   2.813  18.011  0.00  0.00    +0.000 N 
ATOM      6  C   UNL     1      50.060   2.160  17.167  0.00  0.00    +0.000 C 
ATOM      7  O   UNL     1      49.671   1.566  16.165  0.00  0.00    +0.000 OA
ATOM      8  H   UNL     1      49.517   3.080  18.939  0.00  0.00    +0.000 HD
BRANCH   6   9
ATOM      9  C   UNL     1      51.489   2.268  17.481  0.00  0.00    +0.000 A 
ATOM     10  C   UNL     1      52.232   1.119  17.715  0.00  0.00    +0.000 A 
ATOM     11  S   UNL     1      53.883   1.424  18.014  0.00  0.00    +0.000 S 
ATOM     12  C   UNL     1      53.650   3.105  17.893  0.00  0.00    +0.000 A 
ATOM     13  N   UNL     1      54.684   3.971  18.071  0.00  0.00    +0.000 NA
ATOM     14  C   UNL     1      54.354   5.218  17.990  0.00  0.00    +0.000 A 
ATOM     15  N   UNL     1      53.086   5.677  17.743  0.00  0.00    +0.000 N 
ATOM     16  C   UNL     1      52.022   4.839  17.512  0.00  0.00    +0.000 A 
ATOM     17  O   UNL     1      50.914   5.274  17.218  0.00  0.00    +0.000 OA
ATOM     18  C   UNL     1      52.335   3.428  17.613  0.00  0.00    +0.000 A 
ATOM     19  H   UNL     1      52.898   6.667  17.679  0.00  0.00    +0.000 HD
ENDBRANCH   6   9
ENDBRANCH   4   5
ENDBRANCH   3   4
ENDBRANCH   1   3
BRANCH   1  20
ATOM     20  C   UNL     1      47.165   4.946  15.159  0.00  0.00    +0.000 C 
BRANCH  20  21
ATOM     21  C   UNL     1      46.367   4.770  13.892  0.00  0.00    +0.000 A 
ATOM     22  C   UNL     1      46.154   3.500  13.341  0.00  0.00    +0.000 A 
ATOM     23  C   UNL     1      45.405   3.351  12.170  0.00  0.00    +0.000 A 
ATOM     24  C   UNL     1      44.867   4.469  11.518  0.00  0.00    +0.000 A 
ATOM     25  C   UNL     1      45.072   5.738  12.075  0.00  0.00    +0.000 A 
ATOM     26  C   UNL     1      45.816   5.887  13.248  0.00  0.00    +0.000 A 
BRANCH  24  27
ATOM     27  C   UNL     1      44.065   4.312  10.253  0.00  0.00    +0.000 C 
BRANCH  27  28
ATOM     28  N   UNL     1      44.751   3.483   9.287  0.00  0.00    +0.000 N 
ATOM     29  C   UNL     1      45.684   4.036   8.441  0.00  0.00    +0.000 C 
ATOM     30  O   UNL     1      45.972   5.229   8.433  0.00  0.00    +0.000 OA
ATOM     31  H   UNL     1      44.718   2.482   9.420  0.00  0.00    +0.000 HD
BRANCH  29  32
ATOM     32  C   UNL     1      46.383   3.100   7.518  0.00  0.00    +0.000 A 
ATOM     33  C   UNL     1      46.564   1.756   7.840  0.00  0.00    +0.000 A 
ATOM     34  C   UNL     1      47.215   0.952   6.919  0.00  0.00    +0.000 A 
ATOM     35  N   UNL     1      47.681   1.396   5.734  0.00  0.00    +0.000 NA
ATOM     36  C   UNL     1      47.475   2.698   5.439  0.00  0.00    +0.000 A 
ATOM     37  C   UNL     1      46.832   3.582   6.288  0.00  0.00    +0.000 A 
ENDBRANCH  29  32
ENDBRANCH  27  28
ENDBRANCH  24  27
ENDBRANCH  20  21
ENDBRANCH   1  20
TORSDOF 9
ENDMDL
MODEL 3
REMARK VINA RESULT:    -7.734      2.935      3.967
REMARK INTER + INTRA:         -13.179
REMARK INTER:                 -12.215
REMARK INTRA:                  -0.964
REMARK UNBOUND:                -1.375
REMARK  Name = 
REMARK  9 active torsions:
REMARK  status: ('A' for Active; 'I' for Inactive)
REMARK    1  A    between atoms: C_2  and  C_3
REMARK    2  A    between atoms: C_2  and  O_17
REMARK    3  A    between atoms: C_3  and  N_4
REMARK    4  A    between atoms: C_5  and  C_7
REMARK    5  A    between atoms: O_17  and  C_18
REMARK    6  A    between atoms: C_18  and  C_19
REMARK    7  A    between atoms: C_22  and  C_23
REMARK    8  A    between atoms: C_23  and  N_24
REMARK    9  A    between atoms: C_25  and  C_27
REMARK                            x       y       z     vdW  Elec       q    Type
REMARK                         _______ _______ _______ _____ _____    ______ ____
ROOT
ATOM      1  O   UNL     1      47.653   8.876  12.184  0.00  0.00    +0.000 OA
ENDROOT
BRANCH   1   3
ATOM      2  O   UNL     1      49.495   7.681  12.865  0.00  0.00    +0.000 OA
ATOM      3  C   UNL     1      48.542   8.415  13.101  0.00  0.00    +0.000 C 
BRANCH   3   4
ATOM      4  C   UNL     1      48.248   9.001  14.472  0.00  0.00    +0.000 C 
BRANCH   4   5
ATOM      5  N   UNL     1      48.213   7.968  15.485  0.00  0.00    +0.000 N 
ATOM      6  C   UNL     1      49.337   7.640  16.202  0.00  0.00    +0.000 C 
ATOM      7  O   UNL     1      50.395   8.250  16.076  0.00  0.00    +0.000 OA
ATOM      8  H   UNL     1      47.445   7.304  15.436  0.00  0.00    +0.000 HD
BRANCH   6   9
ATOM      9  C   UNL     1      49.192   6.563  17.188  0.00  0.00    +0.000 A 
ATOM     10  C   UNL     1      49.737   6.713  18.456  0.00  0.00    +0.000 A 
ATOM     11  S   UNL     1      49.432   5.390  19.489  0.00  0.00    +0.000 S 
ATOM     12  C   UNL     1      48.607   4.551  18.260  0.00  0.00    +0.000 A 
ATOM     13  N   UNL     1      48.095   3.311  18.480  0.00  0.00    +0.000 NA
ATOM     14  C   UNL     1      47.530   2.777  17.448  0.00  0.00    +0.000 A 
ATOM     15  N   UNL     1      47.428   3.372  16.217  0.00  0.00    +0.000 N 
ATOM     16  C   UNL     1      47.890   4.641  15.962  0.00  0.00    +0.000 A 
ATOM     17  O   UNL     1      47.718   5.180  14.875  0.00  0.00    +0.000 OA
ATOM     18  C   UNL     1      48.552   5.276  17.084  0.00  0.00    +0.000 A 
ATOM     19  H   UNL     1      46.961   2.904  15.454  0.00  0.00    +0.000 HD
ENDBRANCH   6   9
ENDBRANCH   4   5
ENDBRANCH   3   4
ENDBRANCH   1   3
BRANCH   1  20
ATOM     20  C   UNL     1      46.276   8.879  12.573  0.00  0.00    +0.000 C 
BRANCH  20  21
ATOM     21  C   UNL     1      45.647   7.588  12.113  0.00  0.00    +0.000 A 
ATOM     22  C   UNL     1      46.379   6.395  12.089  0.00  0.00    +0.000 A 
ATOM     23  C   UNL     1      45.781   5.203  11.668  0.00  0.00    +0.000 A 
ATOM     24  C   UNL     1      44.443   5.184  11.249  0.00  0.00    +0.000 A 
ATOM     25  C   UNL     1      43.709   6.377  11.282  0.00  0.00    +0.000 A 
ATOM     26  C   UNL     1      44.305   7.566  11.708  0.00  0.00    +0.000 A 
BRANCH  24  27
ATOM     27  C   UNL     1      43.797   3.903  10.789  0.00  0.00    +0.000 C 
BRANCH  27  28
ATOM     28  N   UNL     1      44.701   3.111   9.984  0.00  0.00    +0.000 N 
ATOM     29  C   UNL     1      44.991   3.490   8.694  0.00  0.00    +0.000 C 
ATOM     30  O   UNL     1      44.505   4.477   8.151  0.00  0.00    +0.000 OA
ATOM     31  H   UNL     1      45.290   2.443  10.461  0.00  0.00    +0.000 HD
BRANCH  29  32
ATOM     32  C   UNL     1      45.974   2.648   7.959  0.00  0.00    +0.000 A 
ATOM     33  C   UNL     1      46.093   1.281   8.205  0.00  0.00    +0.000 A 
ATOM     34  C   UNL     1      47.026   0.570   7.468  0.00  0.00    +0.000 A 
ATOM     35  N   UNL     1      47.820   1.125   6.530  0.00  0.00    +0.000 NA
ATOM     36  C   UNL     1      47.670   2.448   6.298  0.00  0.00    +0.000 A 
ATOM     37  C   UNL     1      46.765   3.245   6.977  0.00  0.00    +0.000 A 
ENDBRANCH  29  32
ENDBRANCH  27  28
ENDBRANCH  24  27
ENDBRANCH  20  21
ENDBRANCH   1  20
TORSDOF 9
ENDMDL
MODEL 4
REMARK VINA RESULT:    -7.613      2.349      3.429
REMARK INTER + INTRA:         -12.993
REMARK INTER:                 -11.854
REMARK INTRA:                  -1.139
REMARK UNBOUND:                -1.375
REMARK  Name = 
REMARK  9 active torsions:
REMARK  status: ('A' for Active; 'I' for Inactive)
REMARK    1  A    between atoms: C_2  and  C_3
REMARK    2  A    between atoms: C_2  and  O_17
REMARK    3  A    between atoms: C_3  and  N_4
REMARK    4  A    between atoms: C_5  and  C_7
REMARK    5  A    between atoms: O_17  and  C_18
REMARK    6  A    between atoms: C_18  and  C_19
REMARK    7  A    between atoms: C_22  and  C_23
REMARK    8  A    between atoms: C_23  and  N_24
REMARK    9  A    between atoms: C_25  and  C_27
REMARK                            x       y       z     vdW  Elec       q    Type
REMARK                         _______ _______ _______ _____ _____    ______ ____
ROOT
ATOM      1  O   UNL     1      47.866   8.200  13.642  0.00  0.00    +0.000 OA
ENDROOT
BRANCH   1   3
ATOM      2  O   UNL     1      49.071  10.017  14.368  0.00  0.00    +0.000 OA
ATOM      3  C   UNL     1      48.437   8.991  14.586  0.00  0.00    +0.000 C 
BRANCH   3   4
ATOM      4  C   UNL     1      48.120   8.475  15.979  0.00  0.00    +0.000 C 
BRANCH   4   5
ATOM      5  N   UNL     1      48.382   7.055  16.084  0.00  0.00    +0.000 N 
ATOM      6  C   UNL     1      48.816   6.498  17.261  0.00  0.00    +0.000 C 
ATOM      7  O   UNL     1      48.929   7.155  18.292  0.00  0.00    +0.000 OA
ATOM      8  H   UNL     1      48.529   6.551  15.212  0.00  0.00    +0.000 HD
BRANCH   6   9
ATOM      9  C   UNL     1      49.071   5.054  17.247  0.00  0.00    +0.000 A 
ATOM     10  C   UNL     1      48.020   4.171  17.040  0.00  0.00    +0.000 A 
ATOM     11  S   UNL     1      48.500   2.536  17.002  0.00  0.00    +0.000 S 
ATOM     12  C   UNL     1      50.122   2.949  17.314  0.00  0.00    +0.000 A 
ATOM     13  N   UNL     1      51.079   1.990  17.430  0.00  0.00    +0.000 NA
ATOM     14  C   UNL     1      52.257   2.445  17.706  0.00  0.00    +0.000 A 
ATOM     15  N   UNL     1      52.564   3.771  17.872  0.00  0.00    +0.000 N 
ATOM     16  C   UNL     1      51.639   4.775  17.719  0.00  0.00    +0.000 A 
ATOM     17  O   UNL     1      51.955   5.957  17.797  0.00  0.00    +0.000 OA
ATOM     18  C   UNL     1      50.295   4.316  17.429  0.00  0.00    +0.000 A 
ATOM     19  H   UNL     1      53.510   4.061  18.074  0.00  0.00    +0.000 HD
ENDBRANCH   6   9
ENDBRANCH   4   5
ENDBRANCH   3   4
ENDBRANCH   1   3
BRANCH   1  20
ATOM     20  C   UNL     1      46.532   8.536  13.247  0.00  0.00    +0.000 C 
BRANCH  20  21
ATOM     21  C   UNL     1      45.857   7.288  12.735  0.00  0.00    +0.000 A 
ATOM     22  C   UNL     1      44.735   7.362  11.901  0.00  0.00    +0.000 A 
ATOM     23  C   UNL     1      44.124   6.197  11.428  0.00  0.00    +0.000 A 
ATOM     24  C   UNL     1      44.615   4.935  11.791  0.00  0.00    +0.000 A 
ATOM     25  C   UNL     1      45.744   4.862  12.617  0.00  0.00    +0.000 A 
ATOM     26  C   UNL     1      46.357   6.026  13.086  0.00  0.00    +0.000 A 
BRANCH  24  27
ATOM     27  C   UNL     1      43.956   3.677  11.287  0.00  0.00    +0.000 C 
BRANCH  27  28
ATOM     28  N   UNL     1      44.821   2.946  10.388  0.00  0.00    +0.000 N 
ATOM     29  C   UNL     1      44.942   3.338   9.075  0.00  0.00    +0.000 C 
ATOM     30  O   UNL     1      44.331   4.285   8.589  0.00  0.00    +0.000 OA
ATOM     31  H   UNL     1      45.504   2.324  10.796  0.00  0.00    +0.000 HD
BRANCH  29  32
ATOM     32  C   UNL     1      45.896   2.563   8.235  0.00  0.00    +0.000 A 
ATOM     33  C   UNL     1      45.990   1.176   8.327  0.00  0.00    +0.000 A 
ATOM     34  C   UNL     1      46.897   0.533   7.501  0.00  0.00    +0.000 A 
ATOM     35  N   UNL     1      47.689   1.173   6.617  0.00  0.00    +0.000 NA
ATOM     36  C   UNL     1      47.564   2.515   6.534  0.00  0.00    +0.000 A 
ATOM     37  C   UNL     1      46.685   3.250   7.311  0.00  0.00    +0.000 A 
ENDBRANCH  29  32
ENDBRANCH  27  28
ENDBRANCH  24  27
ENDBRANCH  20  21
ENDBRANCH   1  20
TORSDOF 9
ENDMDL
MODEL 5
REMARK VINA RESULT:    -7.384      1.791      2.692
REMARK INTER + INTRA:         -12.645
REMARK INTER:                 -11.513
REMARK INTRA:                  -1.131
REMARK UNBOUND:                -1.375
REMARK  Name = 
REMARK  9 active torsions:
REMARK  status: ('A' for Active; 'I' for Inactive)
REMARK    1  A    between atoms: C_2  and  C_3
REMARK    2  A    between atoms: C_2  and  O_17
REMARK    3  A    between atoms: C_3  and  N_4
REMARK    4  A    between atoms: C_5  and  C_7
REMARK    5  A    between atoms: O_17  and  C_18
REMARK    6  A    between atoms: C_18  and  C_19
REMARK    7  A    between atoms: C_22  and  C_23
REMARK    8  A    between atoms: C_23  and  N_24
REMARK    9  A    between atoms: C_25  and  C_27
REMARK                            x       y       z     vdW  Elec       q    Type
REMARK                         _______ _______ _______ _____ _____    ______ ____
ROOT
ATOM      1  O   UNL     1      47.095   4.215  16.209  0.00  0.00    +0.000 OA
ENDROOT
BRANCH   1   3
ATOM      2  O   UNL     1      48.493   2.425  15.853  0.00  0.00    +0.000 OA
ATOM      3  C   UNL     1      48.030   3.300  16.575  0.00  0.00    +0.000 C 
BRANCH   3   4
ATOM      4  C   UNL     1      48.497   3.554  17.999  0.00  0.00    +0.000 C 
BRANCH   4   5
ATOM      5  N   UNL     1      49.916   3.836  18.042  0.00  0.00    +0.000 N 
ATOM      6  C   UNL     1      50.472   4.520  19.095  0.00  0.00    +0.000 C 
ATOM      7  O   UNL     1      49.815   4.854  20.077  0.00  0.00    +0.000 OA
ATOM      8  H   UNL     1      50.418   3.791  17.159  0.00  0.00    +0.000 HD
BRANCH   6   9
ATOM      9  C   UNL     1      51.915   4.770  19.023  0.00  0.00    +0.000 A 
ATOM     10  C   UNL     1      52.735   4.380  20.074  0.00  0.00    +0.000 A 
ATOM     11  S   UNL     1      54.388   4.700  19.803  0.00  0.00    +0.000 S 
ATOM     12  C   UNL     1      54.058   5.417  18.296  0.00  0.00    +0.000 A 
ATOM     13  N   UNL     1      55.058   5.934  17.532  0.00  0.00    +0.000 NA
ATOM     14  C   UNL     1      54.658   6.483  16.432  0.00  0.00    +0.000 A 
ATOM     15  N   UNL     1      53.351   6.557  16.025  0.00  0.00    +0.000 N 
ATOM     16  C   UNL     1      52.314   6.009  16.742  0.00  0.00    +0.000 A 
ATOM     17  O   UNL     1      51.164   6.021  16.320  0.00  0.00    +0.000 OA
ATOM     18  C   UNL     1      52.708   5.399  17.997  0.00  0.00    +0.000 A 
ATOM     19  H   UNL     1      53.107   6.989  15.146  0.00  0.00    +0.000 HD
ENDBRANCH   6   9
ENDBRANCH   4   5
ENDBRANCH   3   4
ENDBRANCH   1   3
BRANCH   1  20
ATOM     20  C   UNL     1      47.470   5.137  15.181  0.00  0.00    +0.000 C 
BRANCH  20  21
ATOM     21  C   UNL     1      46.593   4.891  13.978  0.00  0.00    +0.000 A 
ATOM     22  C   UNL     1      45.974   5.951  13.306  0.00  0.00    +0.000 A 
ATOM     23  C   UNL     1      45.170   5.710  12.187  0.00  0.00    +0.000 A 
ATOM     24  C   UNL     1      44.959   4.402  11.728  0.00  0.00    +0.000 A 
ATOM     25  C   UNL     1      45.587   3.343  12.395  0.00  0.00    +0.000 A 
ATOM     26  C   UNL     1      46.394   3.585  13.510  0.00  0.00    +0.000 A 
BRANCH  24  27
ATOM     27  C   UNL     1      44.089   4.138  10.527  0.00  0.00    +0.000 C 
BRANCH  27  28
ATOM     28  N   UNL     1      44.772   3.328   9.543  0.00  0.00    +0.000 N 
ATOM     29  C   UNL     1      45.603   3.917   8.619  0.00  0.00    +0.000 C 
ATOM     30  O   UNL     1      45.798   5.127   8.555  0.00  0.00    +0.000 OA
ATOM     31  H   UNL     1      44.822   2.333   9.708  0.00  0.00    +0.000 HD
BRANCH  29  32
ATOM     32  C   UNL     1      46.308   3.003   7.680  0.00  0.00    +0.000 A 
ATOM     33  C   UNL     1      46.511   1.658   7.984  0.00  0.00    +0.000 A 
ATOM     34  C   UNL     1      47.167   0.875   7.049  0.00  0.00    +0.000 A 
ATOM     35  N   UNL     1      47.618   1.340   5.867  0.00  0.00    +0.000 NA
ATOM     36  C   UNL     1      47.391   2.643   5.589  0.00  0.00    +0.000 A 
ATOM     37  C   UNL     1      46.742   3.507   6.453  0.00  0.00    +0.000 A 
ENDBRANCH  29  32
ENDBRANCH  27  28
ENDBRANCH  24  27
ENDBRANCH  20  21
ENDBRANCH   1  20
TORSDOF 9
ENDMDL
MODEL 6
REMARK VINA RESULT:    -7.274      2.871      4.509
REMARK INTER + INTRA:         -12.476
REMARK INTER:                 -11.235
REMARK INTRA:                  -1.241
REMARK UNBOUND:                -1.375
REMARK  Name = 
REMARK  9 active torsions:
REMARK  status: ('A' for Active; 'I' for Inactive)
REMARK    1  A    between atoms: C_2  and  C_3
REMARK    2  A    between atoms: C_2  and  O_17
REMARK    3  A    between atoms: C_3  and  N_4
REMARK    4  A    between atoms: C_5  and  C_7
REMARK    5  A    between atoms: O_17  and  C_18
REMARK    6  A    between atoms: C_18  and  C_19
REMARK    7  A    between atoms: C_22  and  C_23
REMARK    8  A    between atoms: C_23  and  N_24
REMARK    9  A    between atoms: C_25  and  C_27
REMARK                            x       y       z     vdW  Elec       q    Type
REMARK                         _______ _______ _______ _____ _____    ______ ____
ROOT
ATOM      1  O   UNL     1      48.070   4.358  15.464  0.00  0.00    +0.000 OA
ENDROOT
BRANCH   1   3
ATOM      2  O   UNL     1      46.792   3.881  17.314  0.00  0.00    +0.000 OA
ATOM      3  C   UNL     1      47.871   4.127  16.787  0.00  0.00    +0.000 C 
BRANCH   3   4
ATOM      4  C   UNL     1      49.193   4.135  17.537  0.00  0.00    +0.000 C 
BRANCH   4   5
ATOM      5  N   UNL     1      49.501   5.457  18.041  0.00  0.00    +0.000 N 
ATOM      6  C   UNL     1      49.816   5.656  19.362  0.00  0.00    +0.000 C 
ATOM      7  O   UNL     1      49.927   4.726  20.155  0.00  0.00    +0.000 OA
ATOM      8  H   UNL     1      49.185   6.245  17.481  0.00  0.00    +0.000 HD
BRANCH   6   9
ATOM      9  C   UNL     1      50.088   7.039  19.767  0.00  0.00    +0.000 A 
ATOM     10  C   UNL     1      51.341   7.379  20.261  0.00  0.00    +0.000 A 
ATOM     11  S   UNL     1      51.501   9.035  20.635  0.00  0.00    +0.000 S 
ATOM     12  C   UNL     1      49.885   9.345  20.198  0.00  0.00    +0.000 A 
ATOM     13  N   UNL     1      49.358  10.594  20.303  0.00  0.00    +0.000 NA
ATOM     14  C   UNL     1      48.110  10.675  19.975  0.00  0.00    +0.000 A 
ATOM     15  N   UNL     1      47.344   9.621  19.548  0.00  0.00    +0.000 N 
ATOM     16  C   UNL     1      47.846   8.352  19.384  0.00  0.00    +0.000 A 
ATOM     17  O   UNL     1      47.161   7.444  18.928  0.00  0.00    +0.000 OA
ATOM     18  C   UNL     1      49.239   8.204  19.759  0.00  0.00    +0.000 A 
ATOM     19  H   UNL     1      46.376   9.755  19.294  0.00  0.00    +0.000 HD
ENDBRANCH   6   9
ENDBRANCH   4   5
ENDBRANCH   3   4
ENDBRANCH   1   3
BRANCH   1  20
ATOM     20  C   UNL     1      47.505   5.560  14.931  0.00  0.00    +0.000 C 
BRANCH  20  21
ATOM     21  C   UNL     1      46.585   5.191  13.794  0.00  0.00    +0.000 A 
ATOM     22  C   UNL     1      46.013   6.173  12.978  0.00  0.00    +0.000 A 
ATOM     23  C   UNL     1      45.168   5.816  11.922  0.00  0.00    +0.000 A 
ATOM     24  C   UNL     1      44.869   4.470  11.671  0.00  0.00    +0.000 A 
ATOM     25  C   UNL     1      45.450   3.487  12.483  0.00  0.00    +0.000 A 
ATOM     26  C   UNL     1      46.297   3.843  13.534  0.00  0.00    +0.000 A 
BRANCH  24  27
ATOM     27  C   UNL     1      43.955   4.082  10.539  0.00  0.00    +0.000 C 
BRANCH  27  28
ATOM     28  N   UNL     1      44.644   3.288   9.546  0.00  0.00    +0.000 N 
ATOM     29  C   UNL     1      45.475   3.893   8.632  0.00  0.00    +0.000 C 
ATOM     30  O   UNL     1      45.664   5.104   8.584  0.00  0.00    +0.000 OA
ATOM     31  H   UNL     1      44.700   2.291   9.699  0.00  0.00    +0.000 HD
BRANCH  29  32
ATOM     32  C   UNL     1      46.187   2.994   7.683  0.00  0.00    +0.000 A 
ATOM     33  C   UNL     1      46.673   3.458   6.462  0.00  0.00    +0.000 A 
ATOM     34  C   UNL     1      47.333   2.556   5.644  0.00  0.00    +0.000 A 
ATOM     35  N   UNL     1      47.532   1.261   5.964  0.00  0.00    +0.000 NA
ATOM     36  C   UNL     1      47.068   0.843   7.161  0.00  0.00    +0.000 A 
ATOM     37  C   UNL     1      46.399   1.665   8.052  0.00  0.00    +0.000 A 
ENDBRANCH  29  32
ENDBRANCH  27  28
ENDBRANCH  24  27
ENDBRANCH  20  21
ENDBRANCH   1  20
TORSDOF 9
ENDMDL
MODEL 7
REMARK VINA RESULT:    -7.272      1.767      2.338
REMARK INTER + INTRA:         -12.474
REMARK INTER:                 -11.500
REMARK INTRA:                  -0.974
REMARK UNBOUND:                -1.375
REMARK  Name = 
REMARK  9 active torsions:
REMARK  status: ('A' for Active; 'I' for Inactive)
REMARK    1  A    between atoms: C_2  and  C_3
REMARK    2  A    between atoms: C_2  and  O_17
REMARK    3  A    between atoms: C_3  and  N_4
REMARK    4  A    between atoms: C_5  and  C_7
REMARK    5  A    between atoms: O_17  and  C_18
REMARK    6  A    between atoms: C_18  and  C_19
REMARK    7  A    between atoms: C_22  and  C_23
REMARK    8  A    between atoms: C_23  and  N_24
REMARK    9  A    between atoms: C_25  and  C_27
REMARK                            x       y       z     vdW  Elec       q    Type
REMARK                         _______ _______ _______ _____ _____    ______ ____
ROOT
ATOM      1  O   UNL     1      48.778   7.059  14.379  0.00  0.00    +0.000 OA
ENDROOT
BRANCH   1   3
ATOM      2  O   UNL     1      48.285   8.497  16.102  0.00  0.00    +0.000 OA
ATOM      3  C   UNL     1      49.084   7.971  15.337  0.00  0.00    +0.000 C 
BRANCH   3   4
ATOM      4  C   UNL     1      50.584   8.204  15.392  0.00  0.00    +0.000 C 
BRANCH   4   5
ATOM      5  N   UNL     1      51.289   6.995  15.762  0.00  0.00    +0.000 N 
ATOM      6  C   UNL     1      51.259   6.522  17.051  0.00  0.00    +0.000 C 
ATOM      7  O   UNL     1      50.579   7.052  17.925  0.00  0.00    +0.000 OA
ATOM      8  H   UNL     1      52.031   6.689  15.138  0.00  0.00    +0.000 HD
BRANCH   6   9
ATOM      9  C   UNL     1      52.026   5.301  17.317  0.00  0.00    +0.000 A 
ATOM     10  C   UNL     1      53.403   5.375  17.481  0.00  0.00    +0.000 A 
ATOM     11  S   UNL     1      54.129   3.873  17.833  0.00  0.00    +0.000 S 
ATOM     12  C   UNL     1      52.635   3.065  17.727  0.00  0.00    +0.000 A 
ATOM     13  N   UNL     1      52.551   1.719  17.906  0.00  0.00    +0.000 NA
ATOM     14  C   UNL     1      51.362   1.235  17.758  0.00  0.00    +0.000 A 
ATOM     15  N   UNL     1      50.250   1.974  17.451  0.00  0.00    +0.000 N 
ATOM     16  C   UNL     1      50.279   3.341  17.306  0.00  0.00    +0.000 A 
ATOM     17  O   UNL     1      49.258   3.987  17.107  0.00  0.00    +0.000 OA
ATOM     18  C   UNL     1      51.596   3.931  17.442  0.00  0.00    +0.000 A 
ATOM     19  H   UNL     1      49.345   1.535  17.362  0.00  0.00    +0.000 HD
ENDBRANCH   6   9
ENDBRANCH   4   5
ENDBRANCH   3   4
ENDBRANCH   1   3
BRANCH   1  20
ATOM     20  C   UNL     1      48.021   5.919  14.800  0.00  0.00    +0.000 C 
BRANCH  20  21
ATOM     21  C   UNL     1      47.041   5.568  13.708  0.00  0.00    +0.000 A 
ATOM     22  C   UNL     1      46.698   6.496  12.717  0.00  0.00    +0.000 A 
ATOM     23  C   UNL     1      45.795   6.154  11.707  0.00  0.00    +0.000 A 
ATOM     24  C   UNL     1      45.206   4.882  11.675  0.00  0.00    +0.000 A 
ATOM     25  C   UNL     1      45.557   3.951  12.660  0.00  0.00    +0.000 A 
ATOM     26  C   UNL     1      46.464   4.291  13.668  0.00  0.00    +0.000 A 
BRANCH  24  27
ATOM     27  C   UNL     1      44.228   4.512  10.590  0.00  0.00    +0.000 C 
BRANCH  27  28
ATOM     28  N   UNL     1      44.811   3.596   9.636  0.00  0.00    +0.000 N 
ATOM     29  C   UNL     1      45.599   4.071   8.614  0.00  0.00    +0.000 C 
ATOM     30  O   UNL     1      45.834   5.262   8.434  0.00  0.00    +0.000 OA
ATOM     31  H   UNL     1      44.837   2.616   9.882  0.00  0.00    +0.000 HD
BRANCH  29  32
ATOM     32  C   UNL     1      46.204   3.053   7.712  0.00  0.00    +0.000 A 
ATOM     33  C   UNL     1      46.695   3.393   6.452  0.00  0.00    +0.000 A 
ATOM     34  C   UNL     1      47.252   2.385   5.682  0.00  0.00    +0.000 A 
ATOM     35  N   UNL     1      47.346   1.101   6.083  0.00  0.00    +0.000 NA
ATOM     36  C   UNL     1      46.880   0.803   7.316  0.00  0.00    +0.000 A 
ATOM     37  C   UNL     1      46.310   1.737   8.163  0.00  0.00    +0.000 A 
ENDBRANCH  29  32
ENDBRANCH  27  28
ENDBRANCH  24  27
ENDBRANCH  20  21
ENDBRANCH   1  20
TORSDOF 9
ENDMDL
MODEL 8
REMARK VINA RESULT:    -7.241      3.110      9.867
REMARK INTER + INTRA:         -12.426
REMARK INTER:                 -11.009
REMARK INTRA:                  -1.417
REMARK UNBOUND:                -1.375
REMARK  Name = 
REMARK  9 active torsions:
REMARK  status: ('A' for Active; 'I' for Inactive)
REMARK    1  A    between atoms: C_2  and  C_3
REMARK    2  A    between atoms: C_2  and  O_17
REMARK    3  A    between atoms: C_3  and  N_4
REMARK    4  A    between atoms: C_5  and  C_7
REMARK    5  A    between atoms: O_17  and  C_18
REMARK    6  A    between atoms: C_18  and  C_19
REMARK    7  A    between atoms: C_22  and  C_23
REMARK    8  A    between atoms: C_23  and  N_24
REMARK    9  A    between atoms: C_25  and  C_27
REMARK                            x       y       z     vdW  Elec       q    Type
REMARK                         _______ _______ _______ _____ _____    ______ ____
ROOT
ATOM      1  O   UNL     1      48.574   7.626  12.967  0.00  0.00    +0.000 OA
ENDROOT
BRANCH   1   3
ATOM      2  O   UNL     1      48.761   9.288  11.392  0.00  0.00    +0.000 OA
ATOM      3  C   UNL     1      48.088   8.529  12.078  0.00  0.00    +0.000 C 
BRANCH   3   4
ATOM      4  C   UNL     1      46.575   8.423  11.982  0.00  0.00    +0.000 C 
BRANCH   4   5
ATOM      5  N   UNL     1      46.159   7.053  11.764  0.00  0.00    +0.000 N 
ATOM      6  C   UNL     1      44.847   6.743  11.508  0.00  0.00    +0.000 C 
ATOM      7  O   UNL     1      43.984   7.606  11.376  0.00  0.00    +0.000 OA
ATOM      8  H   UNL     1      46.785   6.326  12.101  0.00  0.00    +0.000 HD
BRANCH   6   9
ATOM      9  C   UNL     1      44.535   5.321  11.325  0.00  0.00    +0.000 A 
ATOM     10  C   UNL     1      43.799   4.648  12.290  0.00  0.00    +0.000 A 
ATOM     11  S   UNL     1      43.485   3.019  11.895  0.00  0.00    +0.000 S 
ATOM     12  C   UNL     1      44.367   3.144  10.445  0.00  0.00    +0.000 A 
ATOM     13  N   UNL     1      44.515   2.074   9.619  0.00  0.00    +0.000 NA
ATOM     14  C   UNL     1      45.241   2.303   8.575  0.00  0.00    +0.000 A 
ATOM     15  N   UNL     1      45.831   3.505   8.281  0.00  0.00    +0.000 N 
ATOM     16  C   UNL     1      45.671   4.624   9.062  0.00  0.00    +0.000 A 
ATOM     17  O   UNL     1      46.145   5.707   8.738  0.00  0.00    +0.000 OA
ATOM     18  C   UNL     1      44.880   4.415  10.259  0.00  0.00    +0.000 A 
ATOM     19  H   UNL     1      46.377   3.621   7.440  0.00  0.00    +0.000 HD
ENDBRANCH   6   9
ENDBRANCH   4   5
ENDBRANCH   3   4
ENDBRANCH   1   3
BRANCH   1  20
ATOM     20  C   UNL     1      48.661   8.052  14.331  0.00  0.00    +0.000 C 
BRANCH  20  21
ATOM     21  C   UNL     1      48.628   6.831  15.216  0.00  0.00    +0.000 A 
ATOM     22  C   UNL     1      47.774   5.758  14.935  0.00  0.00    +0.000 A 
ATOM     23  C   UNL     1      47.759   4.629  15.760  0.00  0.00    +0.000 A 
ATOM     24  C   UNL     1      48.588   4.557  16.888  0.00  0.00    +0.000 A 
ATOM     25  C   UNL     1      49.448   5.628  17.163  0.00  0.00    +0.000 A 
ATOM     26  C   UNL     1      49.467   6.754  16.336  0.00  0.00    +0.000 A 
BRANCH  24  27
ATOM     27  C   UNL     1      48.570   3.345  17.782  0.00  0.00    +0.000 C 
BRANCH  27  28
ATOM     28  N   UNL     1      49.908   2.917  18.126  0.00  0.00    +0.000 N 
ATOM     29  C   UNL     1      50.613   2.100  17.272  0.00  0.00    +0.000 C 
ATOM     30  O   UNL     1      50.164   1.677  16.211  0.00  0.00    +0.000 OA
ATOM     31  H   UNL     1      50.388   3.422  18.857  0.00  0.00    +0.000 HD
BRANCH  29  32
ATOM     32  C   UNL     1      52.003   1.755  17.679  0.00  0.00    +0.000 A 
ATOM     33  C   UNL     1      52.601   0.558  17.290  0.00  0.00    +0.000 A 
ATOM     34  C   UNL     1      53.902   0.321  17.704  0.00  0.00    +0.000 A 
ATOM     35  N   UNL     1      54.616   1.181  18.458  0.00  0.00    +0.000 NA
ATOM     36  C   UNL     1      54.019   2.342  18.804  0.00  0.00    +0.000 A 
ATOM     37  C   UNL     1      52.726   2.675  18.438  0.00  0.00    +0.000 A 
ENDBRANCH  29  32
ENDBRANCH  27  28
ENDBRANCH  24  27
ENDBRANCH  20  21
ENDBRANCH   1  20
TORSDOF 9
ENDMDL
MODEL 9
REMARK VINA RESULT:    -7.149      3.948     10.469
REMARK INTER + INTRA:         -12.286
REMARK INTER:                 -11.142
REMARK INTRA:                  -1.144
REMARK UNBOUND:                -1.375
REMARK  Name = 
REMARK  9 active torsions:
REMARK  status: ('A' for Active; 'I' for Inactive)
REMARK    1  A    between atoms: C_2  and  C_3
REMARK    2  A    between atoms: C_2  and  O_17
REMARK    3  A    between atoms: C_3  and  N_4
REMARK    4  A    between atoms: C_5  and  C_7
REMARK    5  A    between atoms: O_17  and  C_18
REMARK    6  A    between atoms: C_18  and  C_19
REMARK    7  A    between atoms: C_22  and  C_23
REMARK    8  A    between atoms: C_23  and  N_24
REMARK    9  A    between atoms: C_25  and  C_27
REMARK                            x       y       z     vdW  Elec       q    Type
REMARK                         _______ _______ _______ _____ _____    ______ ____
ROOT
ATOM      1  O   UNL     1      49.134   4.755  16.526  0.00  0.00    +0.000 OA
ENDROOT
BRANCH   1   3
ATOM      2  O   UNL     1      49.060   6.549  17.959  0.00  0.00    +0.000 OA
ATOM      3  C   UNL     1      49.054   6.075  16.829  0.00  0.00    +0.000 C 
BRANCH   3   4
ATOM      4  C   UNL     1      49.035   6.914  15.563  0.00  0.00    +0.000 C 
BRANCH   4   5
ATOM      5  N   UNL     1      47.820   6.693  14.807  0.00  0.00    +0.000 N 
ATOM      6  C   UNL     1      47.864   6.337  13.482  0.00  0.00    +0.000 C 
ATOM      7  O   UNL     1      48.922   6.115  12.899  0.00  0.00    +0.000 OA
ATOM      8  H   UNL     1      46.967   7.098  15.184  0.00  0.00    +0.000 HD
BRANCH   6   9
ATOM      9  C   UNL     1      46.573   6.161  12.809  0.00  0.00    +0.000 A 
ATOM     10  C   UNL     1      45.935   7.258  12.245  0.00  0.00    +0.000 A 
ATOM     11  S   UNL     1      44.472   6.866  11.461  0.00  0.00    +0.000 S 
ATOM     12  C   UNL     1      44.616   5.227  11.894  0.00  0.00    +0.000 A 
ATOM     13  N   UNL     1      43.661   4.323  11.544  0.00  0.00    +0.000 NA
ATOM     14  C   UNL     1      43.881   3.124  11.973  0.00  0.00    +0.000 A 
ATOM     15  N   UNL     1      44.969   2.746  12.716  0.00  0.00    +0.000 N 
ATOM     16  C   UNL     1      45.980   3.614  13.053  0.00  0.00    +0.000 A 
ATOM     17  O   UNL     1      46.979   3.235  13.652  0.00  0.00    +0.000 OA
ATOM     18  C   UNL     1      45.771   4.980  12.613  0.00  0.00    +0.000 A 
ATOM     19  H   UNL     1      45.088   1.787  13.009  0.00  0.00    +0.000 HD
ENDBRANCH   6   9
ENDBRANCH   4   5
ENDBRANCH   3   4
ENDBRANCH   1   3
BRANCH   1  20
ATOM     20  C   UNL     1      49.103   3.841  17.628  0.00  0.00    +0.000 C 
BRANCH  20  21
ATOM     21  C   UNL     1      50.429   3.124  17.690  0.00  0.00    +0.000 A 
ATOM     22  C   UNL     1      51.581   3.771  18.152  0.00  0.00    +0.000 A 
ATOM     23  C   UNL     1      52.801   3.091  18.212  0.00  0.00    +0.000 A 
ATOM     24  C   UNL     1      52.896   1.755  17.797  0.00  0.00    +0.000 A 
ATOM     25  C   UNL     1      51.741   1.106  17.344  0.00  0.00    +0.000 A 
ATOM     26  C   UNL     1      50.520   1.784  17.289  0.00  0.00    +0.000 A 
BRANCH  24  27
ATOM     27  C   UNL     1      54.211   1.022  17.854  0.00  0.00    +0.000 C 
BRANCH  27  28
ATOM     28  N   UNL     1      54.023  -0.411  17.809  0.00  0.00    +0.000 N 
ATOM     29  C   UNL     1      54.264  -1.176  18.927  0.00  0.00    +0.000 C 
ATOM     30  O   UNL     1      54.660  -0.714  19.993  0.00  0.00    +0.000 OA
ATOM     31  H   UNL     1      53.484  -0.790  17.043  0.00  0.00    +0.000 HD
BRANCH  29  32
ATOM     32  C   UNL     1      53.991  -2.634  18.807  0.00  0.00    +0.000 A 
ATOM     33  C   UNL     1      53.035  -3.266  19.601  0.00  0.00    +0.000 A 
ATOM     34  C   UNL     1      52.838  -4.624  19.417  0.00  0.00    +0.000 A 
ATOM     35  N   UNL     1      53.515  -5.365  18.516  0.00  0.00    +0.000 NA
ATOM     36  C   UNL     1      54.421  -4.723  17.747  0.00  0.00    +0.000 A 
ATOM     37  C   UNL     1      54.690  -3.369  17.849  0.00  0.00    +0.000 A 
ENDBRANCH  29  32
ENDBRANCH  27  28
ENDBRANCH  24  27
ENDBRANCH  20  21
ENDBRANCH   1  20
TORSDOF 9
ENDMDL
