MODEL 1
REMARK VINA RESULT:    -7.901      0.000      0.000
REMARK INTER + INTRA:         -11.634
REMARK INTER:                 -10.672
REMARK INTRA:                  -0.961
REMARK UNBOUND:                -0.961
REMARK  Name = 
REMARK  7 active torsions:
REMARK  status: ('A' for Active; 'I' for Inactive)
REMARK    1  A    between atoms: C_1  and  C_2
REMARK    2  A    between atoms: C_6  and  S_7
REMARK    3  A    between atoms: S_7  and  C_8
REMARK    4  A    between atoms: C_8  and  C_9
REMARK    5  A    between atoms: C_12  and  C_13
REMARK    6  A    between atoms: C_13  and  N_14
REMARK    7  A    between atoms: C_15  and  C_17
REMARK                            x       y       z     vdW  Elec       q    Type
REMARK                         _______ _______ _______ _____ _____    ______ ____
ROOT
ATOM      1  C   UNL     1      47.308   8.296  13.490  0.00  0.00    +0.000 C 
ENDROOT
BRANCH   1   5
ATOM      2  C   UNL     1      44.702   5.888  11.170  0.00  0.00    +0.000 A 
ATOM      3  C   UNL     1      44.467   7.221  11.439  0.00  0.00    +0.000 A 
ATOM      4  N   UNL     1      45.283   7.996  12.178  0.00  0.00    +0.000 NA
ATOM      5  C   UNL     1      46.381   7.412  12.688  0.00  0.00    +0.000 A 
ATOM      6  N   UNL     1      46.675   6.104  12.545  0.00  0.00    +0.000 NA
ATOM      7  C   UNL     1      45.828   5.379  11.783  0.00  0.00    +0.000 A 
BRANCH   2   8
ATOM      8  C   UNL     1      43.783   5.019  10.360  0.00  0.00    +0.000 C 
BRANCH   8   9
ATOM      9  S   UNL     1      44.087   3.226  10.566  0.00  0.00    +0.000 S 
BRANCH   9  15
ATOM     10  C   UNL     1      46.819   0.034   7.667  0.00  0.00    +0.000 C 
ATOM     11  C   UNL     1      46.353   1.436   7.900  0.00  0.00    +0.000 A 
ATOM     12  N   UNL     1      46.757   2.392   7.049  0.00  0.00    +0.000 NA
ATOM     13  C   UNL     1      46.317   3.640   7.293  0.00  0.00    +0.000 A 
ATOM     14  C   UNL     1      45.497   3.959   8.347  0.00  0.00    +0.000 A 
ATOM     15  C   UNL     1      45.136   2.909   9.161  0.00  0.00    +0.000 A 
ATOM     16  N   UNL     1      45.548   1.645   8.956  0.00  0.00    +0.000 NA
ENDBRANCH   9  15
ENDBRANCH   8   9
ENDBRANCH   2   8
ENDBRANCH   1   5
BRANCH   1  17
ATOM     17  N   UNL     1      47.682   7.720  14.766  0.00  0.00    +0.000 N 
ATOM     18  C   UNL     1      48.905   7.127  14.930  0.00  0.00    +0.000 C 
ATOM     19  O   UNL     1      49.732   7.099  14.021  0.00  0.00    +0.000 OA
ATOM     20  H   UNL     1      47.134   7.996  15.577  0.00  0.00    +0.000 HD
BRANCH  18  21
ATOM     21  C   UNL     1      49.145   6.435  16.202  0.00  0.00    +0.000 A 
ATOM     22  C   UNL     1      50.057   6.951  17.113  0.00  0.00    +0.000 A 
ATOM     23  S   UNL     1      50.452   5.861  18.366  0.00  0.00    +0.000 S 
ATOM     24  C   UNL     1      49.366   4.699  17.765  0.00  0.00    +0.000 A 
ATOM     25  N   UNL     1      49.280   3.456  18.313  0.00  0.00    +0.000 NA
ATOM     26  C   UNL     1      48.371   2.705  17.786  0.00  0.00    +0.000 A 
ATOM     27  N   UNL     1      47.509   3.098  16.794  0.00  0.00    +0.000 N 
ATOM     28  C   UNL     1      47.546   4.349  16.229  0.00  0.00    +0.000 A 
ATOM     29  O   UNL     1      46.703   4.712  15.414  0.00  0.00    +0.000 OA
ATOM     30  C   UNL     1      48.627   5.188  16.703  0.00  0.00    +0.000 A 
ATOM     31  H   UNL     1      46.764   2.491  16.484  0.00  0.00    +0.000 HD
ENDBRANCH  18  21
ENDBRANCH   1  17
TORSDOF 6
ENDMDL
MODEL 2
REMARK VINA RESULT:    -7.709      2.038      2.567
REMARK INTER + INTRA:         -11.375
REMARK INTER:                 -10.425
REMARK INTRA:                  -0.950
REMARK UNBOUND:                -0.961
REMARK  Name = 
REMARK  7 active torsions:
REMARK  status: ('A' for Active; 'I' for Inactive)
REMARK    1  A    between atoms: C_1  and  C_2
REMARK    2  A    between atoms: C_6  and  S_7
REMARK    3  A    between atoms: S_7  and  C_8
REMARK    4  A    between atoms: C_8  and  C_9
REMARK    5  A    between atoms: C_12  and  C_13
REMARK    6  A    between atoms: C_13  and  N_14
REMARK    7  A    between atoms: C_15  and  C_17
REMARK                            x       y       z     vdW  Elec       q    Type
REMARK                         _______ _______ _______ _____ _____    ______ ____
ROOT
ATOM      1  C   UNL     1      48.077   6.351  14.885  0.00  0.00    +0.000 C 
ENDROOT
BRANCH   1   5
ATOM      2  C   UNL     1      45.592   3.924  12.454  0.00  0.00    +0.000 A 
ATOM      3  C   UNL     1      46.490   3.415  13.369  0.00  0.00    +0.000 A 
ATOM      4  N   UNL     1      47.289   4.173  14.143  0.00  0.00    +0.000 NA
ATOM      5  C   UNL     1      47.201   5.506  13.990  0.00  0.00    +0.000 A 
ATOM      6  N   UNL     1      46.407   6.109  13.082  0.00  0.00    +0.000 NA
ATOM      7  C   UNL     1      45.619   5.299  12.342  0.00  0.00    +0.000 A 
BRANCH   2   8
ATOM      8  C   UNL     1      44.713   3.079  11.577  0.00  0.00    +0.000 C 
BRANCH   8   9
ATOM      9  S   UNL     1      44.099   3.946  10.088  0.00  0.00    +0.000 S 
BRANCH   9  15
ATOM     10  C   UNL     1      46.695   0.225   7.749  0.00  0.00    +0.000 C 
ATOM     11  C   UNL     1      46.429   1.692   7.866  0.00  0.00    +0.000 A 
ATOM     12  N   UNL     1      47.107   2.529   7.065  0.00  0.00    +0.000 NA
ATOM     13  C   UNL     1      46.841   3.840   7.202  0.00  0.00    +0.000 A 
ATOM     14  C   UNL     1      45.931   4.337   8.103  0.00  0.00    +0.000 A 
ATOM     15  C   UNL     1      45.286   3.398   8.877  0.00  0.00    +0.000 A 
ATOM     16  N   UNL     1      45.516   2.077   8.774  0.00  0.00    +0.000 NA
ENDBRANCH   9  15
ENDBRANCH   8   9
ENDBRANCH   2   8
ENDBRANCH   1   5
BRANCH   1  17
ATOM     17  N   UNL     1      48.984   5.567  15.699  0.00  0.00    +0.000 N 
ATOM     18  C   UNL     1      49.071   5.784  17.048  0.00  0.00    +0.000 C 
ATOM     19  O   UNL     1      48.361   6.613  17.613  0.00  0.00    +0.000 OA
ATOM     20  H   UNL     1      49.344   4.707  15.294  0.00  0.00    +0.000 HD
BRANCH  18  21
ATOM     21  C   UNL     1      50.120   5.058  17.773  0.00  0.00    +0.000 A 
ATOM     22  C   UNL     1      50.943   5.735  18.664  0.00  0.00    +0.000 A 
ATOM     23  S   UNL     1      52.300   4.822  19.158  0.00  0.00    +0.000 S 
ATOM     24  C   UNL     1      51.788   3.478  18.250  0.00  0.00    +0.000 A 
ATOM     25  N   UNL     1      52.559   2.363  18.138  0.00  0.00    +0.000 NA
ATOM     26  C   UNL     1      52.013   1.406  17.464  0.00  0.00    +0.000 A 
ATOM     27  N   UNL     1      50.748   1.444  16.933  0.00  0.00    +0.000 N 
ATOM     28  C   UNL     1      49.929   2.541  17.043  0.00  0.00    +0.000 A 
ATOM     29  O   UNL     1      48.768   2.518  16.647  0.00  0.00    +0.000 OA
ATOM     30  C   UNL     1      50.543   3.684  17.686  0.00  0.00    +0.000 A 
ATOM     31  H   UNL     1      50.347   0.631  16.491  0.00  0.00    +0.000 HD
ENDBRANCH  18  21
ENDBRANCH   1  17
TORSDOF 6
ENDMDL
MODEL 3
REMARK VINA RESULT:    -7.681      2.102      3.468
REMARK INTER + INTRA:         -11.337
REMARK INTER:                 -10.386
REMARK INTRA:                  -0.951
REMARK UNBOUND:                -0.961
REMARK  Name = 
REMARK  7 active torsions:
REMARK  status: ('A' for Active; 'I' for Inactive)
REMARK    1  A    between atoms: C_1  and  C_2
REMARK    2  A    between atoms: C_6  and  S_7
REMARK    3  A    between atoms: S_7  and  C_8
REMARK    4  A    between atoms: C_8  and  C_9
REMARK    5  A    between atoms: C_12  and  C_13
REMARK    6  A    between atoms: C_13  and  N_14
REMARK    7  A    between atoms: C_15  and  C_17
REMARK                            x       y       z     vdW  Elec       q    Type
REMARK                         _______ _______ _______ _____ _____    ______ ____
ROOT
ATOM      1  C   UNL     1      47.474   4.100  15.722  0.00  0.00    +0.000 C 
ENDROOT
BRANCH   1   5
ATOM      2  C   UNL     1      45.553   4.818  12.011  0.00  0.00    +0.000 A 
ATOM      3  C   UNL     1      45.774   3.555  12.521  0.00  0.00    +0.000 A 
ATOM      4  N   UNL     1      46.387   3.312  13.695  0.00  0.00    +0.000 NA
ATOM      5  C   UNL     1      46.816   4.379  14.391  0.00  0.00    +0.000 A 
ATOM      6  N   UNL     1      46.712   5.651  13.959  0.00  0.00    +0.000 NA
ATOM      7  C   UNL     1      46.077   5.836  12.781  0.00  0.00    +0.000 A 
BRANCH   2   8
ATOM      8  C   UNL     1      44.885   5.089  10.694  0.00  0.00    +0.000 C 
BRANCH   8   9
ATOM      9  S   UNL     1      44.048   3.630   9.973  0.00  0.00    +0.000 S 
BRANCH   9  15
ATOM     10  C   UNL     1      46.792  -0.007   7.669  0.00  0.00    +0.000 C 
ATOM     11  C   UNL     1      46.470   1.450   7.775  0.00  0.00    +0.000 A 
ATOM     12  N   UNL     1      47.118   2.307   6.969  0.00  0.00    +0.000 NA
ATOM     13  C   UNL     1      46.801   3.608   7.095  0.00  0.00    +0.000 A 
ATOM     14  C   UNL     1      45.871   4.076   7.990  0.00  0.00    +0.000 A 
ATOM     15  C   UNL     1      45.259   3.119   8.770  0.00  0.00    +0.000 A 
ATOM     16  N   UNL     1      45.540   1.807   8.677  0.00  0.00    +0.000 NA
ENDBRANCH   9  15
ENDBRANCH   8   9
ENDBRANCH   2   8
ENDBRANCH   1   5
BRANCH   1  17
ATOM     17  N   UNL     1      47.787   5.304  16.466  0.00  0.00    +0.000 N 
ATOM     18  C   UNL     1      49.004   5.446  17.078  0.00  0.00    +0.000 C 
ATOM     19  O   UNL     1      49.875   4.584  16.984  0.00  0.00    +0.000 OA
ATOM     20  H   UNL     1      47.199   6.116  16.302  0.00  0.00    +0.000 HD
BRANCH  18  21
ATOM     21  C   UNL     1      49.184   6.622  17.936  0.00  0.00    +0.000 A 
ATOM     22  C   UNL     1      49.699   6.475  19.218  0.00  0.00    +0.000 A 
ATOM     23  S   UNL     1      49.531   7.875  20.180  0.00  0.00    +0.000 S 
ATOM     24  C   UNL     1      48.830   8.736  18.891  0.00  0.00    +0.000 A 
ATOM     25  N   UNL     1      48.338   9.993  19.062  0.00  0.00    +0.000 NA
ATOM     26  C   UNL     1      47.890  10.539  17.981  0.00  0.00    +0.000 A 
ATOM     27  N   UNL     1      47.930   9.961  16.737  0.00  0.00    +0.000 N 
ATOM     28  C   UNL     1      48.438   8.704  16.516  0.00  0.00    +0.000 A 
ATOM     29  O   UNL     1      48.554   8.247  15.384  0.00  0.00    +0.000 OA
ATOM     30  C   UNL     1      48.843   8.005  17.718  0.00  0.00    +0.000 A 
ATOM     31  H   UNL     1      47.641  10.475  15.918  0.00  0.00    +0.000 HD
ENDBRANCH  18  21
ENDBRANCH   1  17
TORSDOF 6
ENDMDL
MODEL 4
REMARK VINA RESULT:    -7.641      1.708      2.142
REMARK INTER + INTRA:         -11.283
REMARK INTER:                 -10.457
REMARK INTRA:                  -0.826
REMARK UNBOUND:                -0.961
REMARK  Name = 
REMARK  7 active torsions:
REMARK  status: ('A' for Active; 'I' for Inactive)
REMARK    1  A    between atoms: C_1  and  C_2
REMARK    2  A    between atoms: C_6  and  S_7
REMARK    3  A    between atoms: S_7  and  C_8
REMARK    4  A    between atoms: C_8  and  C_9
REMARK    5  A    between atoms: C_12  and  C_13
REMARK    6  A    between atoms: C_13  and  N_14
REMARK    7  A    between atoms: C_15  and  C_17
REMARK                            x       y       z     vdW  Elec       q    Type
REMARK                         _______ _______ _______ _____ _____    ______ ____
ROOT
ATOM      1  C   UNL     1      48.269   7.399  13.974  0.00  0.00    +0.000 C 
ENDROOT
BRANCH   1   5
ATOM      2  C   UNL     1      45.873   4.234  12.487  0.00  0.00    +0.000 A 
ATOM      3  C   UNL     1      46.733   4.098  13.556  0.00  0.00    +0.000 A 
ATOM      4  N   UNL     1      47.503   5.092  14.036  0.00  0.00    +0.000 NA
ATOM      5  C   UNL     1      47.426   6.279  13.410  0.00  0.00    +0.000 A 
ATOM      6  N   UNL     1      46.671   6.506  12.317  0.00  0.00    +0.000 NA
ATOM      7  C   UNL     1      45.910   5.476  11.888  0.00  0.00    +0.000 A 
BRANCH   2   8
ATOM      8  C   UNL     1      45.027   3.120  11.940  0.00  0.00    +0.000 C 
BRANCH   8   9
ATOM      9  S   UNL     1      44.014   3.600  10.494  0.00  0.00    +0.000 S 
BRANCH   9  15
ATOM     10  C   UNL     1      46.676   0.220   7.747  0.00  0.00    +0.000 C 
ATOM     11  C   UNL     1      46.314   1.654   7.971  0.00  0.00    +0.000 A 
ATOM     12  N   UNL     1      46.861   2.582   7.169  0.00  0.00    +0.000 NA
ATOM     13  C   UNL     1      46.511   3.860   7.403  0.00  0.00    +0.000 A 
ATOM     14  C   UNL     1      45.644   4.236   8.399  0.00  0.00    +0.000 A 
ATOM     15  C   UNL     1      45.135   3.211   9.165  0.00  0.00    +0.000 A 
ATOM     16  N   UNL     1      45.452   1.919   8.967  0.00  0.00    +0.000 NA
ENDBRANCH   9  15
ENDBRANCH   8   9
ENDBRANCH   2   8
ENDBRANCH   1   5
BRANCH   1  17
ATOM     17  N   UNL     1      48.160   7.526  15.413  0.00  0.00    +0.000 N 
ATOM     18  C   UNL     1      49.142   7.032  16.230  0.00  0.00    +0.000 C 
ATOM     19  O   UNL     1      50.155   6.506  15.773  0.00  0.00    +0.000 OA
ATOM     20  H   UNL     1      47.489   8.201  15.770  0.00  0.00    +0.000 HD
BRANCH  18  21
ATOM     21  C   UNL     1      48.884   7.062  17.675  0.00  0.00    +0.000 A 
ATOM     22  C   UNL     1      48.959   8.262  18.369  0.00  0.00    +0.000 A 
ATOM     23  S   UNL     1      48.960   8.064  20.065  0.00  0.00    +0.000 S 
ATOM     24  C   UNL     1      48.791   6.378  19.917  0.00  0.00    +0.000 A 
ATOM     25  N   UNL     1      48.833   5.563  21.006  0.00  0.00    +0.000 NA
ATOM     26  C   UNL     1      48.634   4.314  20.742  0.00  0.00    +0.000 A 
ATOM     27  N   UNL     1      48.350   3.813  19.497  0.00  0.00    +0.000 N 
ATOM     28  C   UNL     1      48.276   4.603  18.375  0.00  0.00    +0.000 A 
ATOM     29  O   UNL     1      47.925   4.149  17.291  0.00  0.00    +0.000 OA
ATOM     30  C   UNL     1      48.611   5.994  18.602  0.00  0.00    +0.000 A 
ATOM     31  H   UNL     1      48.120   2.838  19.371  0.00  0.00    +0.000 HD
ENDBRANCH  18  21
ENDBRANCH   1  17
TORSDOF 6
ENDMDL
MODEL 5
REMARK VINA RESULT:    -7.527      2.338      7.414
REMARK INTER + INTRA:         -11.128
REMARK INTER:                 -10.026
REMARK INTRA:                  -1.102
REMARK UNBOUND:                -0.961
REMARK  Name = 
REMARK  7 active torsions:
REMARK  status: ('A' for Active; 'I' for Inactive)
REMARK    1  A    between atoms: C_1  and  C_2
REMARK    2  A    between atoms: C_6  and  S_7
REMARK    3  A    between atoms: S_7  and  C_8
REMARK    4  A    between atoms: C_8  and  C_9
REMARK    5  A    between atoms: C_12  and  C_13
REMARK    6  A    between atoms: C_13  and  N_14
REMARK    7  A    between atoms: C_15  and  C_17
REMARK                            x       y       z     vdW  Elec       q    Type
REMARK                         _______ _______ _______ _____ _____    ______ ____
ROOT
ATOM      1  C   UNL     1      48.013   8.315  12.475  0.00  0.00    +0.000 C 
ENDROOT
BRANCH   1   5
ATOM      2  C   UNL     1      49.143   7.267  16.424  0.00  0.00    +0.000 A 
ATOM      3  C   UNL     1      48.364   8.364  16.123  0.00  0.00    +0.000 A 
ATOM      4  N   UNL     1      48.002   8.712  14.874  0.00  0.00    +0.000 NA
ATOM      5  C   UNL     1      48.449   7.937  13.871  0.00  0.00    +0.000 A 
ATOM      6  N   UNL     1      49.269   6.881  14.044  0.00  0.00    +0.000 NA
ATOM      7  C   UNL     1      49.588   6.571  15.319  0.00  0.00    +0.000 A 
BRANCH   2   8
ATOM      8  C   UNL     1      49.562   6.888  17.816  0.00  0.00    +0.000 C 
BRANCH   8   9
ATOM      9  S   UNL     1      48.397   5.758  18.659  0.00  0.00    +0.000 S 
BRANCH   9  15
ATOM     10  C   UNL     1      51.225   1.693  17.415  0.00  0.00    +0.000 C 
ATOM     11  C   UNL     1      49.962   2.464  17.193  0.00  0.00    +0.000 A 
ATOM     12  N   UNL     1      49.086   2.004  16.285  0.00  0.00    +0.000 NA
ATOM     13  C   UNL     1      47.964   2.726  16.114  0.00  0.00    +0.000 A 
ATOM     14  C   UNL     1      47.692   3.878  16.809  0.00  0.00    +0.000 A 
ATOM     15  C   UNL     1      48.651   4.265  17.719  0.00  0.00    +0.000 A 
ATOM     16  N   UNL     1      49.786   3.575  17.928  0.00  0.00    +0.000 NA
ENDBRANCH   9  15
ENDBRANCH   8   9
ENDBRANCH   2   8
ENDBRANCH   1   5
BRANCH   1  17
ATOM     17  N   UNL     1      47.506   7.191  11.713  0.00  0.00    +0.000 N 
ATOM     18  C   UNL     1      46.158   6.974  11.608  0.00  0.00    +0.000 C 
ATOM     19  O   UNL     1      45.342   7.739  12.118  0.00  0.00    +0.000 OA
ATOM     20  H   UNL     1      48.148   6.743  11.066  0.00  0.00    +0.000 HD
BRANCH  18  21
ATOM     21  C   UNL     1      45.732   5.733  10.951  0.00  0.00    +0.000 A 
ATOM     22  C   UNL     1      45.895   5.581   9.581  0.00  0.00    +0.000 A 
ATOM     23  S   UNL     1      45.055   4.237   8.944  0.00  0.00    +0.000 S 
ATOM     24  C   UNL     1      44.509   3.784  10.490  0.00  0.00    +0.000 A 
ATOM     25  N   UNL     1      43.634   2.756  10.661  0.00  0.00    +0.000 NA
ATOM     26  C   UNL     1      43.357   2.494  11.895  0.00  0.00    +0.000 A 
ATOM     27  N   UNL     1      43.909   3.136  12.975  0.00  0.00    +0.000 N 
ATOM     28  C   UNL     1      44.812   4.163  12.848  0.00  0.00    +0.000 A 
ATOM     29  O   UNL     1      45.367   4.655  13.825  0.00  0.00    +0.000 OA
ATOM     30  C   UNL     1      45.063   4.572  11.481  0.00  0.00    +0.000 A 
ATOM     31  H   UNL     1      43.715   2.827  13.916  0.00  0.00    +0.000 HD
ENDBRANCH  18  21
ENDBRANCH   1  17
TORSDOF 6
ENDMDL
MODEL 6
REMARK VINA RESULT:    -6.945      2.351      8.157
REMARK INTER + INTRA:         -10.343
REMARK INTER:                  -9.686
REMARK INTRA:                  -0.656
REMARK UNBOUND:                -0.961
REMARK  Name = 
REMARK  7 active torsions:
REMARK  status: ('A' for Active; 'I' for Inactive)
REMARK    1  A    between atoms: C_1  and  C_2
REMARK    2  A    between atoms: C_6  and  S_7
REMARK    3  A    between atoms: S_7  and  C_8
REMARK    4  A    between atoms: C_8  and  C_9
REMARK    5  A    between atoms: C_12  and  C_13
REMARK    6  A    between atoms: C_13  and  N_14
REMARK    7  A    between atoms: C_15  and  C_17
REMARK                            x       y       z     vdW  Elec       q    Type
REMARK                         _______ _______ _______ _____ _____    ______ ____
ROOT
ATOM      1  C   UNL     1      48.338   7.386  12.187  0.00  0.00    +0.000 C 
ENDROOT
BRANCH   1   5
ATOM      2  C   UNL     1      49.914   6.775  16.075  0.00  0.00    +0.000 A 
ATOM      3  C   UNL     1      50.557   7.509  15.101  0.00  0.00    +0.000 A 
ATOM      4  N   UNL     1      50.071   7.708  13.861  0.00  0.00    +0.000 NA
ATOM      5  C   UNL     1      48.892   7.133  13.569  0.00  0.00    +0.000 A 
ATOM      6  N   UNL     1      48.209   6.341  14.420  0.00  0.00    +0.000 NA
ATOM      7  C   UNL     1      48.737   6.189  15.654  0.00  0.00    +0.000 A 
BRANCH   2   8
ATOM      8  C   UNL     1      50.464   6.538  17.452  0.00  0.00    +0.000 C 
BRANCH   8   9
ATOM      9  S   UNL     1      52.125   5.772  17.465  0.00  0.00    +0.000 S 
BRANCH   9  15
ATOM     10  C   UNL     1      48.736   2.038  16.670  0.00  0.00    +0.000 C 
ATOM     11  C   UNL     1      50.127   2.409  17.072  0.00  0.00    +0.000 A 
ATOM     12  N   UNL     1      50.979   1.426  17.406  0.00  0.00    +0.000 NA
ATOM     13  C   UNL     1      52.220   1.801  17.763  0.00  0.00    +0.000 A 
ATOM     14  C   UNL     1      52.634   3.110  17.798  0.00  0.00    +0.000 A 
ATOM     15  C   UNL     1      51.688   4.044  17.435  0.00  0.00    +0.000 A 
ATOM     16  N   UNL     1      50.436   3.717  17.068  0.00  0.00    +0.000 NA
ENDBRANCH   9  15
ENDBRANCH   8   9
ENDBRANCH   2   8
ENDBRANCH   1   5
BRANCH   1  17
ATOM     17  N   UNL     1      47.294   6.453  11.812  0.00  0.00    +0.000 N 
ATOM     18  C   UNL     1      45.989   6.861  11.741  0.00  0.00    +0.000 C 
ATOM     19  O   UNL     1      45.669   8.029  11.953  0.00  0.00    +0.000 OA
ATOM     20  H   UNL     1      47.585   5.588  11.363  0.00  0.00    +0.000 HD
BRANCH  18  21
ATOM     21  C   UNL     1      44.978   5.824  11.506  0.00  0.00    +0.000 A 
ATOM     22  C   UNL     1      43.938   5.650  12.410  0.00  0.00    +0.000 A 
ATOM     23  S   UNL     1      43.060   4.206  12.161  0.00  0.00    +0.000 S 
ATOM     24  C   UNL     1      44.001   3.810  10.801  0.00  0.00    +0.000 A 
ATOM     25  N   UNL     1      43.851   2.622  10.155  0.00  0.00    +0.000 NA
ATOM     26  C   UNL     1      44.595   2.489   9.108  0.00  0.00    +0.000 A 
ATOM     27  N   UNL     1      45.440   3.453   8.620  0.00  0.00    +0.000 N 
ATOM     28  C   UNL     1      45.605   4.674   9.227  0.00  0.00    +0.000 A 
ATOM     29  O   UNL     1      46.290   5.557   8.721  0.00  0.00    +0.000 OA
ATOM     30  C   UNL     1      44.882   4.824  10.473  0.00  0.00    +0.000 A 
ATOM     31  H   UNL     1      45.930   3.319   7.748  0.00  0.00    +0.000 HD
ENDBRANCH  18  21
ENDBRANCH   1  17
TORSDOF 6
ENDMDL
MODEL 7
REMARK VINA RESULT:    -6.594      2.482      8.244
REMARK INTER + INTRA:          -9.868
REMARK INTER:                  -8.910
REMARK INTRA:                  -0.959
REMARK UNBOUND:                -0.961
REMARK  Name = 
REMARK  7 active torsions:
REMARK  status: ('A' for Active; 'I' for Inactive)
REMARK    1  A    between atoms: C_1  and  C_2
REMARK    2  A    between atoms: C_6  and  S_7
REMARK    3  A    between atoms: S_7  and  C_8
REMARK    4  A    between atoms: C_8  and  C_9
REMARK    5  A    between atoms: C_12  and  C_13
REMARK    6  A    between atoms: C_13  and  N_14
REMARK    7  A    between atoms: C_15  and  C_17
REMARK                            x       y       z     vdW  Elec       q    Type
REMARK                         _______ _______ _______ _____ _____    ______ ____
ROOT
ATOM      1  C   UNL     1      48.334   7.602  13.186  0.00  0.00    +0.000 C 
ENDROOT
BRANCH   1   5
ATOM      2  C   UNL     1      48.650   6.436  17.250  0.00  0.00    +0.000 A 
ATOM      3  C   UNL     1      48.831   7.733  16.815  0.00  0.00    +0.000 A 
ATOM      4  N   UNL     1      48.738   8.116  15.528  0.00  0.00    +0.000 NA
ATOM      5  C   UNL     1      48.468   7.159  14.624  0.00  0.00    +0.000 A 
ATOM      6  N   UNL     1      48.338   5.852  14.928  0.00  0.00    +0.000 NA
ATOM      7  C   UNL     1      48.427   5.527  16.236  0.00  0.00    +0.000 A 
BRANCH   2   8
ATOM      8  C   UNL     1      48.771   6.004  18.683  0.00  0.00    +0.000 C 
BRANCH   8   9
ATOM      9  S   UNL     1      50.380   6.421  19.449  0.00  0.00    +0.000 S 
BRANCH   9  15
ATOM     10  C   UNL     1      50.970   1.799  17.363  0.00  0.00    +0.000 C 
ATOM     11  C   UNL     1      51.622   3.061  17.831  0.00  0.00    +0.000 A 
ATOM     12  N   UNL     1      52.956   3.169  17.720  0.00  0.00    +0.000 NA
ATOM     13  C   UNL     1      53.504   4.319  18.153  0.00  0.00    +0.000 A 
ATOM     14  C   UNL     1      52.773   5.351  18.687  0.00  0.00    +0.000 A 
ATOM     15  C   UNL     1      51.413   5.145  18.755  0.00  0.00    +0.000 A 
ATOM     16  N   UNL     1      50.818   4.014  18.333  0.00  0.00    +0.000 NA
ENDBRANCH   9  15
ENDBRANCH   8   9
ENDBRANCH   2   8
ENDBRANCH   1   5
BRANCH   1  17
ATOM     17  N   UNL     1      47.743   6.591  12.331  0.00  0.00    +0.000 N 
ATOM     18  C   UNL     1      46.514   6.795  11.762  0.00  0.00    +0.000 C 
ATOM     19  O   UNL     1      45.897   7.845  11.924  0.00  0.00    +0.000 OA
ATOM     20  H   UNL     1      48.362   5.871  11.969  0.00  0.00    +0.000 HD
BRANCH  18  21
ATOM     21  C   UNL     1      45.920   5.665  11.039  0.00  0.00    +0.000 A 
ATOM     22  C   UNL     1      45.966   5.626   9.651  0.00  0.00    +0.000 A 
ATOM     23  S   UNL     1      44.952   4.431   8.973  0.00  0.00    +0.000 S 
ATOM     24  C   UNL     1      44.478   3.889  10.514  0.00  0.00    +0.000 A 
ATOM     25  N   UNL     1      43.520   2.935  10.667  0.00  0.00    +0.000 NA
ATOM     26  C   UNL     1      43.309   2.587  11.892  0.00  0.00    +0.000 A 
ATOM     27  N   UNL     1      44.000   3.071  12.975  0.00  0.00    +0.000 N 
ATOM     28  C   UNL     1      44.989   4.017  12.863  0.00  0.00    +0.000 A 
ATOM     29  O   UNL     1      45.660   4.363  13.830  0.00  0.00    +0.000 OA
ATOM     30  C   UNL     1      45.179   4.527  11.520  0.00  0.00    +0.000 A 
ATOM     31  H   UNL     1      43.845   2.695  13.898  0.00  0.00    +0.000 HD
ENDBRANCH  18  21
ENDBRANCH   1  17
TORSDOF 6
ENDMDL
MODEL 8
REMARK VINA RESULT:    -6.466      2.974      8.145
REMARK INTER + INTRA:          -9.695
REMARK INTER:                  -8.450
REMARK INTRA:                  -1.245
REMARK UNBOUND:                -0.961
REMARK  Name = 
REMARK  7 active torsions:
REMARK  status: ('A' for Active; 'I' for Inactive)
REMARK    1  A    between atoms: C_1  and  C_2
REMARK    2  A    between atoms: C_6  and  S_7
REMARK    3  A    between atoms: S_7  and  C_8
REMARK    4  A    between atoms: C_8  and  C_9
REMARK    5  A    between atoms: C_12  and  C_13
REMARK    6  A    between atoms: C_13  and  N_14
REMARK    7  A    between atoms: C_15  and  C_17
REMARK                            x       y       z     vdW  Elec       q    Type
REMARK                         _______ _______ _______ _____ _____    ______ ____
ROOT
ATOM      1  C   UNL     1      48.731   8.210  14.605  0.00  0.00    +0.000 C 
ENDROOT
BRANCH   1   5
ATOM      2  C   UNL     1      51.252   7.024  17.801  0.00  0.00    +0.000 A 
ATOM      3  C   UNL     1      51.559   6.814  16.473  0.00  0.00    +0.000 A 
ATOM      4  N   UNL     1      50.766   7.181  15.449  0.00  0.00    +0.000 NA
ATOM      5  C   UNL     1      49.601   7.773  15.761  0.00  0.00    +0.000 A 
ATOM      6  N   UNL     1      49.170   7.969  17.023  0.00  0.00    +0.000 NA
ATOM      7  C   UNL     1      50.012   7.593  18.010  0.00  0.00    +0.000 A 
BRANCH   2   8
ATOM      8  C   UNL     1      52.127   6.600  18.946  0.00  0.00    +0.000 C 
BRANCH   8   9
ATOM      9  S   UNL     1      51.381   5.312  20.010  0.00  0.00    +0.000 S 
BRANCH   9  15
ATOM     10  C   UNL     1      47.773   3.008  17.231  0.00  0.00    +0.000 C 
ATOM     11  C   UNL     1      49.226   3.113  17.567  0.00  0.00    +0.000 A 
ATOM     12  N   UNL     1      50.087   2.296  16.940  0.00  0.00    +0.000 NA
ATOM     13  C   UNL     1      51.385   2.422  17.271  0.00  0.00    +0.000 A 
ATOM     14  C   UNL     1      51.845   3.325  18.197  0.00  0.00    +0.000 A 
ATOM     15  C   UNL     1      50.885   4.120  18.783  0.00  0.00    +0.000 A 
ATOM     16  N   UNL     1      49.576   4.033  18.482  0.00  0.00    +0.000 NA
ENDBRANCH   9  15
ENDBRANCH   8   9
ENDBRANCH   2   8
ENDBRANCH   1   5
BRANCH   1  17
ATOM     17  N   UNL     1      47.638   7.297  14.337  0.00  0.00    +0.000 N 
ATOM     18  C   UNL     1      47.796   6.265  13.451  0.00  0.00    +0.000 C 
ATOM     19  O   UNL     1      48.870   6.059  12.889  0.00  0.00    +0.000 OA
ATOM     20  H   UNL     1      46.868   7.288  15.001  0.00  0.00    +0.000 HD
BRANCH  18  21
ATOM     21  C   UNL     1      46.600   5.483  13.120  0.00  0.00    +0.000 A 
ATOM     22  C   UNL     1      46.595   4.107  13.310  0.00  0.00    +0.000 A 
ATOM     23  S   UNL     1      45.267   3.326  12.573  0.00  0.00    +0.000 S 
ATOM     24  C   UNL     1      44.628   4.810  12.040  0.00  0.00    +0.000 A 
ATOM     25  N   UNL     1      43.532   4.862  11.236  0.00  0.00    +0.000 NA
ATOM     26  C   UNL     1      43.132   6.059  10.961  0.00  0.00    +0.000 A 
ATOM     27  N   UNL     1      43.699   7.207  11.454  0.00  0.00    +0.000 N 
ATOM     28  C   UNL     1      44.792   7.199  12.285  0.00  0.00    +0.000 A 
ATOM     29  O   UNL     1      45.222   8.230  12.793  0.00  0.00    +0.000 OA
ATOM     30  C   UNL     1      45.350   5.884  12.526  0.00  0.00    +0.000 A 
ATOM     31  H   UNL     1      43.287   8.109  11.269  0.00  0.00    +0.000 HD
ENDBRANCH  18  21
ENDBRANCH   1  17
TORSDOF 6
ENDMDL
MODEL 9
REMARK VINA RESULT:    -6.446      3.260      4.581
REMARK INTER + INTRA:          -9.668
REMARK INTER:                  -8.943
REMARK INTRA:                  -0.726
REMARK UNBOUND:                -0.961
REMARK  Name = 
REMARK  7 active torsions:
REMARK  status: ('A' for Active; 'I' for Inactive)
REMARK    1  A    between atoms: C_1  and  C_2
REMARK    2  A    between atoms: C_6  and  S_7
REMARK    3  A    between atoms: S_7  and  C_8
REMARK    4  A    between atoms: C_8  and  C_9
REMARK    5  A    between atoms: C_12  and  C_13
REMARK    6  A    between atoms: C_13  and  N_14
REMARK    7  A    between atoms: C_15  and  C_17
REMARK                            x       y       z     vdW  Elec       q    Type
REMARK                         _______ _______ _______ _____ _____    ______ ____
ROOT
ATOM      1  C   UNL     1      47.086   8.239  13.536  0.00  0.00    +0.000 C 
ENDROOT
BRANCH   1   5
ATOM      2  C   UNL     1      44.346   5.685  11.551  0.00  0.00    +0.000 A 
ATOM      3  C   UNL     1      44.430   7.041  11.312  0.00  0.00    +0.000 A 
ATOM      4  N   UNL     1      45.292   7.864  11.939  0.00  0.00    +0.000 NA
ATOM      5  C   UNL     1      46.100   7.315  12.860  0.00  0.00    +0.000 A 
ATOM      6  N   UNL     1      46.060   6.016  13.220  0.00  0.00    +0.000 NA
ATOM      7  C   UNL     1      45.185   5.235  12.550  0.00  0.00    +0.000 A 
BRANCH   2   8
ATOM      8  C   UNL     1      43.374   4.768  10.865  0.00  0.00    +0.000 C 
BRANCH   8   9
ATOM      9  S   UNL     1      43.872   3.008  10.889  0.00  0.00    +0.000 S 
BRANCH   9  15
ATOM     10  C   UNL     1      46.818   0.417   7.623  0.00  0.00    +0.000 C 
ATOM     11  C   UNL     1      46.237   1.737   8.018  0.00  0.00    +0.000 A 
ATOM     12  N   UNL     1      46.542   2.816   7.279  0.00  0.00    +0.000 NA
ATOM     13  C   UNL     1      46.001   3.984   7.668  0.00  0.00    +0.000 A 
ATOM     14  C   UNL     1      45.175   4.109   8.758  0.00  0.00    +0.000 A 
ATOM     15  C   UNL     1      44.920   2.945   9.449  0.00  0.00    +0.000 A 
ATOM     16  N   UNL     1      45.435   1.754   9.097  0.00  0.00    +0.000 NA
ENDBRANCH   9  15
ENDBRANCH   8   9
ENDBRANCH   2   8
ENDBRANCH   1   5
BRANCH   1  17
ATOM     17  N   UNL     1      48.308   8.423  12.778  0.00  0.00    +0.000 N 
ATOM     18  C   UNL     1      49.428   7.695  13.078  0.00  0.00    +0.000 C 
ATOM     19  O   UNL     1      49.423   6.845  13.965  0.00  0.00    +0.000 OA
ATOM     20  H   UNL     1      48.230   8.896  11.882  0.00  0.00    +0.000 HD
BRANCH  18  21
ATOM     21  C   UNL     1      50.662   8.049  12.368  0.00  0.00    +0.000 A 
ATOM     22  C   UNL     1      50.799   7.747  11.019  0.00  0.00    +0.000 A 
ATOM     23  S   UNL     1      52.397   7.924  10.444  0.00  0.00    +0.000 S 
ATOM     24  C   UNL     1      52.934   8.473  11.962  0.00  0.00    +0.000 A 
ATOM     25  N   UNL     1      54.252   8.708  12.205  0.00  0.00    +0.000 NA
ATOM     26  C   UNL     1      54.499   9.175  13.384  0.00  0.00    +0.000 A 
ATOM     27  N   UNL     1      53.545   9.472  14.324  0.00  0.00    +0.000 N 
ATOM     28  C   UNL     1      52.203   9.271  14.111  0.00  0.00    +0.000 A 
ATOM     29  O   UNL     1      51.361   9.635  14.926  0.00  0.00    +0.000 OA
ATOM     30  C   UNL     1      51.887   8.636  12.848  0.00  0.00    +0.000 A 
ATOM     31  H   UNL     1      53.797   9.915  15.195  0.00  0.00    +0.000 HD
ENDBRANCH  18  21
ENDBRANCH   1  17
TORSDOF 6
ENDMDL
