MODEL 1
REMARK VINA RESULT:    -7.129      0.000      0.000
REMARK INTER + INTRA:         -10.022
REMARK INTER:                  -9.630
REMARK INTRA:                  -0.392
REMARK UNBOUND:                -0.392
REMARK  Name = 
REMARK  7 active torsions:
REMARK  status: ('A' for Active; 'I' for Inactive)
REMARK    1  A    between atoms: C_1  and  O_2
REMARK    2  A    between atoms: O_2  and  C_3
REMARK    3  A    between atoms: C_3  and  C_4
REMARK    4  A    between atoms: C_3  and  C_18
REMARK    5  A    between atoms: C_4  and  N_5
REMARK    6  A    between atoms: N_8  and  C_9
REMARK    7  A    between atoms: C_9  and  C_10
REMARK                            x       y       z     vdW  Elec       q    Type
REMARK                         _______ _______ _______ _____ _____    ______ ____
ROOT
ATOM      1  C   UNL     1      46.256   5.532  13.382  0.00  0.00    +0.000 C 
ENDROOT
BRANCH   1   2
ATOM      2  C   UNL     1      46.181   6.933  12.801  0.00  0.00    +0.000 A 
ATOM      3  C   UNL     1      45.010   7.657  12.633  0.00  0.00    +0.000 A 
ATOM      4  S   UNL     1      45.277   9.264  12.121  0.00  0.00    +0.000 S 
ATOM      5  C   UNL     1      46.967   9.064  12.187  0.00  0.00    +0.000 A 
ATOM      6  N   UNL     1      47.816  10.107  11.996  0.00  0.00    +0.000 NA
ATOM      7  C   UNL     1      49.067   9.805  12.139  0.00  0.00    +0.000 A 
ATOM      8  N   UNL     1      49.547   8.547  12.396  0.00  0.00    +0.000 N 
ATOM      9  C   UNL     1      48.728   7.446  12.521  0.00  0.00    +0.000 A 
ATOM     10  O   UNL     1      49.177   6.312  12.642  0.00  0.00    +0.000 OA
ATOM     11  C   UNL     1      47.314   7.760  12.483  0.00  0.00    +0.000 A 
ATOM     12  H   UNL     1      50.537   8.374  12.445  0.00  0.00    +0.000 HD
ENDBRANCH   1   2
BRANCH   1  14
ATOM     13  C   UNL     1      47.050   4.335  15.301  0.00  0.00    +0.000 C 
ATOM     14  O   UNL     1      47.068   5.549  14.569  0.00  0.00    +0.000 OA
ENDBRANCH   1  14
BRANCH   1  15
ATOM     15  C   UNL     1      44.886   4.797  13.562  0.00  0.00    +0.000 C 
BRANCH  15  16
ATOM     16  N   UNL     1      44.554   3.623  12.718  0.00  0.00    +0.000 NA
ATOM     17  C   UNL     1      45.650   3.348  11.760  0.00  0.00    +0.000 C 
ATOM     18  C   UNL     1      45.706   4.308  10.540  0.00  0.00    +0.000 C 
ATOM     19  N   UNL     1      44.445   4.384   9.764  0.00  0.00    +0.000 NA
ATOM     20  C   UNL     1      43.343   4.671  10.711  0.00  0.00    +0.000 C 
ATOM     21  C   UNL     1      43.293   3.759  11.964  0.00  0.00    +0.000 C 
BRANCH  19  22
ATOM     22  C   UNL     1      44.254   3.132   9.010  0.00  0.00    +0.000 C 
BRANCH  22  23
ATOM     23  C   UNL     1      45.427   2.686   8.174  0.00  0.00    +0.000 A 
ATOM     24  C   UNL     1      45.889   3.471   7.112  0.00  0.00    +0.000 A 
ATOM     25  C   UNL     1      46.907   3.000   6.287  0.00  0.00    +0.000 A 
ATOM     26  C   UNL     1      47.436   1.748   6.553  0.00  0.00    +0.000 A 
ATOM     27  N   UNL     1      47.027   0.962   7.572  0.00  0.00    +0.000 NA
ATOM     28  C   UNL     1      46.036   1.449   8.359  0.00  0.00    +0.000 A 
ENDBRANCH  22  23
ENDBRANCH  19  22
ENDBRANCH  15  16
ENDBRANCH   1  15
TORSDOF 6
ENDMDL
MODEL 2
REMARK VINA RESULT:    -6.548      4.369      6.374
REMARK INTER + INTRA:          -9.237
REMARK INTER:                  -9.082
REMARK INTRA:                  -0.155
REMARK UNBOUND:                -0.392
REMARK  Name = 
REMARK  7 active torsions:
REMARK  status: ('A' for Active; 'I' for Inactive)
REMARK    1  A    between atoms: C_1  and  O_2
REMARK    2  A    between atoms: O_2  and  C_3
REMARK    3  A    between atoms: C_3  and  C_4
REMARK    4  A    between atoms: C_3  and  C_18
REMARK    5  A    between atoms: C_4  and  N_5
REMARK    6  A    between atoms: N_8  and  C_9
REMARK    7  A    between atoms: C_9  and  C_10
REMARK                            x       y       z     vdW  Elec       q    Type
REMARK                         _______ _______ _______ _____ _____    ______ ____
ROOT
ATOM      1  C   UNL     1      48.467   4.605  17.044  0.00  0.00    +0.000 C 
ENDROOT
BRANCH   1   2
ATOM      2  C   UNL     1      49.936   4.515  17.415  0.00  0.00    +0.000 A 
ATOM      3  C   UNL     1      50.677   5.551  17.966  0.00  0.00    +0.000 A 
ATOM      4  S   UNL     1      52.251   5.082  18.434  0.00  0.00    +0.000 S 
ATOM      5  C   UNL     1      51.962   3.464  17.989  0.00  0.00    +0.000 A 
ATOM      6  N   UNL     1      52.862   2.481  18.252  0.00  0.00    +0.000 NA
ATOM      7  C   UNL     1      52.469   1.297  17.908  0.00  0.00    +0.000 A 
ATOM      8  N   UNL     1      51.286   1.015  17.274  0.00  0.00    +0.000 N 
ATOM      9  C   UNL     1      50.378   1.987  16.919  0.00  0.00    +0.000 A 
ATOM     10  O   UNL     1      49.378   1.734  16.256  0.00  0.00    +0.000 OA
ATOM     11  C   UNL     1      50.726   3.313  17.389  0.00  0.00    +0.000 A 
ATOM     12  H   UNL     1      51.067   0.074  16.988  0.00  0.00    +0.000 HD
ENDBRANCH   1   2
BRANCH   1  14
ATOM     13  C   UNL     1      47.030   5.803  18.543  0.00  0.00    +0.000 C 
ATOM     14  O   UNL     1      47.668   4.573  18.240  0.00  0.00    +0.000 OA
ENDBRANCH   1  14
BRANCH   1  15
ATOM     15  C   UNL     1      48.085   5.758  16.057  0.00  0.00    +0.000 C 
BRANCH  15  16
ATOM     16  N   UNL     1      48.364   5.619  14.606  0.00  0.00    +0.000 NA
ATOM     17  C   UNL     1      48.367   6.946  13.949  0.00  0.00    +0.000 C 
ATOM     18  C   UNL     1      46.959   7.553  13.700  0.00  0.00    +0.000 C 
ATOM     19  N   UNL     1      46.044   6.678  12.929  0.00  0.00    +0.000 NA
ATOM     20  C   UNL     1      46.024   5.350  13.584  0.00  0.00    +0.000 C 
ATOM     21  C   UNL     1      47.416   4.742  13.891  0.00  0.00    +0.000 C 
BRANCH  19  22
ATOM     22  C   UNL     1      46.480   6.626  11.522  0.00  0.00    +0.000 C 
BRANCH  22  23
ATOM     23  C   UNL     1      45.651   5.753  10.613  0.00  0.00    +0.000 A 
ATOM     24  C   UNL     1      44.474   5.152  11.073  0.00  0.00    +0.000 A 
ATOM     25  C   UNL     1      43.775   4.270  10.254  0.00  0.00    +0.000 A 
ATOM     26  C   UNL     1      44.278   4.015   8.990  0.00  0.00    +0.000 A 
ATOM     27  N   UNL     1      45.403   4.579   8.503  0.00  0.00    +0.000 NA
ATOM     28  C   UNL     1      46.061   5.436   9.322  0.00  0.00    +0.000 A 
ENDBRANCH  22  23
ENDBRANCH  19  22
ENDBRANCH  15  16
ENDBRANCH   1  15
TORSDOF 6
ENDMDL
MODEL 3
REMARK VINA RESULT:    -6.340      2.846      3.895
REMARK INTER + INTRA:          -8.956
REMARK INTER:                  -8.853
REMARK INTRA:                  -0.103
REMARK UNBOUND:                -0.392
REMARK  Name = 
REMARK  7 active torsions:
REMARK  status: ('A' for Active; 'I' for Inactive)
REMARK    1  A    between atoms: C_1  and  O_2
REMARK    2  A    between atoms: O_2  and  C_3
REMARK    3  A    between atoms: C_3  and  C_4
REMARK    4  A    between atoms: C_3  and  C_18
REMARK    5  A    between atoms: C_4  and  N_5
REMARK    6  A    between atoms: N_8  and  C_9
REMARK    7  A    between atoms: C_9  and  C_10
REMARK                            x       y       z     vdW  Elec       q    Type
REMARK                         _______ _______ _______ _____ _____    ______ ____
ROOT
ATOM      1  C   UNL     1      47.124   5.728  14.186  0.00  0.00    +0.000 C 
ENDROOT
BRANCH   1   2
ATOM      2  C   UNL     1      47.543   4.940  15.413  0.00  0.00    +0.000 A 
ATOM      3  C   UNL     1      47.274   3.596  15.619  0.00  0.00    +0.000 A 
ATOM      4  S   UNL     1      48.031   2.959  17.011  0.00  0.00    +0.000 S 
ATOM      5  C   UNL     1      48.805   4.441  17.336  0.00  0.00    +0.000 A 
ATOM      6  N   UNL     1      49.726   4.562  18.328  0.00  0.00    +0.000 NA
ATOM      7  C   UNL     1      50.268   5.735  18.408  0.00  0.00    +0.000 A 
ATOM      8  N   UNL     1      49.931   6.811  17.627  0.00  0.00    +0.000 N 
ATOM      9  C   UNL     1      48.950   6.756  16.661  0.00  0.00    +0.000 A 
ATOM     10  O   UNL     1      48.585   7.752  16.047  0.00  0.00    +0.000 OA
ATOM     11  C   UNL     1      48.400   5.430  16.461  0.00  0.00    +0.000 A 
ATOM     12  H   UNL     1      50.359   7.710  17.777  0.00  0.00    +0.000 HD
ENDBRANCH   1   2
BRANCH   1  14
ATOM     13  C   UNL     1      48.534   6.839  12.597  0.00  0.00    +0.000 C 
ATOM     14  O   UNL     1      48.135   5.605  13.169  0.00  0.00    +0.000 OA
ENDBRANCH   1  14
BRANCH   1  15
ATOM     15  C   UNL     1      45.671   5.461  13.669  0.00  0.00    +0.000 C 
BRANCH  15  16
ATOM     16  N   UNL     1      45.333   4.161  13.038  0.00  0.00    +0.000 NA
ATOM     17  C   UNL     1      46.126   3.964  11.803  0.00  0.00    +0.000 C 
ATOM     18  C   UNL     1      45.633   4.777  10.575  0.00  0.00    +0.000 C 
ATOM     19  N   UNL     1      44.209   4.558  10.229  0.00  0.00    +0.000 NA
ATOM     20  C   UNL     1      43.404   4.765  11.455  0.00  0.00    +0.000 C 
ATOM     21  C   UNL     1      43.903   4.004  12.710  0.00  0.00    +0.000 C 
BRANCH  19  22
ATOM     22  C   UNL     1      44.043   3.215   9.644  0.00  0.00    +0.000 C 
BRANCH  22  23
ATOM     23  C   UNL     1      45.123   2.783   8.684  0.00  0.00    +0.000 A 
ATOM     24  C   UNL     1      45.511   3.608   7.622  0.00  0.00    +0.000 A 
ATOM     25  C   UNL     1      46.436   3.153   6.687  0.00  0.00    +0.000 A 
ATOM     26  C   UNL     1      46.949   1.877   6.844  0.00  0.00    +0.000 A 
ATOM     27  N   UNL     1      46.610   1.052   7.857  0.00  0.00    +0.000 NA
ATOM     28  C   UNL     1      45.709   1.523   8.753  0.00  0.00    +0.000 A 
ENDBRANCH  22  23
ENDBRANCH  19  22
ENDBRANCH  15  16
ENDBRANCH   1  15
TORSDOF 6
ENDMDL
MODEL 4
REMARK VINA RESULT:    -6.297      5.238      7.404
REMARK INTER + INTRA:          -8.899
REMARK INTER:                  -8.039
REMARK INTRA:                  -0.860
REMARK UNBOUND:                -0.392
REMARK  Name = 
REMARK  7 active torsions:
REMARK  status: ('A' for Active; 'I' for Inactive)
REMARK    1  A    between atoms: C_1  and  O_2
REMARK    2  A    between atoms: O_2  and  C_3
REMARK    3  A    between atoms: C_3  and  C_4
REMARK    4  A    between atoms: C_3  and  C_18
REMARK    5  A    between atoms: C_4  and  N_5
REMARK    6  A    between atoms: N_8  and  C_9
REMARK    7  A    between atoms: C_9  and  C_10
REMARK                            x       y       z     vdW  Elec       q    Type
REMARK                         _______ _______ _______ _____ _____    ______ ____
ROOT
ATOM      1  C   UNL     1      49.925   4.652  18.122  0.00  0.00    +0.000 C 
ENDROOT
BRANCH   1   2
ATOM      2  C   UNL     1      51.337   4.141  18.345  0.00  0.00    +0.000 A 
ATOM      3  C   UNL     1      52.314   4.810  19.067  0.00  0.00    +0.000 A 
ATOM      4  S   UNL     1      53.739   3.894  19.286  0.00  0.00    +0.000 S 
ATOM      5  C   UNL     1      53.062   2.548  18.491  0.00  0.00    +0.000 A 
ATOM      6  N   UNL     1      53.706   1.352  18.440  0.00  0.00    +0.000 NA
ATOM      7  C   UNL     1      53.034   0.413  17.855  0.00  0.00    +0.000 A 
ATOM      8  N   UNL     1      51.806   0.575  17.267  0.00  0.00    +0.000 N 
ATOM      9  C   UNL     1      51.150   1.786  17.227  0.00  0.00    +0.000 A 
ATOM     10  O   UNL     1      50.106   1.941  16.603  0.00  0.00    +0.000 OA
ATOM     11  C   UNL     1      51.815   2.837  17.971  0.00  0.00    +0.000 A 
ATOM     12  H   UNL     1      51.362  -0.188  16.783  0.00  0.00    +0.000 HD
ENDBRANCH   1   2
BRANCH   1  14
ATOM     13  C   UNL     1      48.608   4.627  20.125  0.00  0.00    +0.000 C 
ATOM     14  O   UNL     1      49.484   5.366  19.291  0.00  0.00    +0.000 OA
ENDBRANCH   1  14
BRANCH   1  15
ATOM     15  C   UNL     1      49.684   5.422  16.781  0.00  0.00    +0.000 C 
BRANCH  15  16
ATOM     16  N   UNL     1      48.325   5.907  16.434  0.00  0.00    +0.000 NA
ATOM     17  C   UNL     1      47.374   4.773  16.362  0.00  0.00    +0.000 C 
ATOM     18  C   UNL     1      47.482   3.913  15.073  0.00  0.00    +0.000 C 
ATOM     19  N   UNL     1      47.353   4.683  13.813  0.00  0.00    +0.000 NA
ATOM     20  C   UNL     1      48.309   5.812  13.868  0.00  0.00    +0.000 C 
ATOM     21  C   UNL     1      48.259   6.659  15.166  0.00  0.00    +0.000 C 
BRANCH  19  22
ATOM     22  C   UNL     1      45.954   5.112  13.637  0.00  0.00    +0.000 C 
BRANCH  22  23
ATOM     23  C   UNL     1      45.262   4.596  12.400  0.00  0.00    +0.000 A 
ATOM     24  C   UNL     1      45.545   5.138  11.141  0.00  0.00    +0.000 A 
ATOM     25  C   UNL     1      44.826   4.721  10.025  0.00  0.00    +0.000 A 
ATOM     26  C   UNL     1      43.839   3.768  10.203  0.00  0.00    +0.000 A 
ATOM     27  N   UNL     1      43.539   3.212  11.396  0.00  0.00    +0.000 NA
ATOM     28  C   UNL     1      44.258   3.636  12.465  0.00  0.00    +0.000 A 
ENDBRANCH  22  23
ENDBRANCH  19  22
ENDBRANCH  15  16
ENDBRANCH   1  15
TORSDOF 6
ENDMDL
MODEL 5
REMARK VINA RESULT:    -6.277      3.206      7.657
REMARK INTER + INTRA:          -8.871
REMARK INTER:                  -8.001
REMARK INTRA:                  -0.870
REMARK UNBOUND:                -0.392
REMARK  Name = 
REMARK  7 active torsions:
REMARK  status: ('A' for Active; 'I' for Inactive)
REMARK    1  A    between atoms: C_1  and  O_2
REMARK    2  A    between atoms: O_2  and  C_3
REMARK    3  A    between atoms: C_3  and  C_4
REMARK    4  A    between atoms: C_3  and  C_18
REMARK    5  A    between atoms: C_4  and  N_5
REMARK    6  A    between atoms: N_8  and  C_9
REMARK    7  A    between atoms: C_9  and  C_10
REMARK                            x       y       z     vdW  Elec       q    Type
REMARK                         _______ _______ _______ _____ _____    ______ ____
ROOT
ATOM      1  C   UNL     1      44.958   6.909  11.016  0.00  0.00    +0.000 C 
ENDROOT
BRANCH   1   2
ATOM      2  C   UNL     1      44.583   5.446  11.172  0.00  0.00    +0.000 A 
ATOM      3  C   UNL     1      43.839   4.930  12.222  0.00  0.00    +0.000 A 
ATOM      4  S   UNL     1      43.436   3.283  12.019  0.00  0.00    +0.000 S 
ATOM      5  C   UNL     1      44.176   3.232  10.486  0.00  0.00    +0.000 A 
ATOM      6  N   UNL     1      44.081   2.140   9.685  0.00  0.00    +0.000 NA
ATOM      7  C   UNL     1      44.644   2.281   8.528  0.00  0.00    +0.000 A 
ATOM      8  N   UNL     1      45.341   3.390   8.123  0.00  0.00    +0.000 N 
ATOM      9  C   UNL     1      45.527   4.491   8.930  0.00  0.00    +0.000 A 
ATOM     10  O   UNL     1      46.243   5.429   8.597  0.00  0.00    +0.000 OA
ATOM     11  C   UNL     1      44.815   4.421  10.190  0.00  0.00    +0.000 A 
ATOM     12  H   UNL     1      45.798   3.413   7.226  0.00  0.00    +0.000 HD
ENDBRANCH   1   2
BRANCH   1  14
ATOM     13  C   UNL     1      43.965   9.090  11.040  0.00  0.00    +0.000 C 
ATOM     14  O   UNL     1      43.857   7.733  11.436  0.00  0.00    +0.000 OA
ENDBRANCH   1  14
BRANCH   1  15
ATOM     15  C   UNL     1      46.334   7.327  11.632  0.00  0.00    +0.000 C 
BRANCH  15  16
ATOM     16  N   UNL     1      46.542   7.264  13.101  0.00  0.00    +0.000 NA
ATOM     17  C   UNL     1      46.938   8.592  13.625  0.00  0.00    +0.000 C 
ATOM     18  C   UNL     1      48.415   8.986  13.354  0.00  0.00    +0.000 C 
ATOM     19  N   UNL     1      49.410   8.001  13.842  0.00  0.00    +0.000 NA
ATOM     20  C   UNL     1      49.031   6.671  13.313  0.00  0.00    +0.000 C 
ATOM     21  C   UNL     1      47.548   6.271  13.525  0.00  0.00    +0.000 C 
BRANCH  19  22
ATOM     22  C   UNL     1      49.469   8.047  15.314  0.00  0.00    +0.000 C 
BRANCH  22  23
ATOM     23  C   UNL     1      50.348   7.010  15.966  0.00  0.00    +0.000 A 
ATOM     24  C   UNL     1      49.796   5.996  16.758  0.00  0.00    +0.000 A 
ATOM     25  C   UNL     1      50.627   5.107  17.433  0.00  0.00    +0.000 A 
ATOM     26  C   UNL     1      51.995   5.260  17.295  0.00  0.00    +0.000 A 
ATOM     27  N   UNL     1      52.570   6.216  16.535  0.00  0.00    +0.000 NA
ATOM     28  C   UNL     1      51.736   7.066  15.887  0.00  0.00    +0.000 A 
ENDBRANCH  22  23
ENDBRANCH  19  22
ENDBRANCH  15  16
ENDBRANCH   1  15
TORSDOF 6
ENDMDL
MODEL 6
REMARK VINA RESULT:    -6.040      3.870      5.563
REMARK INTER + INTRA:          -8.551
REMARK INTER:                  -7.928
REMARK INTRA:                  -0.623
REMARK UNBOUND:                -0.392
REMARK  Name = 
REMARK  7 active torsions:
REMARK  status: ('A' for Active; 'I' for Inactive)
REMARK    1  A    between atoms: C_1  and  O_2
REMARK    2  A    between atoms: O_2  and  C_3
REMARK    3  A    between atoms: C_3  and  C_4
REMARK    4  A    between atoms: C_3  and  C_18
REMARK    5  A    between atoms: C_4  and  N_5
REMARK    6  A    between atoms: N_8  and  C_9
REMARK    7  A    between atoms: C_9  and  C_10
REMARK                            x       y       z     vdW  Elec       q    Type
REMARK                         _______ _______ _______ _____ _____    ______ ____
ROOT
ATOM      1  C   UNL     1      49.078   7.342  15.695  0.00  0.00    +0.000 C 
ENDROOT
BRANCH   1   2
ATOM      2  C   UNL     1      48.656   6.264  16.677  0.00  0.00    +0.000 A 
ATOM      3  C   UNL     1      48.090   5.049  16.321  0.00  0.00    +0.000 A 
ATOM      4  S   UNL     1      47.892   3.983  17.640  0.00  0.00    +0.000 S 
ATOM      5  C   UNL     1      48.631   5.082  18.711  0.00  0.00    +0.000 A 
ATOM      6  N   UNL     1      48.910   4.745  19.998  0.00  0.00    +0.000 NA
ATOM      7  C   UNL     1      49.527   5.667  20.665  0.00  0.00    +0.000 A 
ATOM      8  N   UNL     1      49.837   6.913  20.182  0.00  0.00    +0.000 N 
ATOM      9  C   UNL     1      49.505   7.325  18.910  0.00  0.00    +0.000 A 
ATOM     10  O   UNL     1      49.690   8.475  18.529  0.00  0.00    +0.000 OA
ATOM     11  C   UNL     1      48.917   6.283  18.092  0.00  0.00    +0.000 A 
ATOM     12  H   UNL     1      50.273   7.601  20.773  0.00  0.00    +0.000 HD
ENDBRANCH   1   2
BRANCH   1  14
ATOM     13  C   UNL     1      51.428   7.679  15.367  0.00  0.00    +0.000 C 
ATOM     14  O   UNL     1      50.277   6.929  15.016  0.00  0.00    +0.000 OA
ENDBRANCH   1  14
BRANCH   1  15
ATOM     15  C   UNL     1      47.956   7.865  14.737  0.00  0.00    +0.000 C 
BRANCH  15  16
ATOM     16  N   UNL     1      48.035   7.594  13.280  0.00  0.00    +0.000 NA
ATOM     17  C   UNL     1      46.973   8.332  12.558  0.00  0.00    +0.000 C 
ATOM     18  C   UNL     1      45.553   7.713  12.676  0.00  0.00    +0.000 C 
ATOM     19  N   UNL     1      45.469   6.293  12.260  0.00  0.00    +0.000 NA
ATOM     20  C   UNL     1      46.519   5.542  12.986  0.00  0.00    +0.000 C 
ATOM     21  C   UNL     1      47.938   6.164  12.927  0.00  0.00    +0.000 C 
BRANCH  19  22
ATOM     22  C   UNL     1      45.595   6.199  10.794  0.00  0.00    +0.000 C 
BRANCH  22  23
ATOM     23  C   UNL     1      45.220   4.870  10.189  0.00  0.00    +0.000 A 
ATOM     24  C   UNL     1      45.596   4.546   8.881  0.00  0.00    +0.000 A 
ATOM     25  C   UNL     1      45.157   3.358   8.302  0.00  0.00    +0.000 A 
ATOM     26  C   UNL     1      44.350   2.524   9.056  0.00  0.00    +0.000 A 
ATOM     27  N   UNL     1      43.971   2.793  10.324  0.00  0.00    +0.000 NA
ATOM     28  C   UNL     1      44.415   3.955  10.861  0.00  0.00    +0.000 A 
ENDBRANCH  22  23
ENDBRANCH  19  22
ENDBRANCH  15  16
ENDBRANCH   1  15
TORSDOF 6
ENDMDL
MODEL 7
REMARK VINA RESULT:    -5.782      3.072      7.799
REMARK INTER + INTRA:          -8.203
REMARK INTER:                  -7.463
REMARK INTRA:                  -0.739
REMARK UNBOUND:                -0.392
REMARK  Name = 
REMARK  7 active torsions:
REMARK  status: ('A' for Active; 'I' for Inactive)
REMARK    1  A    between atoms: C_1  and  O_2
REMARK    2  A    between atoms: O_2  and  C_3
REMARK    3  A    between atoms: C_3  and  C_4
REMARK    4  A    between atoms: C_3  and  C_18
REMARK    5  A    between atoms: C_4  and  N_5
REMARK    6  A    between atoms: N_8  and  C_9
REMARK    7  A    between atoms: C_9  and  C_10
REMARK                            x       y       z     vdW  Elec       q    Type
REMARK                         _______ _______ _______ _____ _____    ______ ____
ROOT
ATOM      1  C   UNL     1      45.345   7.021  11.382  0.00  0.00    +0.000 C 
ENDROOT
BRANCH   1   2
ATOM      2  C   UNL     1      44.890   5.581  11.531  0.00  0.00    +0.000 A 
ATOM      3  C   UNL     1      44.226   5.073  12.638  0.00  0.00    +0.000 A 
ATOM      4  S   UNL     1      43.693   3.464  12.426  0.00  0.00    +0.000 S 
ATOM      5  C   UNL     1      44.264   3.426  10.822  0.00  0.00    +0.000 A 
ATOM      6  N   UNL     1      44.012   2.373  10.001  0.00  0.00    +0.000 NA
ATOM      7  C   UNL     1      44.460   2.523   8.795  0.00  0.00    +0.000 A 
ATOM      8  N   UNL     1      45.184   3.601   8.354  0.00  0.00    +0.000 N 
ATOM      9  C   UNL     1      45.528   4.655   9.172  0.00  0.00    +0.000 A 
ATOM     10  O   UNL     1      46.267   5.557   8.794  0.00  0.00    +0.000 OA
ATOM     11  C   UNL     1      44.948   4.582  10.497  0.00  0.00    +0.000 A 
ATOM     12  H   UNL     1      45.546   3.629   7.415  0.00  0.00    +0.000 HD
ENDBRANCH   1   2
BRANCH   1  14
ATOM     13  C   UNL     1      44.485   9.258  11.339  0.00  0.00    +0.000 C 
ATOM     14  O   UNL     1      44.195   7.874  11.237  0.00  0.00    +0.000 OA
ENDBRANCH   1  14
BRANCH   1  15
ATOM     15  C   UNL     1      46.375   7.522  12.449  0.00  0.00    +0.000 C 
BRANCH  15  16
ATOM     16  N   UNL     1      47.764   6.999  12.445  0.00  0.00    +0.000 NA
ATOM     17  C   UNL     1      48.223   6.740  13.830  0.00  0.00    +0.000 C 
ATOM     18  C   UNL     1      48.620   8.009  14.633  0.00  0.00    +0.000 C 
ATOM     19  N   UNL     1      49.645   8.853  13.975  0.00  0.00    +0.000 NA
ATOM     20  C   UNL     1      49.191   9.129  12.592  0.00  0.00    +0.000 C 
ATOM     21  C   UNL     1      48.741   7.885  11.783  0.00  0.00    +0.000 C 
BRANCH  19  22
ATOM     22  C   UNL     1      50.953   8.176  14.033  0.00  0.00    +0.000 C 
BRANCH  22  23
ATOM     23  C   UNL     1      52.118   8.954  13.474  0.00  0.00    +0.000 A 
ATOM     24  C   UNL     1      52.838   8.474  12.373  0.00  0.00    +0.000 A 
ATOM     25  C   UNL     1      53.971   9.153  11.932  0.00  0.00    +0.000 A 
ATOM     26  C   UNL     1      54.351  10.298  12.610  0.00  0.00    +0.000 A 
ATOM     27  N   UNL     1      53.681  10.800  13.669  0.00  0.00    +0.000 NA
ATOM     28  C   UNL     1      52.581  10.120  14.074  0.00  0.00    +0.000 A 
ENDBRANCH  22  23
ENDBRANCH  19  22
ENDBRANCH  15  16
ENDBRANCH   1  15
TORSDOF 6
ENDMDL
MODEL 8
REMARK VINA RESULT:    -5.711      4.605      8.981
REMARK INTER + INTRA:          -8.106
REMARK INTER:                  -7.430
REMARK INTRA:                  -0.676
REMARK UNBOUND:                -0.392
REMARK  Name = 
REMARK  7 active torsions:
REMARK  status: ('A' for Active; 'I' for Inactive)
REMARK    1  A    between atoms: C_1  and  O_2
REMARK    2  A    between atoms: O_2  and  C_3
REMARK    3  A    between atoms: C_3  and  C_4
REMARK    4  A    between atoms: C_3  and  C_18
REMARK    5  A    between atoms: C_4  and  N_5
REMARK    6  A    between atoms: N_8  and  C_9
REMARK    7  A    between atoms: C_9  and  C_10
REMARK                            x       y       z     vdW  Elec       q    Type
REMARK                         _______ _______ _______ _____ _____    ______ ____
ROOT
ATOM      1  C   UNL     1      48.213   6.183  13.741  0.00  0.00    +0.000 C 
ENDROOT
BRANCH   1   2
ATOM      2  C   UNL     1      46.842   6.250  13.094  0.00  0.00    +0.000 A 
ATOM      3  C   UNL     1      46.272   7.400  12.567  0.00  0.00    +0.000 A 
ATOM      4  S   UNL     1      44.799   7.113  11.752  0.00  0.00    +0.000 S 
ATOM      5  C   UNL     1      44.919   5.434  12.009  0.00  0.00    +0.000 A 
ATOM      6  N   UNL     1      44.042   4.562  11.447  0.00  0.00    +0.000 NA
ATOM      7  C   UNL     1      44.304   3.317  11.687  0.00  0.00    +0.000 A 
ATOM      8  N   UNL     1      45.326   2.869  12.484  0.00  0.00    +0.000 N 
ATOM      9  C   UNL     1      46.193   3.718  13.136  0.00  0.00    +0.000 A 
ATOM     10  O   UNL     1      47.032   3.309  13.930  0.00  0.00    +0.000 OA
ATOM     11  C   UNL     1      46.006   5.116  12.801  0.00  0.00    +0.000 A 
ATOM     12  H   UNL     1      45.442   1.886  12.669  0.00  0.00    +0.000 HD
ENDBRANCH   1   2
BRANCH   1  14
ATOM     13  C   UNL     1      49.548   8.170  13.867  0.00  0.00    +0.000 C 
ATOM     14  O   UNL     1      49.106   7.086  13.066  0.00  0.00    +0.000 OA
ENDBRANCH   1  14
BRANCH   1  15
ATOM     15  C   UNL     1      48.236   6.316  15.300  0.00  0.00    +0.000 C 
BRANCH  15  16
ATOM     16  N   UNL     1      48.950   5.307  16.123  0.00  0.00    +0.000 NA
ATOM     17  C   UNL     1      48.076   4.817  17.214  0.00  0.00    +0.000 C 
ATOM     18  C   UNL     1      47.915   5.794  18.410  0.00  0.00    +0.000 C 
ATOM     19  N   UNL     1      49.194   6.224  19.024  0.00  0.00    +0.000 NA
ATOM     20  C   UNL     1      50.072   6.729  17.944  0.00  0.00    +0.000 C 
ATOM     21  C   UNL     1      50.211   5.795  16.714  0.00  0.00    +0.000 C 
BRANCH  19  22
ATOM     22  C   UNL     1      49.783   5.101  19.775  0.00  0.00    +0.000 C 
BRANCH  22  23
ATOM     23  C   UNL     1      51.245   5.238  20.118  0.00  0.00    +0.000 A 
ATOM     24  C   UNL     1      51.698   6.297  20.913  0.00  0.00    +0.000 A 
ATOM     25  C   UNL     1      53.062   6.467  21.138  0.00  0.00    +0.000 A 
ATOM     26  C   UNL     1      53.936   5.566  20.555  0.00  0.00    +0.000 A 
ATOM     27  N   UNL     1      53.542   4.527  19.789  0.00  0.00    +0.000 NA
ATOM     28  C   UNL     1      52.208   4.385  19.591  0.00  0.00    +0.000 A 
ENDBRANCH  22  23
ENDBRANCH  19  22
ENDBRANCH  15  16
ENDBRANCH   1  15
TORSDOF 6
ENDMDL
MODEL 9
REMARK VINA RESULT:    -5.652      2.816      7.452
REMARK INTER + INTRA:          -8.027
REMARK INTER:                  -7.531
REMARK INTRA:                  -0.496
REMARK UNBOUND:                -0.392
REMARK  Name = 
REMARK  7 active torsions:
REMARK  status: ('A' for Active; 'I' for Inactive)
REMARK    1  A    between atoms: C_1  and  O_2
REMARK    2  A    between atoms: O_2  and  C_3
REMARK    3  A    between atoms: C_3  and  C_4
REMARK    4  A    between atoms: C_3  and  C_18
REMARK    5  A    between atoms: C_4  and  N_5
REMARK    6  A    between atoms: N_8  and  C_9
REMARK    7  A    between atoms: C_9  and  C_10
REMARK                            x       y       z     vdW  Elec       q    Type
REMARK                         _______ _______ _______ _____ _____    ______ ____
ROOT
ATOM      1  C   UNL     1      45.976   7.039  11.454  0.00  0.00    +0.000 C 
ENDROOT
BRANCH   1   2
ATOM      2  C   UNL     1      45.414   5.843  10.708  0.00  0.00    +0.000 A 
ATOM      3  C   UNL     1      45.756   5.488   9.411  0.00  0.00    +0.000 A 
ATOM      4  S   UNL     1      45.088   3.994   8.920  0.00  0.00    +0.000 S 
ATOM      5  C   UNL     1      44.388   3.740  10.452  0.00  0.00    +0.000 A 
ATOM      6  N   UNL     1      43.772   2.571  10.769  0.00  0.00    +0.000 NA
ATOM      7  C   UNL     1      43.346   2.511  11.990  0.00  0.00    +0.000 A 
ATOM      8  N   UNL     1      43.428   3.531  12.902  0.00  0.00    +0.000 N 
ATOM      9  C   UNL     1      43.975   4.759  12.602  0.00  0.00    +0.000 A 
ATOM     10  O   UNL     1      43.942   5.697  13.391  0.00  0.00    +0.000 OA
ATOM     11  C   UNL     1      44.568   4.830  11.282  0.00  0.00    +0.000 A 
ATOM     12  H   UNL     1      43.030   3.433  13.822  0.00  0.00    +0.000 HD
ENDBRANCH   1   2
BRANCH   1  14
ATOM     13  C   UNL     1      45.313   9.084  12.514  0.00  0.00    +0.000 C 
ATOM     14  O   UNL     1      44.917   7.974  11.725  0.00  0.00    +0.000 OA
ENDBRANCH   1  14
BRANCH   1  15
ATOM     15  C   UNL     1      46.863   6.708  12.699  0.00  0.00    +0.000 C 
BRANCH  15  16
ATOM     16  N   UNL     1      48.341   6.653  12.567  0.00  0.00    +0.000 NA
ATOM     17  C   UNL     1      48.989   7.075  13.829  0.00  0.00    +0.000 C 
ATOM     18  C   UNL     1      48.991   8.608  14.081  0.00  0.00    +0.000 C 
ATOM     19  N   UNL     1      49.589   9.406  12.985  0.00  0.00    +0.000 NA
ATOM     20  C   UNL     1      48.938   9.002  11.718  0.00  0.00    +0.000 C 
ATOM     21  C   UNL     1      48.878   7.473  11.464  0.00  0.00    +0.000 C 
BRANCH  19  22
ATOM     22  C   UNL     1      51.050   9.215  12.976  0.00  0.00    +0.000 C 
BRANCH  22  23
ATOM     23  C   UNL     1      51.764   9.689  11.735  0.00  0.00    +0.000 A 
ATOM     24  C   UNL     1      52.360   8.776  10.858  0.00  0.00    +0.000 A 
ATOM     25  C   UNL     1      53.101   9.233   9.771  0.00  0.00    +0.000 A 
ATOM     26  C   UNL     1      53.222  10.600   9.593  0.00  0.00    +0.000 A 
ATOM     27  N   UNL     1      52.656  11.516  10.408  0.00  0.00    +0.000 NA
ATOM     28  C   UNL     1      51.940  11.041  11.457  0.00  0.00    +0.000 A 
ENDBRANCH  22  23
ENDBRANCH  19  22
ENDBRANCH  15  16
ENDBRANCH   1  15
TORSDOF 6
ENDMDL
