MODEL 1
REMARK VINA RESULT:    -8.302      0.000      0.000
REMARK INTER + INTRA:         -12.793
REMARK INTER:                 -11.699
REMARK INTRA:                  -1.094
REMARK UNBOUND:                -1.094
REMARK  Name = 
REMARK  8 active torsions:
REMARK  status: ('A' for Active; 'I' for Inactive)
REMARK    1  A    between atoms: C_1  and  C_2
REMARK    2  A    between atoms: C_2  and  N_3
REMARK    3  A    between atoms: C_2  and  C_25
REMARK    4  A    between atoms: N_3  and  C_4
REMARK    5  A    between atoms: C_4  and  C_5
REMARK    6  A    between atoms: C_8  and  C_9
REMARK    7  A    between atoms: C_9  and  N_10
REMARK    8  A    between atoms: C_11  and  C_13
REMARK                            x       y       z     vdW  Elec       q    Type
REMARK                         _______ _______ _______ _____ _____    ______ ____
ROOT
ATOM      1  C   UNL     1      44.503   5.774  11.004  0.00  0.00    +0.000 A 
ATOM      2  C   UNL     1      44.026   6.507  12.099  0.00  0.00    +0.000 A 
ATOM      3  C   UNL     1      44.890   7.301  12.860  0.00  0.00    +0.000 A 
ATOM      4  C   UNL     1      46.250   7.385  12.538  0.00  0.00    +0.000 A 
ATOM      5  C   UNL     1      46.734   6.638  11.456  0.00  0.00    +0.000 A 
ATOM      6  C   UNL     1      45.869   5.844  10.694  0.00  0.00    +0.000 A 
ENDROOT
BRANCH   1   7
ATOM      7  C   UNL     1      43.589   4.835  10.246  0.00  0.00    +0.000 C 
BRANCH   7   8
ATOM      8  N   UNL     1      44.181   4.345   8.998  0.00  0.00    +0.000 NA
ATOM      9  H   UNL     1      44.789   5.081   8.631  0.00  0.00    +0.000 HD
BRANCH   8  11
ATOM     10  C   UNL     1      44.218   1.889   9.550  0.00  0.00    +0.000 C 
ATOM     11  C   UNL     1      45.029   3.148   9.212  0.00  0.00    +0.000 C 
BRANCH  11  12
ATOM     12  C   UNL     1      45.925   2.876   8.000  0.00  0.00    +0.000 A 
ATOM     13  C   UNL     1      46.613   1.664   7.865  0.00  0.00    +0.000 A 
ATOM     14  C   UNL     1      47.394   1.445   6.731  0.00  0.00    +0.000 A 
ATOM     15  C   UNL     1      47.474   2.438   5.770  0.00  0.00    +0.000 A 
ATOM     16  F   UNL     1      48.204   2.254   4.663  0.00  0.00    +0.000 F 
ATOM     17  C   UNL     1      46.781   3.617   5.974  0.00  0.00    +0.000 A 
ATOM     18  N   UNL     1      46.010   3.860   7.062  0.00  0.00    +0.000 NA
ENDBRANCH  11  12
ENDBRANCH   8  11
ENDBRANCH   7   8
ENDBRANCH   1   7
BRANCH   4  19
ATOM     19  C   UNL     1      47.177   8.251  13.351  0.00  0.00    +0.000 C 
BRANCH  19  20
ATOM     20  N   UNL     1      47.583   7.602  14.575  0.00  0.00    +0.000 N 
ATOM     21  C   UNL     1      48.817   6.993  14.663  0.00  0.00    +0.000 C 
ATOM     22  O   UNL     1      49.588   6.924  13.714  0.00  0.00    +0.000 OA
ATOM     23  H   UNL     1      47.044   7.781  15.411  0.00  0.00    +0.000 HD
BRANCH  21  24
ATOM     24  C   UNL     1      49.121   6.400  15.966  0.00  0.00    +0.000 A 
ATOM     25  C   UNL     1      50.035   6.983  16.830  0.00  0.00    +0.000 A 
ATOM     26  S   UNL     1      50.151   6.185  18.328  0.00  0.00    +0.000 S 
ATOM     27  C   UNL     1      48.981   5.042  17.866  0.00  0.00    +0.000 A 
ATOM     28  N   UNL     1      48.627   4.080  18.734  0.00  0.00    +0.000 NA
ATOM     29  C   UNL     1      47.721   3.237  18.240  0.00  0.00    +0.000 A 
ATOM     30  N   UNL     1      47.188   3.260  17.018  0.00  0.00    +0.000 NA
ATOM     31  C   UNL     1      47.578   4.250  16.198  0.00  0.00    +0.000 A 
ATOM     32 CL   UNL     1      46.977   4.163  14.614  0.00  0.00    +0.000 Cl
ATOM     33  C   UNL     1      48.502   5.227  16.574  0.00  0.00    +0.000 A 
ENDBRANCH  21  24
ENDBRANCH  19  20
ENDBRANCH   4  19
TORSDOF 7
ENDMDL
MODEL 2
REMARK VINA RESULT:    -8.130      1.913      2.377
REMARK INTER + INTRA:         -12.551
REMARK INTER:                 -11.589
REMARK INTRA:                  -0.962
REMARK UNBOUND:                -1.094
REMARK  Name = 
REMARK  8 active torsions:
REMARK  status: ('A' for Active; 'I' for Inactive)
REMARK    1  A    between atoms: C_1  and  C_2
REMARK    2  A    between atoms: C_2  and  N_3
REMARK    3  A    between atoms: C_2  and  C_25
REMARK    4  A    between atoms: N_3  and  C_4
REMARK    5  A    between atoms: C_4  and  C_5
REMARK    6  A    between atoms: C_8  and  C_9
REMARK    7  A    between atoms: C_9  and  N_10
REMARK    8  A    between atoms: C_11  and  C_13
REMARK                            x       y       z     vdW  Elec       q    Type
REMARK                         _______ _______ _______ _____ _____    ______ ____
ROOT
ATOM      1  C   UNL     1      45.601   4.478  12.498  0.00  0.00    +0.000 A 
ATOM      2  C   UNL     1      45.777   5.719  11.871  0.00  0.00    +0.000 A 
ATOM      3  C   UNL     1      46.686   6.654  12.376  0.00  0.00    +0.000 A 
ATOM      4  C   UNL     1      47.447   6.365  13.516  0.00  0.00    +0.000 A 
ATOM      5  C   UNL     1      47.259   5.133  14.156  0.00  0.00    +0.000 A 
ATOM      6  C   UNL     1      46.349   4.197  13.650  0.00  0.00    +0.000 A 
ENDROOT
BRANCH   1   7
ATOM      7  C   UNL     1      44.543   3.511  12.013  0.00  0.00    +0.000 C 
BRANCH   7   8
ATOM      8  N   UNL     1      45.041   2.583  10.993  0.00  0.00    +0.000 NA
ATOM      9  H   UNL     1      44.773   1.637  11.275  0.00  0.00    +0.000 HD
BRANCH   8  11
ATOM     10  C   UNL     1      43.831   4.238   9.530  0.00  0.00    +0.000 C 
ATOM     11  C   UNL     1      44.430   2.830   9.665  0.00  0.00    +0.000 C 
BRANCH  11  12
ATOM     12  C   UNL     1      45.434   2.584   8.535  0.00  0.00    +0.000 A 
ATOM     13  C   UNL     1      45.727   3.581   7.597  0.00  0.00    +0.000 A 
ATOM     14  C   UNL     1      46.671   3.327   6.602  0.00  0.00    +0.000 A 
ATOM     15  C   UNL     1      47.288   2.088   6.566  0.00  0.00    +0.000 A 
ATOM     16  F   UNL     1      48.208   1.816   5.632  0.00  0.00    +0.000 F 
ATOM     17  C   UNL     1      46.940   1.143   7.513  0.00  0.00    +0.000 A 
ATOM     18  N   UNL     1      46.031   1.361   8.495  0.00  0.00    +0.000 NA
ENDBRANCH  11  12
ENDBRANCH   8  11
ENDBRANCH   7   8
ENDBRANCH   1   7
BRANCH   4  19
ATOM     19  C   UNL     1      48.435   7.368  14.051  0.00  0.00    +0.000 C 
BRANCH  19  20
ATOM     20  N   UNL     1      48.417   7.422  15.494  0.00  0.00    +0.000 N 
ATOM     21  C   UNL     1      49.527   7.041  16.218  0.00  0.00    +0.000 C 
ATOM     22  O   UNL     1      50.537   6.593  15.691  0.00  0.00    +0.000 OA
ATOM     23  H   UNL     1      47.669   7.932  15.942  0.00  0.00    +0.000 HD
BRANCH  21  24
ATOM     24  C   UNL     1      49.391   7.173  17.670  0.00  0.00    +0.000 A 
ATOM     25  C   UNL     1      49.459   8.411  18.291  0.00  0.00    +0.000 A 
ATOM     26  S   UNL     1      49.168   8.341  19.966  0.00  0.00    +0.000 S 
ATOM     27  C   UNL     1      48.940   6.658  19.907  0.00  0.00    +0.000 A 
ATOM     28  N   UNL     1      48.647   5.996  21.038  0.00  0.00    +0.000 NA
ATOM     29  C   UNL     1      48.517   4.682  20.858  0.00  0.00    +0.000 A 
ATOM     30  N   UNL     1      48.668   4.012  19.715  0.00  0.00    +0.000 NA
ATOM     31  C   UNL     1      48.955   4.731  18.616  0.00  0.00    +0.000 A 
ATOM     32 CL   UNL     1      49.269   3.826  17.216  0.00  0.00    +0.000 Cl
ATOM     33  C   UNL     1      49.100   6.119  18.634  0.00  0.00    +0.000 A 
ENDBRANCH  21  24
ENDBRANCH  19  20
ENDBRANCH   4  19
TORSDOF 7
ENDMDL
MODEL 3
REMARK VINA RESULT:    -8.089      2.277      2.743
REMARK INTER + INTRA:         -12.493
REMARK INTER:                 -11.471
REMARK INTRA:                  -1.022
REMARK UNBOUND:                -1.094
REMARK  Name = 
REMARK  8 active torsions:
REMARK  status: ('A' for Active; 'I' for Inactive)
REMARK    1  A    between atoms: C_1  and  C_2
REMARK    2  A    between atoms: C_2  and  N_3
REMARK    3  A    between atoms: C_2  and  C_25
REMARK    4  A    between atoms: N_3  and  C_4
REMARK    5  A    between atoms: C_4  and  C_5
REMARK    6  A    between atoms: C_8  and  C_9
REMARK    7  A    between atoms: C_9  and  N_10
REMARK    8  A    between atoms: C_11  and  C_13
REMARK                            x       y       z     vdW  Elec       q    Type
REMARK                         _______ _______ _______ _____ _____    ______ ____
ROOT
ATOM      1  C   UNL     1      44.651   5.504  11.479  0.00  0.00    +0.000 A 
ATOM      2  C   UNL     1      44.869   4.936  12.742  0.00  0.00    +0.000 A 
ATOM      3  C   UNL     1      46.008   5.261  13.485  0.00  0.00    +0.000 A 
ATOM      4  C   UNL     1      46.951   6.169  12.987  0.00  0.00    +0.000 A 
ATOM      5  C   UNL     1      46.745   6.724  11.717  0.00  0.00    +0.000 A 
ATOM      6  C   UNL     1      45.605   6.399  10.973  0.00  0.00    +0.000 A 
ENDROOT
BRANCH   1   7
ATOM      7  C   UNL     1      43.474   5.074  10.632  0.00  0.00    +0.000 C 
BRANCH   7   8
ATOM      8  N   UNL     1      43.874   4.349   9.422  0.00  0.00    +0.000 NA
ATOM      9  H   UNL     1      44.417   4.991   8.840  0.00  0.00    +0.000 HD
BRANCH   8  11
ATOM     10  C   UNL     1      43.967   1.946  10.167  0.00  0.00    +0.000 C 
ATOM     11  C   UNL     1      44.749   3.192   9.726  0.00  0.00    +0.000 C 
BRANCH  11  12
ATOM     12  C   UNL     1      45.647   2.844   8.534  0.00  0.00    +0.000 A 
ATOM     13  C   UNL     1      45.991   3.810   7.582  0.00  0.00    +0.000 A 
ATOM     14  C   UNL     1      46.837   3.460   6.529  0.00  0.00    +0.000 A 
ATOM     15  C   UNL     1      47.308   2.160   6.453  0.00  0.00    +0.000 A 
ATOM     16  F   UNL     1      48.132   1.794   5.463  0.00  0.00    +0.000 F 
ATOM     17  C   UNL     1      46.916   1.253   7.419  0.00  0.00    +0.000 A 
ATOM     18  N   UNL     1      46.099   1.562   8.457  0.00  0.00    +0.000 NA
ENDBRANCH  11  12
ENDBRANCH   8  11
ENDBRANCH   7   8
ENDBRANCH   1   7
BRANCH   4  19
ATOM     19  C   UNL     1      48.170   6.528  13.795  0.00  0.00    +0.000 C 
BRANCH  19  20
ATOM     20  N   UNL     1      47.956   6.322  15.208  0.00  0.00    +0.000 N 
ATOM     21  C   UNL     1      49.021   6.356  16.085  0.00  0.00    +0.000 C 
ATOM     22  O   UNL     1      50.179   6.498  15.712  0.00  0.00    +0.000 OA
ATOM     23  H   UNL     1      47.010   6.363  15.558  0.00  0.00    +0.000 HD
BRANCH  21  24
ATOM     24  C   UNL     1      48.667   6.166  17.492  0.00  0.00    +0.000 A 
ATOM     25  C   UNL     1      48.776   4.925  18.103  0.00  0.00    +0.000 A 
ATOM     26  S   UNL     1      48.416   4.959  19.766  0.00  0.00    +0.000 S 
ATOM     27  C   UNL     1      48.109   6.630  19.716  0.00  0.00    +0.000 A 
ATOM     28  N   UNL     1      47.758   7.265  20.847  0.00  0.00    +0.000 NA
ATOM     29  C   UNL     1      47.523   8.564  20.666  0.00  0.00    +0.000 A 
ATOM     30  N   UNL     1      47.584   9.237  19.516  0.00  0.00    +0.000 NA
ATOM     31  C   UNL     1      47.947   8.547  18.422  0.00  0.00    +0.000 A 
ATOM     32 CL   UNL     1      47.883   9.411  16.963  0.00  0.00    +0.000 Cl
ATOM     33  C   UNL     1      48.250   7.184  18.449  0.00  0.00    +0.000 A 
ENDBRANCH  21  24
ENDBRANCH  19  20
ENDBRANCH   4  19
TORSDOF 7
ENDMDL
MODEL 4
REMARK VINA RESULT:    -7.855      2.201      2.696
REMARK INTER + INTRA:         -12.163
REMARK INTER:                 -11.118
REMARK INTRA:                  -1.046
REMARK UNBOUND:                -1.094
REMARK  Name = 
REMARK  8 active torsions:
REMARK  status: ('A' for Active; 'I' for Inactive)
REMARK    1  A    between atoms: C_1  and  C_2
REMARK    2  A    between atoms: C_2  and  N_3
REMARK    3  A    between atoms: C_2  and  C_25
REMARK    4  A    between atoms: N_3  and  C_4
REMARK    5  A    between atoms: C_4  and  C_5
REMARK    6  A    between atoms: C_8  and  C_9
REMARK    7  A    between atoms: C_9  and  N_10
REMARK    8  A    between atoms: C_11  and  C_13
REMARK                            x       y       z     vdW  Elec       q    Type
REMARK                         _______ _______ _______ _____ _____    ______ ____
ROOT
ATOM      1  C   UNL     1      45.794   4.978  12.470  0.00  0.00    +0.000 A 
ATOM      2  C   UNL     1      46.684   4.817  13.541  0.00  0.00    +0.000 A 
ATOM      3  C   UNL     1      47.700   5.750  13.773  0.00  0.00    +0.000 A 
ATOM      4  C   UNL     1      47.844   6.869  12.944  0.00  0.00    +0.000 A 
ATOM      5  C   UNL     1      46.967   7.023  11.862  0.00  0.00    +0.000 A 
ATOM      6  C   UNL     1      45.950   6.090  11.630  0.00  0.00    +0.000 A 
ENDROOT
BRANCH   1   7
ATOM      7  C   UNL     1      44.762   3.916  12.157  0.00  0.00    +0.000 C 
BRANCH   7   8
ATOM      8  N   UNL     1      45.253   2.898  11.223  0.00  0.00    +0.000 NA
ATOM      9  H   UNL     1      45.084   1.982  11.645  0.00  0.00    +0.000 HD
BRANCH   8  11
ATOM     10  C   UNL     1      43.757   4.234   9.701  0.00  0.00    +0.000 C 
ATOM     11  C   UNL     1      44.524   2.924   9.933  0.00  0.00    +0.000 C 
BRANCH  11  12
ATOM     12  C   UNL     1      45.466   2.661   8.755  0.00  0.00    +0.000 A 
ATOM     13  C   UNL     1      45.809   3.681   7.859  0.00  0.00    +0.000 A 
ATOM     14  C   UNL     1      46.695   3.406   6.817  0.00  0.00    +0.000 A 
ATOM     15  C   UNL     1      47.207   2.126   6.694  0.00  0.00    +0.000 A 
ATOM     16  F   UNL     1      48.070   1.832   5.714  0.00  0.00    +0.000 F 
ATOM     17  C   UNL     1      46.814   1.162   7.604  0.00  0.00    +0.000 A 
ATOM     18  N   UNL     1      45.959   1.398   8.630  0.00  0.00    +0.000 NA
ENDBRANCH  11  12
ENDBRANCH   8  11
ENDBRANCH   7   8
ENDBRANCH   1   7
BRANCH   4  19
ATOM     19  C   UNL     1      48.930   7.879  13.204  0.00  0.00    +0.000 C 
BRANCH  19  20
ATOM     20  N   UNL     1      50.037   7.303  13.931  0.00  0.00    +0.000 N 
ATOM     21  C   UNL     1      50.198   7.564  15.275  0.00  0.00    +0.000 C 
ATOM     22  O   UNL     1      49.464   8.327  15.892  0.00  0.00    +0.000 OA
ATOM     23  H   UNL     1      50.556   6.554  13.494  0.00  0.00    +0.000 HD
BRANCH  21  24
ATOM     24  C   UNL     1      51.338   6.894  15.902  0.00  0.00    +0.000 A 
ATOM     25  C   UNL     1      52.642   7.281  15.628  0.00  0.00    +0.000 A 
ATOM     26  S   UNL     1      53.801   6.440  16.547  0.00  0.00    +0.000 S 
ATOM     27  C   UNL     1      52.595   5.540  17.337  0.00  0.00    +0.000 A 
ATOM     28  N   UNL     1      52.953   4.638  18.266  0.00  0.00    +0.000 NA
ATOM     29  C   UNL     1      51.915   3.986  18.790  0.00  0.00    +0.000 A 
ATOM     30  N   UNL     1      50.630   4.135  18.467  0.00  0.00    +0.000 NA
ATOM     31  C   UNL     1      50.335   5.057  17.536  0.00  0.00    +0.000 A 
ATOM     32 CL   UNL     1      48.707   5.118  17.062  0.00  0.00    +0.000 Cl
ATOM     33  C   UNL     1      51.306   5.840  16.909  0.00  0.00    +0.000 A 
ENDBRANCH  21  24
ENDBRANCH  19  20
ENDBRANCH   4  19
TORSDOF 7
ENDMDL
MODEL 5
REMARK VINA RESULT:    -7.405      3.004      3.905
REMARK INTER + INTRA:         -11.529
REMARK INTER:                 -10.793
REMARK INTRA:                  -0.736
REMARK UNBOUND:                -1.094
REMARK  Name = 
REMARK  8 active torsions:
REMARK  status: ('A' for Active; 'I' for Inactive)
REMARK    1  A    between atoms: C_1  and  C_2
REMARK    2  A    between atoms: C_2  and  N_3
REMARK    3  A    between atoms: C_2  and  C_25
REMARK    4  A    between atoms: N_3  and  C_4
REMARK    5  A    between atoms: C_4  and  C_5
REMARK    6  A    between atoms: C_8  and  C_9
REMARK    7  A    between atoms: C_9  and  N_10
REMARK    8  A    between atoms: C_11  and  C_13
REMARK                            x       y       z     vdW  Elec       q    Type
REMARK                         _______ _______ _______ _____ _____    ______ ____
ROOT
ATOM      1  C   UNL     1      46.368   4.223  13.351  0.00  0.00    +0.000 A 
ATOM      2  C   UNL     1      46.804   5.488  12.936  0.00  0.00    +0.000 A 
ATOM      3  C   UNL     1      47.592   6.284  13.774  0.00  0.00    +0.000 A 
ATOM      4  C   UNL     1      47.967   5.829  15.044  0.00  0.00    +0.000 A 
ATOM      5  C   UNL     1      47.516   4.572  15.469  0.00  0.00    +0.000 A 
ATOM      6  C   UNL     1      46.729   3.775  14.630  0.00  0.00    +0.000 A 
ENDROOT
BRANCH   1   7
ATOM      7  C   UNL     1      45.431   3.407  12.487  0.00  0.00    +0.000 C 
BRANCH   7   8
ATOM      8  N   UNL     1      44.018   3.715  12.725  0.00  0.00    +0.000 NA
ATOM      9  H   UNL     1      43.977   4.507  13.371  0.00  0.00    +0.000 HD
BRANCH   8  11
ATOM     10  C   UNL     1      42.999   5.630  11.446  0.00  0.00    +0.000 C 
ATOM     11  C   UNL     1      43.318   4.129  11.485  0.00  0.00    +0.000 C 
BRANCH  11  12
ATOM     12  C   UNL     1      44.116   3.736  10.237  0.00  0.00    +0.000 A 
ATOM     13  C   UNL     1      44.846   4.688   9.517  0.00  0.00    +0.000 A 
ATOM     14  C   UNL     1      45.584   4.284   8.404  0.00  0.00    +0.000 A 
ATOM     15  C   UNL     1      45.567   2.948   8.039  0.00  0.00    +0.000 A 
ATOM     16  F   UNL     1      46.275   2.524   6.985  0.00  0.00    +0.000 F 
ATOM     17  C   UNL     1      44.812   2.064   8.787  0.00  0.00    +0.000 A 
ATOM     18  N   UNL     1      44.088   2.424   9.875  0.00  0.00    +0.000 NA
ENDBRANCH  11  12
ENDBRANCH   8  11
ENDBRANCH   7   8
ENDBRANCH   1   7
BRANCH   4  19
ATOM     19  C   UNL     1      48.826   6.682  15.940  0.00  0.00    +0.000 C 
BRANCH  19  20
ATOM     20  N   UNL     1      50.040   6.002  16.326  0.00  0.00    +0.000 N 
ATOM     21  C   UNL     1      50.125   5.371  17.548  0.00  0.00    +0.000 C 
ATOM     22  O   UNL     1      49.219   5.404  18.373  0.00  0.00    +0.000 OA
ATOM     23  H   UNL     1      50.733   5.823  15.613  0.00  0.00    +0.000 HD
BRANCH  21  24
ATOM     24  C   UNL     1      51.396   4.692  17.805  0.00  0.00    +0.000 A 
ATOM     25  C   UNL     1      52.518   5.393  18.219  0.00  0.00    +0.000 A 
ATOM     26  S   UNL     1      53.851   4.391  18.561  0.00  0.00    +0.000 S 
ATOM     27  C   UNL     1      52.965   2.995  18.170  0.00  0.00    +0.000 A 
ATOM     28  N   UNL     1      53.557   1.793  18.272  0.00  0.00    +0.000 NA
ATOM     29  C   UNL     1      52.762   0.786  17.913  0.00  0.00    +0.000 A 
ATOM     30  N   UNL     1      51.508   0.874  17.468  0.00  0.00    +0.000 NA
ATOM     31  C   UNL     1      50.969   2.103  17.394  0.00  0.00    +0.000 A 
ATOM     32 CL   UNL     1      49.424   2.179  16.698  0.00  0.00    +0.000 Cl
ATOM     33  C   UNL     1      51.663   3.259  17.756  0.00  0.00    +0.000 A 
ENDBRANCH  21  24
ENDBRANCH  19  20
ENDBRANCH   4  19
TORSDOF 7
ENDMDL
MODEL 6
REMARK VINA RESULT:    -7.152      5.223      7.146
REMARK INTER + INTRA:         -11.173
REMARK INTER:                  -9.956
REMARK INTRA:                  -1.217
REMARK UNBOUND:                -1.094
REMARK  Name = 
REMARK  8 active torsions:
REMARK  status: ('A' for Active; 'I' for Inactive)
REMARK    1  A    between atoms: C_1  and  C_2
REMARK    2  A    between atoms: C_2  and  N_3
REMARK    3  A    between atoms: C_2  and  C_25
REMARK    4  A    between atoms: N_3  and  C_4
REMARK    5  A    between atoms: C_4  and  C_5
REMARK    6  A    between atoms: C_8  and  C_9
REMARK    7  A    between atoms: C_9  and  N_10
REMARK    8  A    between atoms: C_11  and  C_13
REMARK                            x       y       z     vdW  Elec       q    Type
REMARK                         _______ _______ _______ _____ _____    ______ ____
ROOT
ATOM      1  C   UNL     1      46.676   6.291  12.956  0.00  0.00    +0.000 A 
ATOM      2  C   UNL     1      47.662   6.309  13.952  0.00  0.00    +0.000 A 
ATOM      3  C   UNL     1      48.920   6.868  13.703  0.00  0.00    +0.000 A 
ATOM      4  C   UNL     1      49.218   7.427  12.455  0.00  0.00    +0.000 A 
ATOM      5  C   UNL     1      48.241   7.393  11.451  0.00  0.00    +0.000 A 
ATOM      6  C   UNL     1      46.982   6.835  11.700  0.00  0.00    +0.000 A 
ENDROOT
BRANCH   1   7
ATOM      7  C   UNL     1      45.353   5.594  13.191  0.00  0.00    +0.000 C 
BRANCH   7   8
ATOM      8  N   UNL     1      45.286   4.268  12.571  0.00  0.00    +0.000 NA
ATOM      9  H   UNL     1      45.038   3.595  13.300  0.00  0.00    +0.000 HD
BRANCH   8  11
ATOM     10  C   UNL     1      43.458   5.502  11.358  0.00  0.00    +0.000 C 
ATOM     11  C   UNL     1      44.234   4.189  11.530  0.00  0.00    +0.000 C 
BRANCH  11  12
ATOM     12  C   UNL     1      44.815   3.751  10.182  0.00  0.00    +0.000 A 
ATOM     13  C   UNL     1      45.292   4.690   9.259  0.00  0.00    +0.000 A 
ATOM     14  C   UNL     1      45.841   4.247   8.056  0.00  0.00    +0.000 A 
ATOM     15  C   UNL     1      45.894   2.887   7.805  0.00  0.00    +0.000 A 
ATOM     16  F   UNL     1      46.427   2.427   6.666  0.00  0.00    +0.000 F 
ATOM     17  C   UNL     1      45.391   2.015   8.753  0.00  0.00    +0.000 A 
ATOM     18  N   UNL     1      44.855   2.413   9.933  0.00  0.00    +0.000 NA
ENDBRANCH  11  12
ENDBRANCH   8  11
ENDBRANCH   7   8
ENDBRANCH   1   7
BRANCH   4  19
ATOM     19  C   UNL     1      50.569   8.040  12.194  0.00  0.00    +0.000 C 
BRANCH  19  20
ATOM     20  N   UNL     1      51.184   7.497  11.005  0.00  0.00    +0.000 N 
ATOM     21  C   UNL     1      52.500   7.784  10.710  0.00  0.00    +0.000 C 
ATOM     22  O   UNL     1      53.180   8.540  11.392  0.00  0.00    +0.000 OA
ATOM     23  H   UNL     1      50.705   6.752  10.518  0.00  0.00    +0.000 HD
BRANCH  21  24
ATOM     24  C   UNL     1      53.012   7.147   9.495  0.00  0.00    +0.000 A 
ATOM     25  C   UNL     1      53.407   5.818   9.489  0.00  0.00    +0.000 A 
ATOM     26  S   UNL     1      53.865   5.258   7.948  0.00  0.00    +0.000 S 
ATOM     27  C   UNL     1      53.546   6.773   7.248  0.00  0.00    +0.000 A 
ATOM     28  N   UNL     1      53.736   6.939   5.929  0.00  0.00    +0.000 NA
ATOM     29  C   UNL     1      53.473   8.177   5.513  0.00  0.00    +0.000 A 
ATOM     30  N   UNL     1      53.079   9.207   6.263  0.00  0.00    +0.000 NA
ATOM     31  C   UNL     1      52.901   8.977   7.574  0.00  0.00    +0.000 A 
ATOM     32 CL   UNL     1      52.531  10.344   8.509  0.00  0.00    +0.000 Cl
ATOM     33  C   UNL     1      53.111   7.728   8.162  0.00  0.00    +0.000 A 
ENDBRANCH  21  24
ENDBRANCH  19  20
ENDBRANCH   4  19
TORSDOF 7
ENDMDL
MODEL 7
REMARK VINA RESULT:    -7.065      1.987      2.744
REMARK INTER + INTRA:         -11.050
REMARK INTER:                  -9.815
REMARK INTRA:                  -1.235
REMARK UNBOUND:                -1.094
REMARK  Name = 
REMARK  8 active torsions:
REMARK  status: ('A' for Active; 'I' for Inactive)
REMARK    1  A    between atoms: C_1  and  C_2
REMARK    2  A    between atoms: C_2  and  N_3
REMARK    3  A    between atoms: C_2  and  C_25
REMARK    4  A    between atoms: N_3  and  C_4
REMARK    5  A    between atoms: C_4  and  C_5
REMARK    6  A    between atoms: C_8  and  C_9
REMARK    7  A    between atoms: C_9  and  N_10
REMARK    8  A    between atoms: C_11  and  C_13
REMARK                            x       y       z     vdW  Elec       q    Type
REMARK                         _______ _______ _______ _____ _____    ______ ____
ROOT
ATOM      1  C   UNL     1      46.138   7.644  12.162  0.00  0.00    +0.000 A 
ATOM      2  C   UNL     1      46.400   8.592  13.160  0.00  0.00    +0.000 A 
ATOM      3  C   UNL     1      47.714   8.917  13.512  0.00  0.00    +0.000 A 
ATOM      4  C   UNL     1      48.796   8.306  12.868  0.00  0.00    +0.000 A 
ATOM      5  C   UNL     1      48.538   7.344  11.883  0.00  0.00    +0.000 A 
ATOM      6  C   UNL     1      47.223   7.020  11.530  0.00  0.00    +0.000 A 
ENDROOT
BRANCH   1   7
ATOM      7  C   UNL     1      44.719   7.218  11.854  0.00  0.00    +0.000 C 
BRANCH   7   8
ATOM      8  N   UNL     1      44.616   6.410  10.635  0.00  0.00    +0.000 NA
ATOM      9  H   UNL     1      45.478   6.543  10.100  0.00  0.00    +0.000 HD
BRANCH   8  11
ATOM     10  C   UNL     1      43.067   4.517  11.232  0.00  0.00    +0.000 C 
ATOM     11  C   UNL     1      44.505   4.962  10.930  0.00  0.00    +0.000 C 
BRANCH  11  12
ATOM     12  C   UNL     1      45.080   4.115   9.790  0.00  0.00    +0.000 A 
ATOM     13  C   UNL     1      44.970   2.720   9.798  0.00  0.00    +0.000 A 
ATOM     14  C   UNL     1      45.480   1.988   8.725  0.00  0.00    +0.000 A 
ATOM     15  C   UNL     1      46.090   2.665   7.683  0.00  0.00    +0.000 A 
ATOM     16  F   UNL     1      46.578   1.995   6.632  0.00  0.00    +0.000 F 
ATOM     17  C   UNL     1      46.179   4.044   7.747  0.00  0.00    +0.000 A 
ATOM     18  N   UNL     1      45.690   4.784   8.772  0.00  0.00    +0.000 NA
ENDBRANCH  11  12
ENDBRANCH   8  11
ENDBRANCH   7   8
ENDBRANCH   1   7
BRANCH   4  19
ATOM     19  C   UNL     1      50.211   8.667  13.240  0.00  0.00    +0.000 C 
BRANCH  19  20
ATOM     20  N   UNL     1      50.807   7.678  14.107  0.00  0.00    +0.000 N 
ATOM     21  C   UNL     1      51.084   7.984  15.423  0.00  0.00    +0.000 C 
ATOM     22  O   UNL     1      50.899   9.099  15.895  0.00  0.00    +0.000 OA
ATOM     23  H   UNL     1      50.820   6.717  13.796  0.00  0.00    +0.000 HD
BRANCH  21  24
ATOM     24  C   UNL     1      51.656   6.886  16.204  0.00  0.00    +0.000 A 
ATOM     25  C   UNL     1      53.011   6.837  16.495  0.00  0.00    +0.000 A 
ATOM     26  S   UNL     1      53.437   5.534  17.503  0.00  0.00    +0.000 S 
ATOM     27  C   UNL     1      51.825   5.002  17.581  0.00  0.00    +0.000 A 
ATOM     28  N   UNL     1      51.528   3.915  18.312  0.00  0.00    +0.000 NA
ATOM     29  C   UNL     1      50.236   3.592  18.270  0.00  0.00    +0.000 A 
ATOM     30  N   UNL     1      49.277   4.214  17.582  0.00  0.00    +0.000 NA
ATOM     31  C   UNL     1      49.635   5.299  16.875  0.00  0.00    +0.000 A 
ATOM     32 CL   UNL     1      48.413   5.976  15.912  0.00  0.00    +0.000 Cl
ATOM     33  C   UNL     1      50.945   5.780  16.835  0.00  0.00    +0.000 A 
ENDBRANCH  21  24
ENDBRANCH  19  20
ENDBRANCH   4  19
TORSDOF 7
ENDMDL
MODEL 8
REMARK VINA RESULT:    -6.728      4.147      8.490
REMARK INTER + INTRA:         -10.575
REMARK INTER:                  -8.795
REMARK INTRA:                  -1.780
REMARK UNBOUND:                -1.094
REMARK  Name = 
REMARK  8 active torsions:
REMARK  status: ('A' for Active; 'I' for Inactive)
REMARK    1  A    between atoms: C_1  and  C_2
REMARK    2  A    between atoms: C_2  and  N_3
REMARK    3  A    between atoms: C_2  and  C_25
REMARK    4  A    between atoms: N_3  and  C_4
REMARK    5  A    between atoms: C_4  and  C_5
REMARK    6  A    between atoms: C_8  and  C_9
REMARK    7  A    between atoms: C_9  and  N_10
REMARK    8  A    between atoms: C_11  and  C_13
REMARK                            x       y       z     vdW  Elec       q    Type
REMARK                         _______ _______ _______ _____ _____    ______ ____
ROOT
ATOM      1  C   UNL     1      49.032   8.163  18.123  0.00  0.00    +0.000 A 
ATOM      2  C   UNL     1      49.663   7.330  17.189  0.00  0.00    +0.000 A 
ATOM      3  C   UNL     1      49.411   7.472  15.820  0.00  0.00    +0.000 A 
ATOM      4  C   UNL     1      48.529   8.454  15.355  0.00  0.00    +0.000 A 
ATOM      5  C   UNL     1      47.883   9.276  16.288  0.00  0.00    +0.000 A 
ATOM      6  C   UNL     1      48.135   9.135  17.658  0.00  0.00    +0.000 A 
ENDROOT
BRANCH   1   7
ATOM      7  C   UNL     1      49.224   7.941  19.608  0.00  0.00    +0.000 C 
BRANCH   7   8
ATOM      8  N   UNL     1      49.833   6.645  19.920  0.00  0.00    +0.000 NA
ATOM      9  H   UNL     1      50.402   6.762  20.762  0.00  0.00    +0.000 HD
BRANCH   8  11
ATOM     10  C   UNL     1      47.476   6.195  20.685  0.00  0.00    +0.000 C 
ATOM     11  C   UNL     1      48.818   5.608  20.222  0.00  0.00    +0.000 C 
BRANCH  11  12
ATOM     12  C   UNL     1      48.592   4.682  19.023  0.00  0.00    +0.000 A 
ATOM     13  C   UNL     1      47.401   4.728  18.288  0.00  0.00    +0.000 A 
ATOM     14  C   UNL     1      47.248   3.889  17.184  0.00  0.00    +0.000 A 
ATOM     15  C   UNL     1      48.279   3.027  16.849  0.00  0.00    +0.000 A 
ATOM     16  F   UNL     1      48.170   2.219  15.788  0.00  0.00    +0.000 F 
ATOM     17  C   UNL     1      49.422   3.023  17.628  0.00  0.00    +0.000 A 
ATOM     18  N   UNL     1      49.603   3.829  18.704  0.00  0.00    +0.000 NA
ENDBRANCH  11  12
ENDBRANCH   8  11
ENDBRANCH   7   8
ENDBRANCH   1   7
BRANCH   4  19
ATOM     19  C   UNL     1      48.270   8.614  13.879  0.00  0.00    +0.000 C 
BRANCH  19  20
ATOM     20  N   UNL     1      46.996   8.053  13.495  0.00  0.00    +0.000 N 
ATOM     21  C   UNL     1      46.875   7.344  12.319  0.00  0.00    +0.000 C 
ATOM     22  O   UNL     1      47.804   7.206  11.532  0.00  0.00    +0.000 OA
ATOM     23  H   UNL     1      46.264   8.012  14.190  0.00  0.00    +0.000 HD
BRANCH  21  24
ATOM     24  C   UNL     1      45.540   6.801  12.060  0.00  0.00    +0.000 A 
ATOM     25  C   UNL     1      44.537   7.583  11.508  0.00  0.00    +0.000 A 
ATOM     26  S   UNL     1      43.104   6.721  11.196  0.00  0.00    +0.000 S 
ATOM     27  C   UNL     1      43.785   5.279  11.785  0.00  0.00    +0.000 A 
ATOM     28  N   UNL     1      43.049   4.155  11.776  0.00  0.00    +0.000 NA
ATOM     29  C   UNL     1      43.691   3.105  12.286  0.00  0.00    +0.000 A 
ATOM     30  N   UNL     1      44.924   3.088  12.793  0.00  0.00    +0.000 NA
ATOM     31  C   UNL     1      45.612   4.242  12.768  0.00  0.00    +0.000 A 
ATOM     32 CL   UNL     1      47.121   4.206  13.543  0.00  0.00    +0.000 Cl
ATOM     33  C   UNL     1      45.089   5.426  12.245  0.00  0.00    +0.000 A 
ENDBRANCH  21  24
ENDBRANCH  19  20
ENDBRANCH   4  19
TORSDOF 7
ENDMDL
MODEL 9
REMARK VINA RESULT:    -6.707      5.331      9.971
REMARK INTER + INTRA:         -10.546
REMARK INTER:                  -9.537
REMARK INTRA:                  -1.009
REMARK UNBOUND:                -1.094
REMARK  Name = 
REMARK  8 active torsions:
REMARK  status: ('A' for Active; 'I' for Inactive)
REMARK    1  A    between atoms: C_1  and  C_2
REMARK    2  A    between atoms: C_2  and  N_3
REMARK    3  A    between atoms: C_2  and  C_25
REMARK    4  A    between atoms: N_3  and  C_4
REMARK    5  A    between atoms: C_4  and  C_5
REMARK    6  A    between atoms: C_8  and  C_9
REMARK    7  A    between atoms: C_9  and  N_10
REMARK    8  A    between atoms: C_11  and  C_13
REMARK                            x       y       z     vdW  Elec       q    Type
REMARK                         _______ _______ _______ _____ _____    ______ ____
ROOT
ATOM      1  C   UNL     1      51.428   3.562  17.777  0.00  0.00    +0.000 A 
ATOM      2  C   UNL     1      50.868   2.341  17.377  0.00  0.00    +0.000 A 
ATOM      3  C   UNL     1      49.526   2.261  16.990  0.00  0.00    +0.000 A 
ATOM      4  C   UNL     1      48.716   3.403  16.987  0.00  0.00    +0.000 A 
ATOM      5  C   UNL     1      49.268   4.622  17.404  0.00  0.00    +0.000 A 
ATOM      6  C   UNL     1      50.611   4.701  17.790  0.00  0.00    +0.000 A 
ENDROOT
BRANCH   1   7
ATOM      7  C   UNL     1      52.849   3.628  18.294  0.00  0.00    +0.000 C 
BRANCH   7   8
ATOM      8  N   UNL     1      53.136   2.610  19.309  0.00  0.00    +0.000 NA
ATOM      9  H   UNL     1      52.519   1.813  19.134  0.00  0.00    +0.000 HD
BRANCH   8  11
ATOM     10  C   UNL     1      55.217   2.002  20.590  0.00  0.00    +0.000 C 
ATOM     11  C   UNL     1      54.529   2.110  19.221  0.00  0.00    +0.000 C 
BRANCH  11  12
ATOM     12  C   UNL     1      54.591   0.758  18.503  0.00  0.00    +0.000 A 
ATOM     13  C   UNL     1      54.755   0.684  17.115  0.00  0.00    +0.000 A 
ATOM     14  C   UNL     1      54.838  -0.567  16.503  0.00  0.00    +0.000 A 
ATOM     15  C   UNL     1      54.749  -1.704  17.288  0.00  0.00    +0.000 A 
ATOM     16  F   UNL     1      54.838  -2.920  16.735  0.00  0.00    +0.000 F 
ATOM     17  C   UNL     1      54.572  -1.558  18.652  0.00  0.00    +0.000 A 
ATOM     18  N   UNL     1      54.492  -0.357  19.277  0.00  0.00    +0.000 NA
ENDBRANCH  11  12
ENDBRANCH   8  11
ENDBRANCH   7   8
ENDBRANCH   1   7
BRANCH   4  19
ATOM     19  C   UNL     1      47.275   3.317  16.557  0.00  0.00    +0.000 C 
BRANCH  19  20
ATOM     20  N   UNL     1      46.897   4.433  15.722  0.00  0.00    +0.000 N 
ATOM     21  C   UNL     1      46.865   4.296  14.351  0.00  0.00    +0.000 C 
ATOM     22  O   UNL     1      47.204   3.265  13.782  0.00  0.00    +0.000 OA
ATOM     23  H   UNL     1      46.463   5.233  16.162  0.00  0.00    +0.000 HD
BRANCH  21  24
ATOM     24  C   UNL     1      46.435   5.489  13.621  0.00  0.00    +0.000 A 
ATOM     25  C   UNL     1      47.212   6.638  13.595  0.00  0.00    +0.000 A 
ATOM     26  S   UNL     1      46.572   7.862  12.600  0.00  0.00    +0.000 S 
ATOM     27  C   UNL     1      45.244   6.890  12.174  0.00  0.00    +0.000 A 
ATOM     28  N   UNL     1      44.323   7.375  11.326  0.00  0.00    +0.000 NA
ATOM     29  C   UNL     1      43.324   6.524  11.095  0.00  0.00    +0.000 A 
ATOM     30  N   UNL     1      43.167   5.311  11.625  0.00  0.00    +0.000 NA
ATOM     31  C   UNL     1      44.125   4.879  12.462  0.00  0.00    +0.000 A 
ATOM     32 CL   UNL     1      43.818   3.390  13.214  0.00  0.00    +0.000 Cl
ATOM     33  C   UNL     1      45.248   5.642  12.788  0.00  0.00    +0.000 A 
ENDBRANCH  21  24
ENDBRANCH  19  20
ENDBRANCH   4  19
TORSDOF 7
ENDMDL
