MODEL 1
REMARK VINA RESULT:    -7.474      0.000      0.000
REMARK INTER + INTRA:         -10.413
REMARK INTER:                  -9.659
REMARK INTRA:                  -0.754
REMARK UNBOUND:                -0.754
REMARK  Name = 
REMARK  6 active torsions:
REMARK  status: ('A' for Active; 'I' for Inactive)
REMARK    1  A    between atoms: C_1  and  N_2
REMARK    2  A    between atoms: N_2  and  C_3
REMARK    3  A    between atoms: N_2  and  C_10
REMARK    4  A    between atoms: C_3  and  C_4
REMARK    5  A    between atoms: C_10  and  C_11
REMARK    6  A    between atoms: C_15  and  C_17
REMARK                            x       y       z     vdW  Elec       q    Type
REMARK                         _______ _______ _______ _____ _____    ______ ____
ROOT
ATOM      1  C   UNL     1      44.983   5.708  12.369  0.00  0.00    +0.000 C 
ATOM      2  C   UNL     1      45.191   7.196  12.666  0.00  0.00    +0.000 C 
ATOM      3  C   UNL     1      46.646   7.598  12.859  0.00  0.00    +0.000 C 
ATOM      4  N   UNL     1      47.426   6.735  13.739  0.00  0.00    +0.000 N 
ATOM      5  C   UNL     1      48.635   7.140  14.370  0.00  0.00    +0.000 C 
ATOM      6  O   UNL     1      49.317   6.334  14.999  0.00  0.00    +0.000 OA
ATOM      7  C   UNL     1      47.220   5.294  13.578  0.00  0.00    +0.000 C 
ATOM      8  C   UNL     1      45.755   4.888  13.413  0.00  0.00    +0.000 C 
ENDROOT
BRANCH   5   9
ATOM      9  C   UNL     1      49.097   8.540  14.234  0.00  0.00    +0.000 A 
ATOM     10  C   UNL     1      48.751   9.551  15.122  0.00  0.00    +0.000 A 
ATOM     11  S   UNL     1      49.505  11.044  14.807  0.00  0.00    +0.000 S 
ATOM     12  C   UNL     1      50.152  10.460  13.349  0.00  0.00    +0.000 A 
ATOM     13  N   UNL     1      50.872  11.286  12.546  0.00  0.00    +0.000 NA
ATOM     14  C   UNL     1      51.261  10.742  11.442  0.00  0.00    +0.000 A 
ATOM     15  N   UNL     1      50.996   9.451  11.077  0.00  0.00    +0.000 N 
ATOM     16  C   UNL     1      50.278   8.567  11.863  0.00  0.00    +0.000 A 
ATOM     17  O   UNL     1      50.067   7.425  11.471  0.00  0.00    +0.000 OA
ATOM     18  C   UNL     1      49.828   9.131  13.127  0.00  0.00    +0.000 A 
ATOM     19  H   UNL     1      51.303   9.088  10.187  0.00  0.00    +0.000 HD
ENDBRANCH   5   9
BRANCH   1  20
ATOM     20  C   UNL     1      45.281   5.343  10.886  0.00  0.00    +0.000 C 
BRANCH  20  22
ATOM     21  C   UNL     1      43.418   3.766  11.044  0.00  0.00    +0.000 C 
ATOM     22  N   UNL     1      44.726   4.047  10.428  0.00  0.00    +0.000 NA
BRANCH  22  23
ATOM     23  C   UNL     1      44.572   4.053   8.945  0.00  0.00    +0.000 C 
BRANCH  23  24
ATOM     24  C   UNL     1      45.541   3.127   8.211  0.00  0.00    +0.000 A 
ATOM     25  C   UNL     1      46.419   3.644   7.263  0.00  0.00    +0.000 A 
ATOM     26  C   UNL     1      47.366   2.807   6.684  0.00  0.00    +0.000 A 
ATOM     27  C   UNL     1      47.410   1.472   7.057  0.00  0.00    +0.000 A 
ATOM     28  C   UNL     1      46.495   1.025   7.996  0.00  0.00    +0.000 A 
ATOM     29  N   UNL     1      45.566   1.814   8.576  0.00  0.00    +0.000 NA
ENDBRANCH  23  24
ENDBRANCH  22  23
ENDBRANCH  20  22
ENDBRANCH   1  20
TORSDOF 5
ENDMDL
MODEL 2
REMARK VINA RESULT:    -7.225      1.788      2.344
REMARK INTER + INTRA:         -10.090
REMARK INTER:                  -9.141
REMARK INTRA:                  -0.949
REMARK UNBOUND:                -0.754
REMARK  Name = 
REMARK  6 active torsions:
REMARK  status: ('A' for Active; 'I' for Inactive)
REMARK    1  A    between atoms: C_1  and  N_2
REMARK    2  A    between atoms: N_2  and  C_3
REMARK    3  A    between atoms: N_2  and  C_10
REMARK    4  A    between atoms: C_3  and  C_4
REMARK    5  A    between atoms: C_10  and  C_11
REMARK    6  A    between atoms: C_15  and  C_17
REMARK                            x       y       z     vdW  Elec       q    Type
REMARK                         _______ _______ _______ _____ _____    ______ ____
ROOT
ATOM      1  C   UNL     1      44.925   5.301  10.869  0.00  0.00    +0.000 C 
ATOM      2  C   UNL     1      46.073   6.071  10.210  0.00  0.00    +0.000 C 
ATOM      3  C   UNL     1      47.006   6.764  11.192  0.00  0.00    +0.000 C 
ATOM      4  N   UNL     1      46.352   7.528  12.249  0.00  0.00    +0.000 N 
ATOM      5  C   UNL     1      46.995   8.556  12.993  0.00  0.00    +0.000 C 
ATOM      6  O   UNL     1      46.437   9.080  13.955  0.00  0.00    +0.000 OA
ATOM      7  C   UNL     1      45.186   6.896  12.874  0.00  0.00    +0.000 C 
ATOM      8  C   UNL     1      44.235   6.225  11.883  0.00  0.00    +0.000 C 
ENDROOT
BRANCH   5   9
ATOM      9  C   UNL     1      48.367   8.973  12.626  0.00  0.00    +0.000 A 
ATOM     10  C   UNL     1      48.657   9.778  11.531  0.00  0.00    +0.000 A 
ATOM     11  S   UNL     1      50.298  10.206  11.395  0.00  0.00    +0.000 S 
ATOM     12  C   UNL     1      50.722   9.160  12.664  0.00  0.00    +0.000 A 
ATOM     13  N   UNL     1      52.026   9.012  13.017  0.00  0.00    +0.000 NA
ATOM     14  C   UNL     1      52.224   8.148  13.956  0.00  0.00    +0.000 A 
ATOM     15  N   UNL     1      51.237   7.427  14.569  0.00  0.00    +0.000 N 
ATOM     16  C   UNL     1      49.895   7.548  14.255  0.00  0.00    +0.000 A 
ATOM     17  O   UNL     1      49.061   6.864  14.837  0.00  0.00    +0.000 OA
ATOM     18  C   UNL     1      49.619   8.523  13.209  0.00  0.00    +0.000 A 
ATOM     19  H   UNL     1      51.456   6.745  15.280  0.00  0.00    +0.000 HD
ENDBRANCH   5   9
BRANCH   1  20
ATOM     20  C   UNL     1      45.368   3.918  11.425  0.00  0.00    +0.000 C 
BRANCH  20  22
ATOM     21  C   UNL     1      43.359   2.556  11.730  0.00  0.00    +0.000 C 
ATOM     22  N   UNL     1      44.585   2.758  10.939  0.00  0.00    +0.000 NA
BRANCH  22  23
ATOM     23  C   UNL     1      44.212   2.956   9.509  0.00  0.00    +0.000 C 
BRANCH  23  24
ATOM     24  C   UNL     1      45.302   2.557   8.515  0.00  0.00    +0.000 A 
ATOM     25  C   UNL     1      45.834   3.503   7.645  0.00  0.00    +0.000 A 
ATOM     26  C   UNL     1      46.899   3.150   6.824  0.00  0.00    +0.000 A 
ATOM     27  C   UNL     1      47.403   1.859   6.883  0.00  0.00    +0.000 A 
ATOM     28  C   UNL     1      46.813   0.967   7.763  0.00  0.00    +0.000 A 
ATOM     29  N   UNL     1      45.780   1.282   8.573  0.00  0.00    +0.000 NA
ENDBRANCH  23  24
ENDBRANCH  22  23
ENDBRANCH  20  22
ENDBRANCH   1  20
TORSDOF 5
ENDMDL
MODEL 3
REMARK VINA RESULT:    -6.983      2.751      3.484
REMARK INTER + INTRA:          -9.778
REMARK INTER:                  -8.941
REMARK INTRA:                  -0.838
REMARK UNBOUND:                -0.754
REMARK  Name = 
REMARK  6 active torsions:
REMARK  status: ('A' for Active; 'I' for Inactive)
REMARK    1  A    between atoms: C_1  and  N_2
REMARK    2  A    between atoms: N_2  and  C_3
REMARK    3  A    between atoms: N_2  and  C_10
REMARK    4  A    between atoms: C_3  and  C_4
REMARK    5  A    between atoms: C_10  and  C_11
REMARK    6  A    between atoms: C_15  and  C_17
REMARK                            x       y       z     vdW  Elec       q    Type
REMARK                         _______ _______ _______ _____ _____    ______ ____
ROOT
ATOM      1  C   UNL     1      46.027   6.743  11.730  0.00  0.00    +0.000 C 
ATOM      2  C   UNL     1      47.256   5.981  12.233  0.00  0.00    +0.000 C 
ATOM      3  C   UNL     1      47.651   6.308  13.666  0.00  0.00    +0.000 C 
ATOM      4  N   UNL     1      47.696   7.728  13.998  0.00  0.00    +0.000 N 
ATOM      5  C   UNL     1      48.417   8.256  15.105  0.00  0.00    +0.000 C 
ATOM      6  O   UNL     1      48.318   9.442  15.412  0.00  0.00    +0.000 OA
ATOM      7  C   UNL     1      46.597   8.547  13.478  0.00  0.00    +0.000 C 
ATOM      8  C   UNL     1      46.221   8.237  12.029  0.00  0.00    +0.000 C 
ENDROOT
BRANCH   5   9
ATOM      9  C   UNL     1      49.266   7.358  15.919  0.00  0.00    +0.000 A 
ATOM     10  C   UNL     1      48.798   6.650  17.019  0.00  0.00    +0.000 A 
ATOM     11  S   UNL     1      49.946   5.601  17.712  0.00  0.00    +0.000 S 
ATOM     12  C   UNL     1      51.174   6.209  16.709  0.00  0.00    +0.000 A 
ATOM     13  N   UNL     1      52.448   5.758  16.844  0.00  0.00    +0.000 NA
ATOM     14  C   UNL     1      53.298   6.337  16.064  0.00  0.00    +0.000 A 
ATOM     15  N   UNL     1      52.986   7.319  15.165  0.00  0.00    +0.000 N 
ATOM     16  C   UNL     1      51.703   7.805  14.981  0.00  0.00    +0.000 A 
ATOM     17  O   UNL     1      51.492   8.694  14.165  0.00  0.00    +0.000 OA
ATOM     18  C   UNL     1      50.704   7.172  15.830  0.00  0.00    +0.000 A 
ATOM     19  H   UNL     1      53.699   7.754  14.600  0.00  0.00    +0.000 HD
ENDBRANCH   5   9
BRANCH   1  20
ATOM     20  C   UNL     1      44.690   6.132  12.238  0.00  0.00    +0.000 C 
BRANCH  20  22
ATOM     21  C   UNL     1      43.383   4.101  12.623  0.00  0.00    +0.000 C 
ATOM     22  N   UNL     1      44.418   4.744  11.796  0.00  0.00    +0.000 NA
BRANCH  22  23
ATOM     23  C   UNL     1      43.975   4.737  10.373  0.00  0.00    +0.000 C 
BRANCH  23  24
ATOM     24  C   UNL     1      44.871   3.924   9.440  0.00  0.00    +0.000 A 
ATOM     25  C   UNL     1      44.920   2.538   9.553  0.00  0.00    +0.000 A 
ATOM     26  C   UNL     1      45.656   1.806   8.627  0.00  0.00    +0.000 A 
ATOM     27  C   UNL     1      46.331   2.473   7.616  0.00  0.00    +0.000 A 
ATOM     28  C   UNL     1      46.248   3.855   7.577  0.00  0.00    +0.000 A 
ATOM     29  N   UNL     1      45.541   4.592   8.460  0.00  0.00    +0.000 NA
ENDBRANCH  23  24
ENDBRANCH  22  23
ENDBRANCH  20  22
ENDBRANCH   1  20
TORSDOF 5
ENDMDL
MODEL 4
REMARK VINA RESULT:    -6.876      3.543      5.244
REMARK INTER + INTRA:          -9.639
REMARK INTER:                  -9.403
REMARK INTRA:                  -0.236
REMARK UNBOUND:                -0.754
REMARK  Name = 
REMARK  6 active torsions:
REMARK  status: ('A' for Active; 'I' for Inactive)
REMARK    1  A    between atoms: C_1  and  N_2
REMARK    2  A    between atoms: N_2  and  C_3
REMARK    3  A    between atoms: N_2  and  C_10
REMARK    4  A    between atoms: C_3  and  C_4
REMARK    5  A    between atoms: C_10  and  C_11
REMARK    6  A    between atoms: C_15  and  C_17
REMARK                            x       y       z     vdW  Elec       q    Type
REMARK                         _______ _______ _______ _____ _____    ______ ____
ROOT
ATOM      1  C   UNL     1      46.519   5.564  12.199  0.00  0.00    +0.000 C 
ATOM      2  C   UNL     1      46.887   4.510  13.246  0.00  0.00    +0.000 C 
ATOM      3  C   UNL     1      47.151   5.074  14.635  0.00  0.00    +0.000 C 
ATOM      4  N   UNL     1      48.021   6.243  14.685  0.00  0.00    +0.000 N 
ATOM      5  C   UNL     1      48.713   6.662  15.855  0.00  0.00    +0.000 C 
ATOM      6  O   UNL     1      49.332   7.724  15.874  0.00  0.00    +0.000 OA
ATOM      7  C   UNL     1      47.790   7.264  13.659  0.00  0.00    +0.000 C 
ATOM      8  C   UNL     1      47.554   6.696  12.258  0.00  0.00    +0.000 C 
ENDROOT
BRANCH   5   9
ATOM      9  C   UNL     1      48.655   5.826  17.075  0.00  0.00    +0.000 A 
ATOM     10  C   UNL     1      48.859   4.452  17.074  0.00  0.00    +0.000 A 
ATOM     11  S   UNL     1      48.853   3.745  18.622  0.00  0.00    +0.000 S 
ATOM     12  C   UNL     1      48.361   5.205  19.337  0.00  0.00    +0.000 A 
ATOM     13  N   UNL     1      48.113   5.260  20.671  0.00  0.00    +0.000 NA
ATOM     14  C   UNL     1      47.693   6.409  21.083  0.00  0.00    +0.000 A 
ATOM     15  N   UNL     1      47.504   7.501  20.282  0.00  0.00    +0.000 N 
ATOM     16  C   UNL     1      47.753   7.500  18.921  0.00  0.00    +0.000 A 
ATOM     17  O   UNL     1      47.554   8.511  18.257  0.00  0.00    +0.000 OA
ATOM     18  C   UNL     1      48.243   6.228  18.410  0.00  0.00    +0.000 A 
ATOM     19  H   UNL     1      47.147   8.366  20.657  0.00  0.00    +0.000 HD
ENDBRANCH   5   9
BRANCH   1  20
ATOM     20  C   UNL     1      45.033   6.017  12.296  0.00  0.00    +0.000 C 
BRANCH  20  22
ATOM     21  C   UNL     1      42.820   5.143  12.859  0.00  0.00    +0.000 C 
ATOM     22  N   UNL     1      44.029   4.958  12.039  0.00  0.00    +0.000 NA
BRANCH  22  23
ATOM     23  C   UNL     1      43.643   4.958  10.599  0.00  0.00    +0.000 C 
BRANCH  23  24
ATOM     24  C   UNL     1      44.541   4.099   9.710  0.00  0.00    +0.000 A 
ATOM     25  C   UNL     1      44.511   2.713   9.818  0.00  0.00    +0.000 A 
ATOM     26  C   UNL     1      45.252   1.944   8.928  0.00  0.00    +0.000 A 
ATOM     27  C   UNL     1      46.013   2.576   7.955  0.00  0.00    +0.000 A 
ATOM     28  C   UNL     1      46.005   3.960   7.917  0.00  0.00    +0.000 A 
ATOM     29  N   UNL     1      45.295   4.733   8.767  0.00  0.00    +0.000 NA
ENDBRANCH  23  24
ENDBRANCH  22  23
ENDBRANCH  20  22
ENDBRANCH   1  20
TORSDOF 5
ENDMDL
MODEL 5
REMARK VINA RESULT:    -6.702      2.526      3.681
REMARK INTER + INTRA:          -9.415
REMARK INTER:                  -8.541
REMARK INTRA:                  -0.874
REMARK UNBOUND:                -0.754
REMARK  Name = 
REMARK  6 active torsions:
REMARK  status: ('A' for Active; 'I' for Inactive)
REMARK    1  A    between atoms: C_1  and  N_2
REMARK    2  A    between atoms: N_2  and  C_3
REMARK    3  A    between atoms: N_2  and  C_10
REMARK    4  A    between atoms: C_3  and  C_4
REMARK    5  A    between atoms: C_10  and  C_11
REMARK    6  A    between atoms: C_15  and  C_17
REMARK                            x       y       z     vdW  Elec       q    Type
REMARK                         _______ _______ _______ _____ _____    ______ ____
ROOT
ATOM      1  C   UNL     1      46.025   6.830  11.979  0.00  0.00    +0.000 C 
ATOM      2  C   UNL     1      47.528   6.598  11.801  0.00  0.00    +0.000 C 
ATOM      3  C   UNL     1      48.372   7.021  12.995  0.00  0.00    +0.000 C 
ATOM      4  N   UNL     1      48.068   8.337  13.545  0.00  0.00    +0.000 N 
ATOM      5  C   UNL     1      48.970   9.080  14.356  0.00  0.00    +0.000 C 
ATOM      6  O   UNL     1      48.616  10.125  14.897  0.00  0.00    +0.000 OA
ATOM      7  C   UNL     1      46.647   8.672  13.668  0.00  0.00    +0.000 C 
ATOM      8  C   UNL     1      45.805   8.273  12.455  0.00  0.00    +0.000 C 
ENDROOT
BRANCH   5   9
ATOM      9  C   UNL     1      50.340   8.567  14.582  0.00  0.00    +0.000 A 
ATOM     10  C   UNL     1      51.438   8.954  13.823  0.00  0.00    +0.000 A 
ATOM     11  S   UNL     1      52.919   8.307  14.359  0.00  0.00    +0.000 S 
ATOM     12  C   UNL     1      52.128   7.315  15.489  0.00  0.00    +0.000 A 
ATOM     13  N   UNL     1      52.844   6.447  16.251  0.00  0.00    +0.000 NA
ATOM     14  C   UNL     1      52.124   5.711  17.029  0.00  0.00    +0.000 A 
ATOM     15  N   UNL     1      50.760   5.769  17.112  0.00  0.00    +0.000 N 
ATOM     16  C   UNL     1      49.987   6.642  16.368  0.00  0.00    +0.000 A 
ATOM     17  O   UNL     1      48.766   6.637  16.484  0.00  0.00    +0.000 OA
ATOM     18  C   UNL     1      50.755   7.506  15.483  0.00  0.00    +0.000 A 
ATOM     19  H   UNL     1      50.248   5.148  17.721  0.00  0.00    +0.000 HD
ENDBRANCH   5   9
BRANCH   1  20
ATOM     20  C   UNL     1      45.345   5.733  12.848  0.00  0.00    +0.000 C 
BRANCH  20  22
ATOM     21  C   UNL     1      43.001   5.046  12.742  0.00  0.00    +0.000 C 
ATOM     22  N   UNL     1      44.339   4.901  12.147  0.00  0.00    +0.000 NA
BRANCH  22  23
ATOM     23  C   UNL     1      44.274   5.282  10.707  0.00  0.00    +0.000 C 
BRANCH  23  24
ATOM     24  C   UNL     1      44.928   4.276   9.761  0.00  0.00    +0.000 A 
ATOM     25  C   UNL     1      44.722   2.912   9.941  0.00  0.00    +0.000 A 
ATOM     26  C   UNL     1      45.235   2.017   9.008  0.00  0.00    +0.000 A 
ATOM     27  C   UNL     1      45.949   2.503   7.923  0.00  0.00    +0.000 A 
ATOM     28  C   UNL     1      46.126   3.873   7.817  0.00  0.00    +0.000 A 
ATOM     29  N   UNL     1      45.639   4.765   8.706  0.00  0.00    +0.000 NA
ENDBRANCH  23  24
ENDBRANCH  22  23
ENDBRANCH  20  22
ENDBRANCH   1  20
TORSDOF 5
ENDMDL
MODEL 6
REMARK VINA RESULT:    -6.620      3.500      8.344
REMARK INTER + INTRA:          -9.309
REMARK INTER:                  -8.357
REMARK INTRA:                  -0.952
REMARK UNBOUND:                -0.754
REMARK  Name = 
REMARK  6 active torsions:
REMARK  status: ('A' for Active; 'I' for Inactive)
REMARK    1  A    between atoms: C_1  and  N_2
REMARK    2  A    between atoms: N_2  and  C_3
REMARK    3  A    between atoms: N_2  and  C_10
REMARK    4  A    between atoms: C_3  and  C_4
REMARK    5  A    between atoms: C_10  and  C_11
REMARK    6  A    between atoms: C_15  and  C_17
REMARK                            x       y       z     vdW  Elec       q    Type
REMARK                         _______ _______ _______ _____ _____    ______ ____
ROOT
ATOM      1  C   UNL     1      48.389   7.722  13.875  0.00  0.00    +0.000 C 
ATOM      2  C   UNL     1      47.811   6.310  14.020  0.00  0.00    +0.000 C 
ATOM      3  C   UNL     1      46.891   5.892  12.883  0.00  0.00    +0.000 C 
ATOM      4  N   UNL     1      45.885   6.873  12.493  0.00  0.00    +0.000 N 
ATOM      5  C   UNL     1      44.702   6.546  11.773  0.00  0.00    +0.000 C 
ATOM      6  O   UNL     1      43.952   7.429  11.362  0.00  0.00    +0.000 OA
ATOM      7  C   UNL     1      46.338   8.265  12.415  0.00  0.00    +0.000 C 
ATOM      8  C   UNL     1      47.239   8.693  13.575  0.00  0.00    +0.000 C 
ENDROOT
BRANCH   5   9
ATOM      9  C   UNL     1      44.392   5.128  11.484  0.00  0.00    +0.000 A 
ATOM     10  C   UNL     1      43.774   4.278  12.393  0.00  0.00    +0.000 A 
ATOM     11  S   UNL     1      43.425   2.731  11.774  0.00  0.00    +0.000 S 
ATOM     12  C   UNL     1      44.280   3.061  10.344  0.00  0.00    +0.000 A 
ATOM     13  N   UNL     1      44.415   2.098   9.395  0.00  0.00    +0.000 NA
ATOM     14  C   UNL     1      45.132   2.453   8.382  0.00  0.00    +0.000 A 
ATOM     15  N   UNL     1      45.719   3.680   8.236  0.00  0.00    +0.000 N 
ATOM     16  C   UNL     1      45.602   4.698   9.167  0.00  0.00    +0.000 A 
ATOM     17  O   UNL     1      46.161   5.772   8.980  0.00  0.00    +0.000 OA
ATOM     18  C   UNL     1      44.790   4.350  10.324  0.00  0.00    +0.000 A 
ATOM     19  H   UNL     1      46.292   3.892   7.433  0.00  0.00    +0.000 HD
ENDBRANCH   5   9
BRANCH   1  20
ATOM     20  C   UNL     1      49.586   7.783  12.885  0.00  0.00    +0.000 C 
BRANCH  20  22
ATOM     21  C   UNL     1      51.677   9.051  12.873  0.00  0.00    +0.000 C 
ATOM     22  N   UNL     1      50.918   7.962  13.509  0.00  0.00    +0.000 NA
BRANCH  22  23
ATOM     23  C   UNL     1      50.766   8.261  14.962  0.00  0.00    +0.000 C 
BRANCH  23  24
ATOM     24  C   UNL     1      51.358   7.198  15.886  0.00  0.00    +0.000 A 
ATOM     25  C   UNL     1      50.518   6.365  16.619  0.00  0.00    +0.000 A 
ATOM     26  C   UNL     1      51.070   5.333  17.371  0.00  0.00    +0.000 A 
ATOM     27  C   UNL     1      52.446   5.162  17.381  0.00  0.00    +0.000 A 
ATOM     28  C   UNL     1      53.220   6.039  16.638  0.00  0.00    +0.000 A 
ATOM     29  N   UNL     1      52.712   7.048  15.898  0.00  0.00    +0.000 NA
ENDBRANCH  23  24
ENDBRANCH  22  23
ENDBRANCH  20  22
ENDBRANCH   1  20
TORSDOF 5
ENDMDL
MODEL 7
REMARK VINA RESULT:    -6.415      3.248      7.717
REMARK INTER + INTRA:          -9.044
REMARK INTER:                  -8.202
REMARK INTRA:                  -0.842
REMARK UNBOUND:                -0.754
REMARK  Name = 
REMARK  6 active torsions:
REMARK  status: ('A' for Active; 'I' for Inactive)
REMARK    1  A    between atoms: C_1  and  N_2
REMARK    2  A    between atoms: N_2  and  C_3
REMARK    3  A    between atoms: N_2  and  C_10
REMARK    4  A    between atoms: C_3  and  C_4
REMARK    5  A    between atoms: C_10  and  C_11
REMARK    6  A    between atoms: C_15  and  C_17
REMARK                            x       y       z     vdW  Elec       q    Type
REMARK                         _______ _______ _______ _____ _____    ______ ____
ROOT
ATOM      1  C   UNL     1      48.181   8.076  13.077  0.00  0.00    +0.000 C 
ATOM      2  C   UNL     1      47.782   6.618  13.323  0.00  0.00    +0.000 C 
ATOM      3  C   UNL     1      46.763   6.073  12.333  0.00  0.00    +0.000 C 
ATOM      4  N   UNL     1      45.614   6.934  12.074  0.00  0.00    +0.000 N 
ATOM      5  C   UNL     1      44.384   6.466  11.533  0.00  0.00    +0.000 C 
ATOM      6  O   UNL     1      43.495   7.254  11.218  0.00  0.00    +0.000 OA
ATOM      7  C   UNL     1      45.901   8.362  11.912  0.00  0.00    +0.000 C 
ATOM      8  C   UNL     1      46.904   8.915  12.927  0.00  0.00    +0.000 C 
ENDROOT
BRANCH   5   9
ATOM      9  C   UNL     1      44.189   5.016  11.312  0.00  0.00    +0.000 A 
ATOM     10  C   UNL     1      43.598   4.171  12.243  0.00  0.00    +0.000 A 
ATOM     11  S   UNL     1      43.388   2.572  11.699  0.00  0.00    +0.000 S 
ATOM     12  C   UNL     1      44.272   2.889  10.284  0.00  0.00    +0.000 A 
ATOM     13  N   UNL     1      44.514   1.891   9.395  0.00  0.00    +0.000 NA
ATOM     14  C   UNL     1      45.243   2.244   8.390  0.00  0.00    +0.000 A 
ATOM     15  N   UNL     1      45.744   3.502   8.198  0.00  0.00    +0.000 N 
ATOM     16  C   UNL     1      45.517   4.555   9.066  0.00  0.00    +0.000 A 
ATOM     17  O   UNL     1      46.005   5.657   8.840  0.00  0.00    +0.000 OA
ATOM     18  C   UNL     1      44.687   4.209  10.211  0.00  0.00    +0.000 A 
ATOM     19  H   UNL     1      46.332   3.713   7.405  0.00  0.00    +0.000 HD
ENDBRANCH   5   9
BRANCH   1  20
ATOM     20  C   UNL     1      49.217   8.231  11.927  0.00  0.00    +0.000 C 
BRANCH  20  22
ATOM     21  C   UNL     1      50.391   9.506  13.652  0.00  0.00    +0.000 C 
ATOM     22  N   UNL     1      50.416   9.037  12.256  0.00  0.00    +0.000 NA
BRANCH  22  23
ATOM     23  C   UNL     1      51.650   8.230  12.037  0.00  0.00    +0.000 C 
BRANCH  23  24
ATOM     24  C   UNL     1      52.201   8.299  10.614  0.00  0.00    +0.000 A 
ATOM     25  C   UNL     1      52.363   7.134   9.871  0.00  0.00    +0.000 A 
ATOM     26  C   UNL     1      52.762   7.224   8.541  0.00  0.00    +0.000 A 
ATOM     27  C   UNL     1      52.997   8.474   7.987  0.00  0.00    +0.000 A 
ATOM     28  C   UNL     1      52.829   9.588   8.792  0.00  0.00    +0.000 A 
ATOM     29  N   UNL     1      52.441   9.531  10.084  0.00  0.00    +0.000 NA
ENDBRANCH  23  24
ENDBRANCH  22  23
ENDBRANCH  20  22
ENDBRANCH   1  20
TORSDOF 5
ENDMDL
MODEL 8
REMARK VINA RESULT:    -6.326      3.419      4.775
REMARK INTER + INTRA:          -8.929
REMARK INTER:                  -8.104
REMARK INTRA:                  -0.826
REMARK UNBOUND:                -0.754
REMARK  Name = 
REMARK  6 active torsions:
REMARK  status: ('A' for Active; 'I' for Inactive)
REMARK    1  A    between atoms: C_1  and  N_2
REMARK    2  A    between atoms: N_2  and  C_3
REMARK    3  A    between atoms: N_2  and  C_10
REMARK    4  A    between atoms: C_3  and  C_4
REMARK    5  A    between atoms: C_10  and  C_11
REMARK    6  A    between atoms: C_15  and  C_17
REMARK                            x       y       z     vdW  Elec       q    Type
REMARK                         _______ _______ _______ _____ _____    ______ ____
ROOT
ATOM      1  C   UNL     1      46.787   4.934  13.379  0.00  0.00    +0.000 C 
ATOM      2  C   UNL     1      47.156   4.478  14.794  0.00  0.00    +0.000 C 
ATOM      3  C   UNL     1      47.521   5.612  15.741  0.00  0.00    +0.000 C 
ATOM      4  N   UNL     1      48.451   6.601  15.209  0.00  0.00    +0.000 N 
ATOM      5  C   UNL     1      49.225   7.474  16.023  0.00  0.00    +0.000 C 
ATOM      6  O   UNL     1      49.898   8.373  15.521  0.00  0.00    +0.000 OA
ATOM      7  C   UNL     1      48.219   7.028  13.826  0.00  0.00    +0.000 C 
ATOM      8  C   UNL     1      47.881   5.883  12.870  0.00  0.00    +0.000 C 
ENDROOT
BRANCH   5   9
ATOM      9  C   UNL     1      49.189   7.323  17.495  0.00  0.00    +0.000 A 
ATOM     10  C   UNL     1      48.500   8.186  18.338  0.00  0.00    +0.000 A 
ATOM     11  S   UNL     1      48.522   7.725  19.977  0.00  0.00    +0.000 S 
ATOM     12  C   UNL     1      49.631   6.479  19.658  0.00  0.00    +0.000 A 
ATOM     13  N   UNL     1      50.114   5.721  20.677  0.00  0.00    +0.000 NA
ATOM     14  C   UNL     1      50.990   4.845  20.314  0.00  0.00    +0.000 A 
ATOM     15  N   UNL     1      51.419   4.661  19.029  0.00  0.00    +0.000 N 
ATOM     16  C   UNL     1      50.950   5.398  17.955  0.00  0.00    +0.000 A 
ATOM     17  O   UNL     1      51.384   5.189  16.828  0.00  0.00    +0.000 OA
ATOM     18  C   UNL     1      49.948   6.391  18.312  0.00  0.00    +0.000 A 
ATOM     19  H   UNL     1      52.127   3.978  18.809  0.00  0.00    +0.000 HD
ENDBRANCH   5   9
BRANCH   1  20
ATOM     20  C   UNL     1      45.334   5.481  13.283  0.00  0.00    +0.000 C 
BRANCH  20  22
ATOM     21  C   UNL     1      43.044   4.693  12.942  0.00  0.00    +0.000 C 
ATOM     22  N   UNL     1      44.419   4.704  12.415  0.00  0.00    +0.000 NA
BRANCH  22  23
ATOM     23  C   UNL     1      44.406   5.280  11.040  0.00  0.00    +0.000 C 
BRANCH  23  24
ATOM     24  C   UNL     1      44.806   4.294   9.943  0.00  0.00    +0.000 A 
ATOM     25  C   UNL     1      45.576   4.723   8.866  0.00  0.00    +0.000 A 
ATOM     26  C   UNL     1      46.021   3.791   7.935  0.00  0.00    +0.000 A 
ATOM     27  C   UNL     1      45.682   2.456   8.094  0.00  0.00    +0.000 A 
ATOM     28  C   UNL     1      44.900   2.106   9.183  0.00  0.00    +0.000 A 
ATOM     29  N   UNL     1      44.454   2.988  10.104  0.00  0.00    +0.000 NA
ENDBRANCH  23  24
ENDBRANCH  22  23
ENDBRANCH  20  22
ENDBRANCH   1  20
TORSDOF 5
ENDMDL
MODEL 9
REMARK VINA RESULT:    -6.263      3.977      7.873
REMARK INTER + INTRA:          -8.847
REMARK INTER:                  -7.917
REMARK INTRA:                  -0.930
REMARK UNBOUND:                -0.754
REMARK  Name = 
REMARK  6 active torsions:
REMARK  status: ('A' for Active; 'I' for Inactive)
REMARK    1  A    between atoms: C_1  and  N_2
REMARK    2  A    between atoms: N_2  and  C_3
REMARK    3  A    between atoms: N_2  and  C_10
REMARK    4  A    between atoms: C_3  and  C_4
REMARK    5  A    between atoms: C_10  and  C_11
REMARK    6  A    between atoms: C_15  and  C_17
REMARK                            x       y       z     vdW  Elec       q    Type
REMARK                         _______ _______ _______ _____ _____    ______ ____
ROOT
ATOM      1  C   UNL     1      49.476   9.026  16.898  0.00  0.00    +0.000 C 
ATOM      2  C   UNL     1      48.374   9.564  15.980  0.00  0.00    +0.000 C 
ATOM      3  C   UNL     1      47.659   8.494  15.168  0.00  0.00    +0.000 C 
ATOM      4  N   UNL     1      48.524   7.528  14.500  0.00  0.00    +0.000 N 
ATOM      5  C   UNL     1      48.112   6.733  13.395  0.00  0.00    +0.000 C 
ATOM      6  O   UNL     1      48.839   5.846  12.952  0.00  0.00    +0.000 OA
ATOM      7  C   UNL     1      49.657   7.027  15.283  0.00  0.00    +0.000 C 
ATOM      8  C   UNL     1      50.393   8.109  16.076  0.00  0.00    +0.000 C 
ENDROOT
BRANCH   5   9
ATOM      9  C   UNL     1      46.775   6.950  12.797  0.00  0.00    +0.000 A 
ATOM     10  C   UNL     1      46.382   8.150  12.215  0.00  0.00    +0.000 A 
ATOM     11  S   UNL     1      44.838   8.103  11.499  0.00  0.00    +0.000 S 
ATOM     12  C   UNL     1      44.545   6.552  12.125  0.00  0.00    +0.000 A 
ATOM     13  N   UNL     1      43.344   5.951  11.918  0.00  0.00    +0.000 NA
ATOM     14  C   UNL     1      43.224   4.800  12.491  0.00  0.00    +0.000 A 
ATOM     15  N   UNL     1      44.196   4.202  13.244  0.00  0.00    +0.000 N 
ATOM     16  C   UNL     1      45.438   4.766  13.475  0.00  0.00    +0.000 A 
ATOM     17  O   UNL     1      46.262   4.181  14.169  0.00  0.00    +0.000 OA
ATOM     18  C   UNL     1      45.627   6.061  12.838  0.00  0.00    +0.000 A 
ATOM     19  H   UNL     1      44.035   3.312  13.690  0.00  0.00    +0.000 HD
ENDBRANCH   5   9
BRANCH   1  20
ATOM     20  C   UNL     1      48.917   8.404  18.209  0.00  0.00    +0.000 C 
BRANCH  20  22
ATOM     21  C   UNL     1      50.589   7.677  19.839  0.00  0.00    +0.000 C 
ATOM     22  N   UNL     1      49.689   7.261  18.749  0.00  0.00    +0.000 NA
BRANCH  22  23
ATOM     23  C   UNL     1      48.761   6.212  19.261  0.00  0.00    +0.000 C 
BRANCH  23  24
ATOM     24  C   UNL     1      48.670   4.970  18.376  0.00  0.00    +0.000 A 
ATOM     25  C   UNL     1      49.818   4.247  18.067  0.00  0.00    +0.000 A 
ATOM     26  C   UNL     1      49.703   3.060  17.352  0.00  0.00    +0.000 A 
ATOM     27  C   UNL     1      48.447   2.625  16.956  0.00  0.00    +0.000 A 
ATOM     28  C   UNL     1      47.351   3.404  17.287  0.00  0.00    +0.000 A 
ATOM     29  N   UNL     1      47.432   4.560  17.981  0.00  0.00    +0.000 NA
ENDBRANCH  23  24
ENDBRANCH  22  23
ENDBRANCH  20  22
ENDBRANCH   1  20
TORSDOF 5
ENDMDL
