MODEL 1
REMARK VINA RESULT:    -6.304      0.000      0.000
REMARK INTER + INTRA:          -7.985
REMARK INTER:                  -7.778
REMARK INTRA:                  -0.207
REMARK UNBOUND:                -0.207
REMARK  Name = 
REMARK  7 active torsions:
REMARK  status: ('A' for Active; 'I' for Inactive)
REMARK    1  A    between atoms: C_1  and  C_2
REMARK    2  A    between atoms: C_2  and  C_3
REMARK    3  A    between atoms: C_2  and  C_4
REMARK    4  A    between atoms: C_2  and  C_5
REMARK    5  A    between atoms: N_7  and  C_8
REMARK    6  A    between atoms: C_8  and  C_9
REMARK    7  A    between atoms: C_18  and  C_19
REMARK                            x       y       z     vdW  Elec       q    Type
REMARK                         _______ _______ _______ _____ _____    ______ ____
ROOT
ATOM      1  C   UNL     1      46.271   7.188  12.158  0.00  0.00    +0.000 A 
ATOM      2  C   UNL     1      45.464   6.775  11.108  0.00  0.00    +0.000 A 
ATOM      3  N   UNL     1      45.203   5.432  11.241  0.00  0.00    +0.000 N 
ATOM      4  C   UNL     1      45.861   4.934  12.344  0.00  0.00    +0.000 A 
ATOM      5  C   UNL     1      45.957   3.653  12.899  0.00  0.00    +0.000 A 
ATOM      6  C   UNL     1      46.690   3.543  14.080  0.00  0.00    +0.000 A 
ATOM      7  C   UNL     1      47.283   4.680  14.626  0.00  0.00    +0.000 A 
ATOM      8  N   UNL     1      47.222   5.912  14.091  0.00  0.00    +0.000 NA
ATOM      9  C   UNL     1      46.510   6.016  12.943  0.00  0.00    +0.000 A 
ENDROOT
BRANCH   1  11
ATOM     10  C   UNL     1      46.932   8.852  13.957  0.00  0.00    +0.000 C 
ATOM     11  C   UNL     1      46.782   8.596  12.441  0.00  0.00    +0.000 C 
ATOM     12  C   UNL     1      45.805   9.651  11.885  0.00  0.00    +0.000 C 
ATOM     13  C   UNL     1      48.166   8.803  11.792  0.00  0.00    +0.000 C 
ENDBRANCH   1  11
BRANCH   7  14
ATOM     14  C   UNL     1      48.006   4.588  15.867  0.00  0.00    +0.000 C 
ATOM     15  N   UNL     1      48.624   4.507  16.847  0.00  0.00    +0.000 NA
ENDBRANCH   7  14
BRANCH   3  16
ATOM     16  C   UNL     1      44.268   4.709  10.381  0.00  0.00    +0.000 C 
BRANCH  16  17
ATOM     17  C   UNL     1      44.980   3.889   9.358  0.00  0.00    +0.000 A 
ATOM     18  C   UNL     1      45.073   2.515   9.444  0.00  0.00    +0.000 A 
ATOM     19  N   UNL     1      45.757   1.751   8.572  0.00  0.00    +0.000 NA
ATOM     20  C   UNL     1      46.368   2.409   7.576  0.00  0.00    +0.000 A 
ATOM     21  N   UNL     1      46.324   3.733   7.367  0.00  0.00    +0.000 NA
ATOM     22  C   UNL     1      45.627   4.445   8.271  0.00  0.00    +0.000 A 
ENDBRANCH  16  17
ENDBRANCH   3  16
TORSDOF 4
ENDMDL
MODEL 2
REMARK VINA RESULT:    -6.091      1.274      1.801
REMARK INTER + INTRA:          -7.722
REMARK INTER:                  -7.363
REMARK INTRA:                  -0.359
REMARK UNBOUND:                -0.207
REMARK  Name = 
REMARK  7 active torsions:
REMARK  status: ('A' for Active; 'I' for Inactive)
REMARK    1  A    between atoms: C_1  and  C_2
REMARK    2  A    between atoms: C_2  and  C_3
REMARK    3  A    between atoms: C_2  and  C_4
REMARK    4  A    between atoms: C_2  and  C_5
REMARK    5  A    between atoms: N_7  and  C_8
REMARK    6  A    between atoms: C_8  and  C_9
REMARK    7  A    between atoms: C_18  and  C_19
REMARK                            x       y       z     vdW  Elec       q    Type
REMARK                         _______ _______ _______ _____ _____    ______ ____
ROOT
ATOM      1  C   UNL     1      47.738   7.405  12.668  0.00  0.00    +0.000 A 
ATOM      2  C   UNL     1      46.746   7.204  11.720  0.00  0.00    +0.000 A 
ATOM      3  N   UNL     1      45.994   6.111  12.078  0.00  0.00    +0.000 N 
ATOM      4  C   UNL     1      46.499   5.553  13.232  0.00  0.00    +0.000 A 
ATOM      5  C   UNL     1      46.136   4.433  13.988  0.00  0.00    +0.000 A 
ATOM      6  C   UNL     1      46.868   4.208  15.154  0.00  0.00    +0.000 A 
ATOM      7  C   UNL     1      47.903   5.078  15.490  0.00  0.00    +0.000 A 
ATOM      8  N   UNL     1      48.281   6.143  14.760  0.00  0.00    +0.000 NA
ATOM      9  C   UNL     1      47.569   6.359  13.629  0.00  0.00    +0.000 A 
ENDROOT
BRANCH   1  11
ATOM     10  C   UNL     1      48.870   9.169  14.099  0.00  0.00    +0.000 C 
ATOM     11  C   UNL     1      48.782   8.516  12.702  0.00  0.00    +0.000 C 
ATOM     12  C   UNL     1      48.427   9.626  11.692  0.00  0.00    +0.000 C 
ATOM     13  C   UNL     1      50.175   7.951  12.359  0.00  0.00    +0.000 C 
ENDBRANCH   1  11
BRANCH   7  14
ATOM     14  C   UNL     1      48.639   4.882  16.711  0.00  0.00    +0.000 C 
ATOM     15  N   UNL     1      49.216   4.686  17.700  0.00  0.00    +0.000 NA
ENDBRANCH   7  14
BRANCH   3  16
ATOM     16  C   UNL     1      44.779   5.708  11.373  0.00  0.00    +0.000 C 
BRANCH  16  17
ATOM     17  C   UNL     1      45.070   4.721  10.292  0.00  0.00    +0.000 A 
ATOM     18  C   UNL     1      45.616   5.090   9.080  0.00  0.00    +0.000 A 
ATOM     19  N   UNL     1      45.837   4.235   8.063  0.00  0.00    +0.000 NA
ATOM     20  C   UNL     1      45.488   2.960   8.288  0.00  0.00    +0.000 A 
ATOM     21  N   UNL     1      44.981   2.475   9.430  0.00  0.00    +0.000 NA
ATOM     22  C   UNL     1      44.782   3.375  10.411  0.00  0.00    +0.000 A 
ENDBRANCH  16  17
ENDBRANCH   3  16
TORSDOF 4
ENDMDL
MODEL 3
REMARK VINA RESULT:    -5.766      2.342      3.567
REMARK INTER + INTRA:          -7.321
REMARK INTER:                  -6.894
REMARK INTRA:                  -0.427
REMARK UNBOUND:                -0.207
REMARK  Name = 
REMARK  7 active torsions:
REMARK  status: ('A' for Active; 'I' for Inactive)
REMARK    1  A    between atoms: C_1  and  C_2
REMARK    2  A    between atoms: C_2  and  C_3
REMARK    3  A    between atoms: C_2  and  C_4
REMARK    4  A    between atoms: C_2  and  C_5
REMARK    5  A    between atoms: N_7  and  C_8
REMARK    6  A    between atoms: C_8  and  C_9
REMARK    7  A    between atoms: C_18  and  C_19
REMARK                            x       y       z     vdW  Elec       q    Type
REMARK                         _______ _______ _______ _____ _____    ______ ____
ROOT
ATOM      1  C   UNL     1      47.993   6.434  13.783  0.00  0.00    +0.000 A 
ATOM      2  C   UNL     1      47.312   5.613  12.897  0.00  0.00    +0.000 A 
ATOM      3  N   UNL     1      46.883   4.489  13.562  0.00  0.00    +0.000 N 
ATOM      4  C   UNL     1      47.308   4.530  14.872  0.00  0.00    +0.000 A 
ATOM      5  C   UNL     1      47.173   3.642  15.945  0.00  0.00    +0.000 A 
ATOM      6  C   UNL     1      47.703   4.061  17.165  0.00  0.00    +0.000 A 
ATOM      7  C   UNL     1      48.333   5.301  17.248  0.00  0.00    +0.000 A 
ATOM      8  N   UNL     1      48.493   6.153  16.220  0.00  0.00    +0.000 NA
ATOM      9  C   UNL     1      47.977   5.744  15.036  0.00  0.00    +0.000 A 
ENDROOT
BRANCH   1  11
ATOM     10  C   UNL     1      50.092   7.853  13.943  0.00  0.00    +0.000 C 
ATOM     11  C   UNL     1      48.613   7.798  13.499  0.00  0.00    +0.000 C 
ATOM     12  C   UNL     1      47.858   8.907  14.260  0.00  0.00    +0.000 C 
ATOM     13  C   UNL     1      48.564   8.104  11.988  0.00  0.00    +0.000 C 
ENDBRANCH   1  11
BRANCH   7  14
ATOM     14  C   UNL     1      48.847   5.764  18.510  0.00  0.00    +0.000 C 
ATOM     15  N   UNL     1      49.272   6.172  19.510  0.00  0.00    +0.000 NA
ENDBRANCH   7  14
BRANCH   3  16
ATOM     16  C   UNL     1      46.011   3.483  12.956  0.00  0.00    +0.000 C 
BRANCH  16  17
ATOM     17  C   UNL     1      44.747   4.087  12.442  0.00  0.00    +0.000 A 
ATOM     18  C   UNL     1      44.492   4.234  11.094  0.00  0.00    +0.000 A 
ATOM     19  N   UNL     1      43.389   4.827  10.598  0.00  0.00    +0.000 NA
ATOM     20  C   UNL     1      42.517   5.287  11.506  0.00  0.00    +0.000 A 
ATOM     21  N   UNL     1      42.637   5.176  12.837  0.00  0.00    +0.000 NA
ATOM     22  C   UNL     1      43.758   4.575  13.276  0.00  0.00    +0.000 A 
ENDBRANCH  16  17
ENDBRANCH   3  16
TORSDOF 4
ENDMDL
MODEL 4
REMARK VINA RESULT:    -5.650      2.536      4.978
REMARK INTER + INTRA:          -7.179
REMARK INTER:                  -6.777
REMARK INTRA:                  -0.402
REMARK UNBOUND:                -0.207
REMARK  Name = 
REMARK  7 active torsions:
REMARK  status: ('A' for Active; 'I' for Inactive)
REMARK    1  A    between atoms: C_1  and  C_2
REMARK    2  A    between atoms: C_2  and  C_3
REMARK    3  A    between atoms: C_2  and  C_4
REMARK    4  A    between atoms: C_2  and  C_5
REMARK    5  A    between atoms: N_7  and  C_8
REMARK    6  A    between atoms: C_8  and  C_9
REMARK    7  A    between atoms: C_18  and  C_19
REMARK                            x       y       z     vdW  Elec       q    Type
REMARK                         _______ _______ _______ _____ _____    ______ ____
ROOT
ATOM      1  C   UNL     1      47.634   4.483  15.830  0.00  0.00    +0.000 A 
ATOM      2  C   UNL     1      46.818   3.680  15.047  0.00  0.00    +0.000 A 
ATOM      3  N   UNL     1      46.729   4.218  13.786  0.00  0.00    +0.000 N 
ATOM      4  C   UNL     1      47.442   5.396  13.729  0.00  0.00    +0.000 A 
ATOM      5  C   UNL     1      47.649   6.336  12.713  0.00  0.00    +0.000 A 
ATOM      6  C   UNL     1      48.495   7.401  13.018  0.00  0.00    +0.000 A 
ATOM      7  C   UNL     1      49.066   7.479  14.288  0.00  0.00    +0.000 A 
ATOM      8  N   UNL     1      48.856   6.598  15.281  0.00  0.00    +0.000 NA
ATOM      9  C   UNL     1      48.034   5.565  14.982  0.00  0.00    +0.000 A 
ENDROOT
BRANCH   1  11
ATOM     10  C   UNL     1      47.490   2.927  17.830  0.00  0.00    +0.000 C 
ATOM     11  C   UNL     1      48.045   4.260  17.281  0.00  0.00    +0.000 C 
ATOM     12  C   UNL     1      47.507   5.393  18.178  0.00  0.00    +0.000 C 
ATOM     13  C   UNL     1      49.582   4.213  17.400  0.00  0.00    +0.000 C 
ENDBRANCH   1  11
BRANCH   7  14
ATOM     14  C   UNL     1      49.975   8.550  14.602  0.00  0.00    +0.000 C 
ATOM     15  N   UNL     1      50.676   9.437  14.870  0.00  0.00    +0.000 NA
ENDBRANCH   7  14
BRANCH   3  16
ATOM     16  C   UNL     1      46.062   3.545  12.673  0.00  0.00    +0.000 C 
BRANCH  16  17
ATOM     17  C   UNL     1      44.769   4.204  12.324  0.00  0.00    +0.000 A 
ATOM     18  C   UNL     1      44.469   4.614  11.041  0.00  0.00    +0.000 A 
ATOM     19  N   UNL     1      43.339   5.263  10.704  0.00  0.00    +0.000 NA
ATOM     20  C   UNL     1      42.485   5.505  11.709  0.00  0.00    +0.000 A 
ATOM     21  N   UNL     1      42.648   5.130  12.986  0.00  0.00    +0.000 NA
ATOM     22  C   UNL     1      43.796   4.484  13.264  0.00  0.00    +0.000 A 
ENDBRANCH  16  17
ENDBRANCH   3  16
TORSDOF 4
ENDMDL
MODEL 5
REMARK VINA RESULT:    -5.564      2.602      5.625
REMARK INTER + INTRA:          -7.072
REMARK INTER:                  -6.675
REMARK INTRA:                  -0.397
REMARK UNBOUND:                -0.207
REMARK  Name = 
REMARK  7 active torsions:
REMARK  status: ('A' for Active; 'I' for Inactive)
REMARK    1  A    between atoms: C_1  and  C_2
REMARK    2  A    between atoms: C_2  and  C_3
REMARK    3  A    between atoms: C_2  and  C_4
REMARK    4  A    between atoms: C_2  and  C_5
REMARK    5  A    between atoms: N_7  and  C_8
REMARK    6  A    between atoms: C_8  and  C_9
REMARK    7  A    between atoms: C_18  and  C_19
REMARK                            x       y       z     vdW  Elec       q    Type
REMARK                         _______ _______ _______ _____ _____    ______ ____
ROOT
ATOM      1  C   UNL     1      45.602   5.349  12.192  0.00  0.00    +0.000 A 
ATOM      2  C   UNL     1      46.229   6.289  11.389  0.00  0.00    +0.000 A 
ATOM      3  N   UNL     1      47.360   6.743  12.023  0.00  0.00    +0.000 N 
ATOM      4  C   UNL     1      47.474   6.148  13.260  0.00  0.00    +0.000 A 
ATOM      5  C   UNL     1      48.402   6.278  14.299  0.00  0.00    +0.000 A 
ATOM      6  C   UNL     1      48.214   5.451  15.406  0.00  0.00    +0.000 A 
ATOM      7  C   UNL     1      47.134   4.570  15.425  0.00  0.00    +0.000 A 
ATOM      8  N   UNL     1      46.219   4.453  14.447  0.00  0.00    +0.000 NA
ATOM      9  C   UNL     1      46.404   5.257  13.373  0.00  0.00    +0.000 A 
ENDROOT
BRANCH   1  11
ATOM     10  C   UNL     1      43.803   4.866  10.468  0.00  0.00    +0.000 C 
ATOM     11  C   UNL     1      44.338   4.555  11.883  0.00  0.00    +0.000 C 
ATOM     12  C   UNL     1      43.221   4.899  12.889  0.00  0.00    +0.000 C 
ATOM     13  C   UNL     1      44.627   3.041  11.952  0.00  0.00    +0.000 C 
ENDBRANCH   1  11
BRANCH   7  14
ATOM     14  C   UNL     1      46.952   3.681  16.542  0.00  0.00    +0.000 C 
ATOM     15  N   UNL     1      46.810   2.996  17.469  0.00  0.00    +0.000 NA
ENDBRANCH   7  14
BRANCH   3  16
ATOM     16  C   UNL     1      48.329   7.637  11.391  0.00  0.00    +0.000 C 
BRANCH  16  17
ATOM     17  C   UNL     1      48.294   9.003  11.992  0.00  0.00    +0.000 A 
ATOM     18  C   UNL     1      47.280   9.901  11.728  0.00  0.00    +0.000 A 
ATOM     19  N   UNL     1      47.248  11.160  12.206  0.00  0.00    +0.000 NA
ATOM     20  C   UNL     1      48.284  11.516  12.978  0.00  0.00    +0.000 A 
ATOM     21  N   UNL     1      49.308  10.726  13.331  0.00  0.00    +0.000 NA
ATOM     22  C   UNL     1      49.288   9.480  12.824  0.00  0.00    +0.000 A 
ENDBRANCH  16  17
ENDBRANCH   3  16
TORSDOF 4
ENDMDL
MODEL 6
REMARK VINA RESULT:    -5.474      2.136      6.159
REMARK INTER + INTRA:          -6.962
REMARK INTER:                  -6.516
REMARK INTRA:                  -0.446
REMARK UNBOUND:                -0.207
REMARK  Name = 
REMARK  7 active torsions:
REMARK  status: ('A' for Active; 'I' for Inactive)
REMARK    1  A    between atoms: C_1  and  C_2
REMARK    2  A    between atoms: C_2  and  C_3
REMARK    3  A    between atoms: C_2  and  C_4
REMARK    4  A    between atoms: C_2  and  C_5
REMARK    5  A    between atoms: N_7  and  C_8
REMARK    6  A    between atoms: C_8  and  C_9
REMARK    7  A    between atoms: C_18  and  C_19
REMARK                            x       y       z     vdW  Elec       q    Type
REMARK                         _______ _______ _______ _____ _____    ______ ____
ROOT
ATOM      1  C   UNL     1      48.553   7.055  13.937  0.00  0.00    +0.000 A 
ATOM      2  C   UNL     1      48.629   6.628  15.254  0.00  0.00    +0.000 A 
ATOM      3  N   UNL     1      47.717   5.620  15.457  0.00  0.00    +0.000 N 
ATOM      4  C   UNL     1      47.002   5.397  14.300  0.00  0.00    +0.000 A 
ATOM      5  C   UNL     1      45.957   4.524  13.979  0.00  0.00    +0.000 A 
ATOM      6  C   UNL     1      45.514   4.547  12.657  0.00  0.00    +0.000 A 
ATOM      7  C   UNL     1      46.110   5.423  11.752  0.00  0.00    +0.000 A 
ATOM      8  N   UNL     1      47.097   6.285  12.051  0.00  0.00    +0.000 NA
ATOM      9  C   UNL     1      47.525   6.261  13.336  0.00  0.00    +0.000 A 
ENDROOT
BRANCH   1  11
ATOM     10  C   UNL     1      49.986   7.618  11.919  0.00  0.00    +0.000 C 
ATOM     11  C   UNL     1      49.397   8.125  13.254  0.00  0.00    +0.000 C 
ATOM     12  C   UNL     1      50.577   8.544  14.154  0.00  0.00    +0.000 C 
ATOM     13  C   UNL     1      48.536   9.367  12.945  0.00  0.00    +0.000 C 
ENDBRANCH   1  11
BRANCH   7  14
ATOM     14  C   UNL     1      45.691   5.427  10.374  0.00  0.00    +0.000 C 
ATOM     15  N   UNL     1      45.392   5.440   9.253  0.00  0.00    +0.000 NA
ENDBRANCH   7  14
BRANCH   3  16
ATOM     16  C   UNL     1      47.635   4.851  16.697  0.00  0.00    +0.000 C 
BRANCH  16  17
ATOM     17  C   UNL     1      48.710   3.820  16.779  0.00  0.00    +0.000 A 
ATOM     18  C   UNL     1      48.604   2.590  16.162  0.00  0.00    +0.000 A 
ATOM     19  N   UNL     1      49.528   1.615  16.264  0.00  0.00    +0.000 NA
ATOM     20  C   UNL     1      50.597   1.903  17.021  0.00  0.00    +0.000 A 
ATOM     21  N   UNL     1      50.828   3.069  17.641  0.00  0.00    +0.000 NA
ATOM     22  C   UNL     1      49.871   4.005  17.505  0.00  0.00    +0.000 A 
ENDBRANCH  16  17
ENDBRANCH   3  16
TORSDOF 4
ENDMDL
MODEL 7
REMARK VINA RESULT:    -5.385      2.412      6.639
REMARK INTER + INTRA:          -6.851
REMARK INTER:                  -7.267
REMARK INTRA:                   0.416
REMARK UNBOUND:                -0.207
REMARK  Name = 
REMARK  7 active torsions:
REMARK  status: ('A' for Active; 'I' for Inactive)
REMARK    1  A    between atoms: C_1  and  C_2
REMARK    2  A    between atoms: C_2  and  C_3
REMARK    3  A    between atoms: C_2  and  C_4
REMARK    4  A    between atoms: C_2  and  C_5
REMARK    5  A    between atoms: N_7  and  C_8
REMARK    6  A    between atoms: C_8  and  C_9
REMARK    7  A    between atoms: C_18  and  C_19
REMARK                            x       y       z     vdW  Elec       q    Type
REMARK                         _______ _______ _______ _____ _____    ______ ____
ROOT
ATOM      1  C   UNL     1      45.075   5.476  12.027  0.00  0.00    +0.000 A 
ATOM      2  C   UNL     1      46.226   5.090  12.698  0.00  0.00    +0.000 A 
ATOM      3  N   UNL     1      46.962   6.208  13.010  0.00  0.00    +0.000 N 
ATOM      4  C   UNL     1      46.337   7.333  12.518  0.00  0.00    +0.000 A 
ATOM      5  C   UNL     1      46.672   8.692  12.532  0.00  0.00    +0.000 A 
ATOM      6  C   UNL     1      45.742   9.564  11.966  0.00  0.00    +0.000 A 
ATOM      7  C   UNL     1      44.567   9.051  11.420  0.00  0.00    +0.000 A 
ATOM      8  N   UNL     1      44.244   7.746  11.376  0.00  0.00    +0.000 NA
ATOM      9  C   UNL     1      45.148   6.901  11.926  0.00  0.00    +0.000 A 
ENDROOT
BRANCH   1  11
ATOM     10  C   UNL     1      44.031   3.165  12.130  0.00  0.00    +0.000 C 
ATOM     11  C   UNL     1      43.949   4.582  11.520  0.00  0.00    +0.000 C 
ATOM     12  C   UNL     1      44.021   4.433   9.987  0.00  0.00    +0.000 C 
ATOM     13  C   UNL     1      42.579   5.178  11.903  0.00  0.00    +0.000 C 
ENDBRANCH   1  11
BRANCH   7  14
ATOM     14  C   UNL     1      43.581   9.943  10.870  0.00  0.00    +0.000 C 
ATOM     15  N   UNL     1      42.814  10.692  10.422  0.00  0.00    +0.000 NA
ENDBRANCH   7  14
BRANCH   3  16
ATOM     16  C   UNL     1      48.164   6.169  13.843  0.00  0.00    +0.000 C 
BRANCH  16  17
ATOM     17  C   UNL     1      47.898   5.529  15.164  0.00  0.00    +0.000 A 
ATOM     18  C   UNL     1      48.429   6.015  16.342  0.00  0.00    +0.000 A 
ATOM     19  N   UNL     1      48.258   5.428  17.542  0.00  0.00    +0.000 NA
ATOM     20  C   UNL     1      47.522   4.307  17.543  0.00  0.00    +0.000 A 
ATOM     21  N   UNL     1      46.929   3.756  16.474  0.00  0.00    +0.000 NA
ATOM     22  C   UNL     1      47.135   4.385  15.302  0.00  0.00    +0.000 A 
ENDBRANCH  16  17
ENDBRANCH   3  16
TORSDOF 4
ENDMDL
MODEL 8
REMARK VINA RESULT:    -5.272      2.665      7.080
REMARK INTER + INTRA:          -6.712
REMARK INTER:                  -6.237
REMARK INTRA:                  -0.474
REMARK UNBOUND:                -0.207
REMARK  Name = 
REMARK  7 active torsions:
REMARK  status: ('A' for Active; 'I' for Inactive)
REMARK    1  A    between atoms: C_1  and  C_2
REMARK    2  A    between atoms: C_2  and  C_3
REMARK    3  A    between atoms: C_2  and  C_4
REMARK    4  A    between atoms: C_2  and  C_5
REMARK    5  A    between atoms: N_7  and  C_8
REMARK    6  A    between atoms: C_8  and  C_9
REMARK    7  A    between atoms: C_18  and  C_19
REMARK                            x       y       z     vdW  Elec       q    Type
REMARK                         _______ _______ _______ _____ _____    ______ ____
ROOT
ATOM      1  C   UNL     1      45.915   5.940  12.318  0.00  0.00    +0.000 A 
ATOM      2  C   UNL     1      47.185   5.847  12.868  0.00  0.00    +0.000 A 
ATOM      3  N   UNL     1      47.731   7.105  12.960  0.00  0.00    +0.000 N 
ATOM      4  C   UNL     1      46.857   8.033  12.437  0.00  0.00    +0.000 A 
ATOM      5  C   UNL     1      46.932   9.419  12.261  0.00  0.00    +0.000 A 
ATOM      6  C   UNL     1      45.800  10.039  11.733  0.00  0.00    +0.000 A 
ATOM      7  C   UNL     1      44.688   9.266  11.405  0.00  0.00    +0.000 A 
ATOM      8  N   UNL     1      44.610   7.931  11.544  0.00  0.00    +0.000 NA
ATOM      9  C   UNL     1      45.711   7.332  12.057  0.00  0.00    +0.000 A 
ENDROOT
BRANCH   1  11
ATOM     10  C   UNL     1      45.503   3.442  12.494  0.00  0.00    +0.000 C 
ATOM     11  C   UNL     1      44.926   4.808  12.063  0.00  0.00    +0.000 C 
ATOM     12  C   UNL     1      44.583   4.715  10.562  0.00  0.00    +0.000 C 
ATOM     13  C   UNL     1      43.628   5.042  12.862  0.00  0.00    +0.000 C 
ENDBRANCH   1  11
BRANCH   7  14
ATOM     14  C   UNL     1      43.498   9.898  10.899  0.00  0.00    +0.000 C 
ATOM     15  N   UNL     1      42.517  10.373  10.497  0.00  0.00    +0.000 NA
ENDBRANCH   7  14
BRANCH   3  16
ATOM     16  C   UNL     1      49.003   7.380  13.626  0.00  0.00    +0.000 C 
BRANCH  16  17
ATOM     17  C   UNL     1      48.823   7.600  15.090  0.00  0.00    +0.000 A 
ATOM     18  C   UNL     1      48.977   6.588  16.015  0.00  0.00    +0.000 A 
ATOM     19  N   UNL     1      48.764   6.737  17.336  0.00  0.00    +0.000 NA
ATOM     20  C   UNL     1      48.381   7.961  17.729  0.00  0.00    +0.000 A 
ATOM     21  N   UNL     1      48.230   9.029  16.934  0.00  0.00    +0.000 NA
ATOM     22  C   UNL     1      48.455   8.821  15.624  0.00  0.00    +0.000 A 
ENDBRANCH  16  17
ENDBRANCH   3  16
TORSDOF 4
ENDMDL
MODEL 9
REMARK VINA RESULT:    -4.724      3.254      8.217
REMARK INTER + INTRA:          -6.037
REMARK INTER:                  -5.798
REMARK INTRA:                  -0.239
REMARK UNBOUND:                -0.207
REMARK  Name = 
REMARK  7 active torsions:
REMARK  status: ('A' for Active; 'I' for Inactive)
REMARK    1  A    between atoms: C_1  and  C_2
REMARK    2  A    between atoms: C_2  and  C_3
REMARK    3  A    between atoms: C_2  and  C_4
REMARK    4  A    between atoms: C_2  and  C_5
REMARK    5  A    between atoms: N_7  and  C_8
REMARK    6  A    between atoms: C_8  and  C_9
REMARK    7  A    between atoms: C_18  and  C_19
REMARK                            x       y       z     vdW  Elec       q    Type
REMARK                         _______ _______ _______ _____ _____    ______ ____
ROOT
ATOM      1  C   UNL     1      48.645   4.859  16.660  0.00  0.00    +0.000 A 
ATOM      2  C   UNL     1      49.380   6.013  16.882  0.00  0.00    +0.000 A 
ATOM      3  N   UNL     1      49.166   6.892  15.848  0.00  0.00    +0.000 N 
ATOM      4  C   UNL     1      48.328   6.321  14.915  0.00  0.00    +0.000 A 
ATOM      5  C   UNL     1      47.828   6.764  13.686  0.00  0.00    +0.000 A 
ATOM      6  C   UNL     1      46.942   5.907  13.032  0.00  0.00    +0.000 A 
ATOM      7  C   UNL     1      46.619   4.683  13.615  0.00  0.00    +0.000 A 
ATOM      8  N   UNL     1      47.112   4.232  14.782  0.00  0.00    +0.000 NA
ATOM      9  C   UNL     1      47.973   5.066  15.414  0.00  0.00    +0.000 A 
ENDROOT
BRANCH   1  11
ATOM     10  C   UNL     1      48.931   3.960  19.016  0.00  0.00    +0.000 C 
ATOM     11  C   UNL     1      48.547   3.630  17.557  0.00  0.00    +0.000 C 
ATOM     12  C   UNL     1      49.499   2.521  17.066  0.00  0.00    +0.000 C 
ATOM     13  C   UNL     1      47.104   3.087  17.564  0.00  0.00    +0.000 C 
ENDBRANCH   1  11
BRANCH   7  14
ATOM     14  C   UNL     1      45.674   3.808  12.973  0.00  0.00    +0.000 C 
ATOM     15  N   UNL     1      44.943   3.085  12.433  0.00  0.00    +0.000 NA
ENDBRANCH   7  14
BRANCH   3  16
ATOM     16  C   UNL     1      49.678   8.262  15.840  0.00  0.00    +0.000 C 
BRANCH  16  17
ATOM     17  C   UNL     1      49.283   9.005  17.072  0.00  0.00    +0.000 A 
ATOM     18  C   UNL     1      50.193   9.353  18.050  0.00  0.00    +0.000 A 
ATOM     19  N   UNL     1      49.862   9.971  19.199  0.00  0.00    +0.000 NA
ATOM     20  C   UNL     1      48.559  10.244  19.359  0.00  0.00    +0.000 A 
ATOM     21  N   UNL     1      47.588   9.987  18.471  0.00  0.00    +0.000 NA
ATOM     22  C   UNL     1      47.977   9.368  17.341  0.00  0.00    +0.000 A 
ENDBRANCH  16  17
ENDBRANCH   3  16
TORSDOF 4
ENDMDL
