MODEL 1
REMARK VINA RESULT:    -7.826      0.000      0.000
REMARK INTER + INTRA:         -10.302
REMARK INTER:                  -9.657
REMARK INTRA:                  -0.645
REMARK UNBOUND:                -0.645
REMARK  Name = 
REMARK  6 active torsions:
REMARK  status: ('A' for Active; 'I' for Inactive)
REMARK    1  A    between atoms: C_1  and  C_2
REMARK    2  A    between atoms: C_2  and  C_3
REMARK    3  A    between atoms: C_2  and  C_4
REMARK    4  A    between atoms: C_2  and  C_19
REMARK    5  A    between atoms: C_4  and  N_5
REMARK    6  A    between atoms: C_10  and  C_11
REMARK                            x       y       z     vdW  Elec       q    Type
REMARK                         _______ _______ _______ _____ _____    ______ ____
ROOT
ATOM      1  N   UNL     1      46.042   4.501  12.993  0.00  0.00    +0.000 N 
ATOM      2  C   UNL     1      46.961   5.274  13.694  0.00  0.00    +0.000 A 
ATOM      3  N   UNL     1      47.558   6.312  13.096  0.00  0.00    +0.000 NA
ATOM      4  C   UNL     1      48.486   6.972  13.803  0.00  0.00    +0.000 A 
ATOM      5  C   UNL     1      48.805   6.663  15.101  0.00  0.00    +0.000 A 
ATOM      6  C   UNL     1      48.132   5.598  15.661  0.00  0.00    +0.000 A 
ATOM      7  N   UNL     1      47.245   4.873  14.942  0.00  0.00    +0.000 NA
ATOM      8  H   UNL     1      46.529   3.632  12.803  0.00  0.00    +0.000 HD
ENDROOT
BRANCH   6   9
ATOM      9  C   UNL     1      48.337   5.170  17.065  0.00  0.00    +0.000 A 
ATOM     10  C   UNL     1      48.476   3.812  17.422  0.00  0.00    +0.000 A 
ATOM     11  C   UNL     1      48.631   3.419  18.755  0.00  0.00    +0.000 A 
ATOM     12  C   UNL     1      48.665   4.381  19.753  0.00  0.00    +0.000 A 
ATOM     13  F   UNL     1      48.801   4.003  21.030  0.00  0.00    +0.000 F 
ATOM     14  C   UNL     1      48.559   5.728  19.442  0.00  0.00    +0.000 A 
ATOM     15  C   UNL     1      48.402   6.118  18.107  0.00  0.00    +0.000 A 
ENDBRANCH   6   9
BRANCH   1  16
ATOM     16  C   UNL     1      45.512   5.135  11.787  0.00  0.00    +0.000 C 
BRANCH  16  18
ATOM     17  C   UNL     1      43.961   3.112  11.987  0.00  0.00    +0.000 C 
ATOM     18  C   UNL     1      44.463   4.241  11.053  0.00  0.00    +0.000 C 
ATOM     19  C   UNL     1      43.222   5.133  10.778  0.00  0.00    +0.000 C 
BRANCH  18  20
ATOM     20  C   UNL     1      45.081   3.694   9.747  0.00  0.00    +0.000 A 
ATOM     21  C   UNL     1      45.628   4.553   8.774  0.00  0.00    +0.000 A 
ATOM     22  C   UNL     1      46.238   4.052   7.619  0.00  0.00    +0.000 A 
ATOM     23  C   UNL     1      46.326   2.679   7.419  0.00  0.00    +0.000 A 
ATOM     24 CL   UNL     1      47.096   2.064   6.010  0.00  0.00    +0.000 Cl
ATOM     25  C   UNL     1      45.803   1.805   8.362  0.00  0.00    +0.000 A 
ATOM     26  C   UNL     1      45.186   2.309   9.512  0.00  0.00    +0.000 A 
ENDBRANCH  18  20
ENDBRANCH  16  18
ENDBRANCH   1  16
TORSDOF 4
ENDMDL
MODEL 2
REMARK VINA RESULT:    -7.357      2.290      3.293
REMARK INTER + INTRA:          -9.723
REMARK INTER:                  -9.051
REMARK INTRA:                  -0.672
REMARK UNBOUND:                -0.645
REMARK  Name = 
REMARK  6 active torsions:
REMARK  status: ('A' for Active; 'I' for Inactive)
REMARK    1  A    between atoms: C_1  and  C_2
REMARK    2  A    between atoms: C_2  and  C_3
REMARK    3  A    between atoms: C_2  and  C_4
REMARK    4  A    between atoms: C_2  and  C_19
REMARK    5  A    between atoms: C_4  and  N_5
REMARK    6  A    between atoms: C_10  and  C_11
REMARK                            x       y       z     vdW  Elec       q    Type
REMARK                         _______ _______ _______ _____ _____    ______ ____
ROOT
ATOM      1  N   UNL     1      46.361   4.902  12.887  0.00  0.00    +0.000 N 
ATOM      2  C   UNL     1      46.988   4.908  14.128  0.00  0.00    +0.000 A 
ATOM      3  N   UNL     1      46.671   3.984  15.043  0.00  0.00    +0.000 NA
ATOM      4  C   UNL     1      47.258   4.087  16.244  0.00  0.00    +0.000 A 
ATOM      5  C   UNL     1      48.184   5.051  16.548  0.00  0.00    +0.000 A 
ATOM      6  C   UNL     1      48.481   5.955  15.550  0.00  0.00    +0.000 A 
ATOM      7  N   UNL     1      47.846   5.912  14.356  0.00  0.00    +0.000 NA
ATOM      8  H   UNL     1      45.722   5.690  12.918  0.00  0.00    +0.000 HD
ENDROOT
BRANCH   6   9
ATOM      9  C   UNL     1      49.490   7.027  15.714  0.00  0.00    +0.000 A 
ATOM     10  C   UNL     1      49.248   8.354  15.300  0.00  0.00    +0.000 A 
ATOM     11  C   UNL     1      50.223   9.348  15.426  0.00  0.00    +0.000 A 
ATOM     12  C   UNL     1      51.453   9.034  15.982  0.00  0.00    +0.000 A 
ATOM     13  F   UNL     1      52.391   9.984  16.091  0.00  0.00    +0.000 F 
ATOM     14  C   UNL     1      51.722   7.748  16.426  0.00  0.00    +0.000 A 
ATOM     15  C   UNL     1      50.745   6.755  16.297  0.00  0.00    +0.000 A 
ENDBRANCH   6   9
BRANCH   1  16
ATOM     16  C   UNL     1      45.700   3.644  12.547  0.00  0.00    +0.000 C 
BRANCH  16  18
ATOM     17  C   UNL     1      43.340   2.900  11.906  0.00  0.00    +0.000 C 
ATOM     18  C   UNL     1      44.518   3.839  11.547  0.00  0.00    +0.000 C 
ATOM     19  C   UNL     1      43.979   5.280  11.758  0.00  0.00    +0.000 C 
BRANCH  18  20
ATOM     20  C   UNL     1      45.026   3.620  10.104  0.00  0.00    +0.000 A 
ATOM     21  C   UNL     1      45.455   4.696   9.303  0.00  0.00    +0.000 A 
ATOM     22  C   UNL     1      45.968   4.489   8.017  0.00  0.00    +0.000 A 
ATOM     23  C   UNL     1      46.077   3.199   7.512  0.00  0.00    +0.000 A 
ATOM     24 CL   UNL     1      46.730   2.944   5.942  0.00  0.00    +0.000 Cl
ATOM     25  C   UNL     1      45.672   2.116   8.280  0.00  0.00    +0.000 A 
ATOM     26  C   UNL     1      45.150   2.326   9.561  0.00  0.00    +0.000 A 
ENDBRANCH  18  20
ENDBRANCH  16  18
ENDBRANCH   1  16
TORSDOF 4
ENDMDL
MODEL 3
REMARK VINA RESULT:    -7.191      1.768      2.548
REMARK INTER + INTRA:          -9.517
REMARK INTER:                  -8.884
REMARK INTRA:                  -0.633
REMARK UNBOUND:                -0.645
REMARK  Name = 
REMARK  6 active torsions:
REMARK  status: ('A' for Active; 'I' for Inactive)
REMARK    1  A    between atoms: C_1  and  C_2
REMARK    2  A    between atoms: C_2  and  C_3
REMARK    3  A    between atoms: C_2  and  C_4
REMARK    4  A    between atoms: C_2  and  C_19
REMARK    5  A    between atoms: C_4  and  N_5
REMARK    6  A    between atoms: C_10  and  C_11
REMARK                            x       y       z     vdW  Elec       q    Type
REMARK                         _______ _______ _______ _____ _____    ______ ____
ROOT
ATOM      1  N   UNL     1      46.271   4.863  14.401  0.00  0.00    +0.000 N 
ATOM      2  C   UNL     1      47.167   4.314  15.311  0.00  0.00    +0.000 A 
ATOM      3  N   UNL     1      47.545   3.035  15.190  0.00  0.00    +0.000 NA
ATOM      4  C   UNL     1      48.355   2.546  16.140  0.00  0.00    +0.000 A 
ATOM      5  C   UNL     1      48.837   3.299  17.179  0.00  0.00    +0.000 A 
ATOM      6  C   UNL     1      48.426   4.614  17.226  0.00  0.00    +0.000 A 
ATOM      7  N   UNL     1      47.553   5.108  16.320  0.00  0.00    +0.000 NA
ATOM      8  H   UNL     1      45.400   4.946  14.916  0.00  0.00    +0.000 HD
ENDROOT
BRANCH   6   9
ATOM      9  C   UNL     1      48.895   5.563  18.264  0.00  0.00    +0.000 A 
ATOM     10  C   UNL     1      48.208   6.763  18.547  0.00  0.00    +0.000 A 
ATOM     11  C   UNL     1      48.682   7.667  19.503  0.00  0.00    +0.000 A 
ATOM     12  C   UNL     1      49.845   7.380  20.201  0.00  0.00    +0.000 A 
ATOM     13  F   UNL     1      50.305   8.252  21.107  0.00  0.00    +0.000 F 
ATOM     14  C   UNL     1      50.535   6.199  19.971  0.00  0.00    +0.000 A 
ATOM     15  C   UNL     1      50.059   5.296  19.014  0.00  0.00    +0.000 A 
ENDBRANCH   6   9
BRANCH   1  16
ATOM     16  C   UNL     1      46.129   4.108  13.158  0.00  0.00    +0.000 C 
BRANCH  16  18
ATOM     17  C   UNL     1      43.597   3.863  12.905  0.00  0.00    +0.000 C 
ATOM     18  C   UNL     1      44.872   4.536  12.337  0.00  0.00    +0.000 C 
ATOM     19  C   UNL     1      44.675   6.058  12.570  0.00  0.00    +0.000 C 
BRANCH  18  20
ATOM     20  C   UNL     1      45.097   4.205  10.844  0.00  0.00    +0.000 A 
ATOM     21  C   UNL     1      45.622   5.157   9.950  0.00  0.00    +0.000 A 
ATOM     22  C   UNL     1      45.878   4.838   8.612  0.00  0.00    +0.000 A 
ATOM     23  C   UNL     1      45.629   3.554   8.144  0.00  0.00    +0.000 A 
ATOM     24 CL   UNL     1      45.966   3.155   6.506  0.00  0.00    +0.000 Cl
ATOM     25  C   UNL     1      45.120   2.589   9.002  0.00  0.00    +0.000 A 
ATOM     26  C   UNL     1      44.855   2.913  10.337  0.00  0.00    +0.000 A 
ENDBRANCH  18  20
ENDBRANCH  16  18
ENDBRANCH   1  16
TORSDOF 4
ENDMDL
MODEL 4
REMARK VINA RESULT:    -6.634      4.160      8.532
REMARK INTER + INTRA:          -8.831
REMARK INTER:                  -8.144
REMARK INTRA:                  -0.687
REMARK UNBOUND:                -0.645
REMARK  Name = 
REMARK  6 active torsions:
REMARK  status: ('A' for Active; 'I' for Inactive)
REMARK    1  A    between atoms: C_1  and  C_2
REMARK    2  A    between atoms: C_2  and  C_3
REMARK    3  A    between atoms: C_2  and  C_4
REMARK    4  A    between atoms: C_2  and  C_19
REMARK    5  A    between atoms: C_4  and  N_5
REMARK    6  A    between atoms: C_10  and  C_11
REMARK                            x       y       z     vdW  Elec       q    Type
REMARK                         _______ _______ _______ _____ _____    ______ ____
ROOT
ATOM      1  N   UNL     1      47.856   5.330  15.782  0.00  0.00    +0.000 N 
ATOM      2  C   UNL     1      47.659   5.957  14.557  0.00  0.00    +0.000 A 
ATOM      3  N   UNL     1      48.147   7.186  14.346  0.00  0.00    +0.000 NA
ATOM      4  C   UNL     1      47.862   7.762  13.170  0.00  0.00    +0.000 A 
ATOM      5  C   UNL     1      47.146   7.139  12.180  0.00  0.00    +0.000 A 
ATOM      6  C   UNL     1      46.696   5.866  12.457  0.00  0.00    +0.000 A 
ATOM      7  N   UNL     1      46.911   5.294  13.663  0.00  0.00    +0.000 NA
ATOM      8  H   UNL     1      46.950   5.364  16.236  0.00  0.00    +0.000 HD
ENDROOT
BRANCH   6   9
ATOM      9  C   UNL     1      45.946   5.050  11.473  0.00  0.00    +0.000 A 
ATOM     10  C   UNL     1      45.321   3.836  11.827  0.00  0.00    +0.000 A 
ATOM     11  C   UNL     1      44.648   3.057  10.880  0.00  0.00    +0.000 A 
ATOM     12  C   UNL     1      44.579   3.487   9.564  0.00  0.00    +0.000 A 
ATOM     13  F   UNL     1      43.945   2.735   8.655  0.00  0.00    +0.000 F 
ATOM     14  C   UNL     1      45.156   4.688   9.180  0.00  0.00    +0.000 A 
ATOM     15  C   UNL     1      45.830   5.465  10.130  0.00  0.00    +0.000 A 
ENDBRANCH   6   9
BRANCH   1  16
ATOM     16  C   UNL     1      48.925   5.910  16.594  0.00  0.00    +0.000 C 
BRANCH  16  18
ATOM     17  C   UNL     1      49.479   6.181  19.075  0.00  0.00    +0.000 C 
ATOM     18  C   UNL     1      49.105   5.174  17.959  0.00  0.00    +0.000 C 
ATOM     19  C   UNL     1      47.714   4.612  18.358  0.00  0.00    +0.000 C 
BRANCH  18  20
ATOM     20  C   UNL     1      50.156   4.052  17.801  0.00  0.00    +0.000 A 
ATOM     21  C   UNL     1      51.501   4.245  18.172  0.00  0.00    +0.000 A 
ATOM     22  C   UNL     1      52.438   3.210  18.082  0.00  0.00    +0.000 A 
ATOM     23  C   UNL     1      52.046   1.955  17.633  0.00  0.00    +0.000 A 
ATOM     24 CL   UNL     1      53.193   0.677  17.545  0.00  0.00    +0.000 Cl
ATOM     25  C   UNL     1      50.726   1.729  17.268  0.00  0.00    +0.000 A 
ATOM     26  C   UNL     1      49.793   2.768  17.350  0.00  0.00    +0.000 A 
ENDBRANCH  18  20
ENDBRANCH  16  18
ENDBRANCH   1  16
TORSDOF 4
ENDMDL
MODEL 5
REMARK VINA RESULT:    -6.631      2.114      2.839
REMARK INTER + INTRA:          -8.827
REMARK INTER:                  -8.215
REMARK INTRA:                  -0.612
REMARK UNBOUND:                -0.645
REMARK  Name = 
REMARK  6 active torsions:
REMARK  status: ('A' for Active; 'I' for Inactive)
REMARK    1  A    between atoms: C_1  and  C_2
REMARK    2  A    between atoms: C_2  and  C_3
REMARK    3  A    between atoms: C_2  and  C_4
REMARK    4  A    between atoms: C_2  and  C_19
REMARK    5  A    between atoms: C_4  and  N_5
REMARK    6  A    between atoms: C_10  and  C_11
REMARK                            x       y       z     vdW  Elec       q    Type
REMARK                         _______ _______ _______ _____ _____    ______ ____
ROOT
ATOM      1  N   UNL     1      46.471   5.662  12.287  0.00  0.00    +0.000 N 
ATOM      2  C   UNL     1      47.113   6.754  12.861  0.00  0.00    +0.000 A 
ATOM      3  N   UNL     1      46.700   7.997  12.582  0.00  0.00    +0.000 NA
ATOM      4  C   UNL     1      47.405   9.007  13.110  0.00  0.00    +0.000 A 
ATOM      5  C   UNL     1      48.478   8.822  13.943  0.00  0.00    +0.000 A 
ATOM      6  C   UNL     1      48.832   7.516  14.207  0.00  0.00    +0.000 A 
ATOM      7  N   UNL     1      48.179   6.483  13.627  0.00  0.00    +0.000 NA
ATOM      8  H   UNL     1      47.121   5.321  11.588  0.00  0.00    +0.000 HD
ENDROOT
BRANCH   6   9
ATOM      9  C   UNL     1      49.941   7.155  15.120  0.00  0.00    +0.000 A 
ATOM     10  C   UNL     1      49.758   6.285  16.216  0.00  0.00    +0.000 A 
ATOM     11  C   UNL     1      50.805   5.983  17.092  0.00  0.00    +0.000 A 
ATOM     12  C   UNL     1      52.058   6.536  16.879  0.00  0.00    +0.000 A 
ATOM     13  F   UNL     1      53.057   6.257  17.725  0.00  0.00    +0.000 F 
ATOM     14  C   UNL     1      52.287   7.375  15.798  0.00  0.00    +0.000 A 
ATOM     15  C   UNL     1      51.237   7.676  14.924  0.00  0.00    +0.000 A 
ENDBRANCH   6   9
BRANCH   1  16
ATOM     16  C   UNL     1      45.146   5.955  11.743  0.00  0.00    +0.000 C 
BRANCH  16  18
ATOM     17  C   UNL     1      44.331   3.659  12.517  0.00  0.00    +0.000 C 
ATOM     18  C   UNL     1      44.367   4.664  11.339  0.00  0.00    +0.000 C 
ATOM     19  C   UNL     1      42.890   5.081  11.104  0.00  0.00    +0.000 C 
BRANCH  18  20
ATOM     20  C   UNL     1      45.004   4.058  10.067  0.00  0.00    +0.000 A 
ATOM     21  C   UNL     1      44.998   2.670   9.830  0.00  0.00    +0.000 A 
ATOM     22  C   UNL     1      45.524   2.129   8.652  0.00  0.00    +0.000 A 
ATOM     23  C   UNL     1      46.054   2.968   7.679  0.00  0.00    +0.000 A 
ATOM     24 CL   UNL     1      46.679   2.304   6.220  0.00  0.00    +0.000 Cl
ATOM     25  C   UNL     1      46.067   4.341   7.877  0.00  0.00    +0.000 A 
ATOM     26  C   UNL     1      45.549   4.879   9.061  0.00  0.00    +0.000 A 
ENDBRANCH  18  20
ENDBRANCH  16  18
ENDBRANCH   1  16
TORSDOF 4
ENDMDL
MODEL 6
REMARK VINA RESULT:    -6.474      3.621      5.231
REMARK INTER + INTRA:          -8.632
REMARK INTER:                  -7.824
REMARK INTRA:                  -0.808
REMARK UNBOUND:                -0.645
REMARK  Name = 
REMARK  6 active torsions:
REMARK  status: ('A' for Active; 'I' for Inactive)
REMARK    1  A    between atoms: C_1  and  C_2
REMARK    2  A    between atoms: C_2  and  C_3
REMARK    3  A    between atoms: C_2  and  C_4
REMARK    4  A    between atoms: C_2  and  C_19
REMARK    5  A    between atoms: C_4  and  N_5
REMARK    6  A    between atoms: C_10  and  C_11
REMARK                            x       y       z     vdW  Elec       q    Type
REMARK                         _______ _______ _______ _____ _____    ______ ____
ROOT
ATOM      1  N   UNL     1      49.522   7.071  15.230  0.00  0.00    +0.000 N 
ATOM      2  C   UNL     1      49.341   6.267  16.350  0.00  0.00    +0.000 A 
ATOM      3  N   UNL     1      48.318   6.498  17.182  0.00  0.00    +0.000 NA
ATOM      4  C   UNL     1      48.240   5.733  18.280  0.00  0.00    +0.000 A 
ATOM      5  C   UNL     1      49.119   4.716  18.553  0.00  0.00    +0.000 A 
ATOM      6  C   UNL     1      50.132   4.519  17.640  0.00  0.00    +0.000 A 
ATOM      7  N   UNL     1      50.271   5.325  16.563  0.00  0.00    +0.000 NA
ATOM      8  H   UNL     1      50.323   7.650  15.456  0.00  0.00    +0.000 HD
ENDROOT
BRANCH   6   9
ATOM      9  C   UNL     1      51.133   3.435  17.775  0.00  0.00    +0.000 A 
ATOM     10  C   UNL     1      52.405   3.656  18.345  0.00  0.00    +0.000 A 
ATOM     11  C   UNL     1      53.354   2.632  18.433  0.00  0.00    +0.000 A 
ATOM     12  C   UNL     1      53.041   1.366  17.964  0.00  0.00    +0.000 A 
ATOM     13  F   UNL     1      53.954   0.389  18.037  0.00  0.00    +0.000 F 
ATOM     14  C   UNL     1      51.792   1.100  17.421  0.00  0.00    +0.000 A 
ATOM     15  C   UNL     1      50.845   2.127  17.334  0.00  0.00    +0.000 A 
ENDBRANCH   6   9
BRANCH   1  16
ATOM     16  C   UNL     1      48.345   7.848  14.845  0.00  0.00    +0.000 C 
BRANCH  16  18
ATOM     17  C   UNL     1      47.596   9.002  12.690  0.00  0.00    +0.000 C 
ATOM     18  C   UNL     1      47.958   7.646  13.346  0.00  0.00    +0.000 C 
ATOM     19  C   UNL     1      49.235   7.158  12.610  0.00  0.00    +0.000 C 
BRANCH  18  20
ATOM     20  C   UNL     1      46.808   6.619  13.248  0.00  0.00    +0.000 A 
ATOM     21  C   UNL     1      45.515   6.997  12.837  0.00  0.00    +0.000 A 
ATOM     22  C   UNL     1      44.490   6.055  12.694  0.00  0.00    +0.000 A 
ATOM     23  C   UNL     1      44.741   4.712  12.946  0.00  0.00    +0.000 A 
ATOM     24 CL   UNL     1      43.487   3.552  12.748  0.00  0.00    +0.000 Cl
ATOM     25  C   UNL     1      46.007   4.305  13.345  0.00  0.00    +0.000 A 
ATOM     26  C   UNL     1      47.027   5.250  13.496  0.00  0.00    +0.000 A 
ENDBRANCH  18  20
ENDBRANCH  16  18
ENDBRANCH   1  16
TORSDOF 4
ENDMDL
MODEL 7
REMARK VINA RESULT:    -6.441      4.465      9.018
REMARK INTER + INTRA:          -8.591
REMARK INTER:                  -7.897
REMARK INTRA:                  -0.695
REMARK UNBOUND:                -0.645
REMARK  Name = 
REMARK  6 active torsions:
REMARK  status: ('A' for Active; 'I' for Inactive)
REMARK    1  A    between atoms: C_1  and  C_2
REMARK    2  A    between atoms: C_2  and  C_3
REMARK    3  A    between atoms: C_2  and  C_4
REMARK    4  A    between atoms: C_2  and  C_19
REMARK    5  A    between atoms: C_4  and  N_5
REMARK    6  A    between atoms: C_10  and  C_11
REMARK                            x       y       z     vdW  Elec       q    Type
REMARK                         _______ _______ _______ _____ _____    ______ ____
ROOT
ATOM      1  N   UNL     1      47.681   7.326  14.338  0.00  0.00    +0.000 N 
ATOM      2  C   UNL     1      46.742   7.499  13.327  0.00  0.00    +0.000 A 
ATOM      3  N   UNL     1      46.201   8.705  13.114  0.00  0.00    +0.000 NA
ATOM      4  C   UNL     1      45.251   8.790  12.172  0.00  0.00    +0.000 A 
ATOM      5  C   UNL     1      44.854   7.725  11.405  0.00  0.00    +0.000 A 
ATOM      6  C   UNL     1      45.472   6.520  11.662  0.00  0.00    +0.000 A 
ATOM      7  N   UNL     1      46.381   6.396  12.655  0.00  0.00    +0.000 NA
ATOM      8  H   UNL     1      47.186   6.819  15.064  0.00  0.00    +0.000 HD
ENDROOT
BRANCH   6   9
ATOM      9  C   UNL     1      45.180   5.290  10.888  0.00  0.00    +0.000 A 
ATOM     10  C   UNL     1      44.583   4.156  11.480  0.00  0.00    +0.000 A 
ATOM     11  C   UNL     1      44.348   2.988  10.747  0.00  0.00    +0.000 A 
ATOM     12  C   UNL     1      44.694   2.940   9.406  0.00  0.00    +0.000 A 
ATOM     13  F   UNL     1      44.480   1.817   8.708  0.00  0.00    +0.000 F 
ATOM     14  C   UNL     1      45.259   4.041   8.780  0.00  0.00    +0.000 A 
ATOM     15  C   UNL     1      45.494   5.208   9.516  0.00  0.00    +0.000 A 
ENDBRANCH   6   9
BRANCH   1  16
ATOM     16  C   UNL     1      48.290   8.565  14.818  0.00  0.00    +0.000 C 
BRANCH  16  18
ATOM     17  C   UNL     1      50.516   7.355  15.164  0.00  0.00    +0.000 C 
ATOM     18  C   UNL     1      49.474   8.307  15.803  0.00  0.00    +0.000 C 
ATOM     19  C   UNL     1      50.210   9.661  15.990  0.00  0.00    +0.000 C 
BRANCH  18  20
ATOM     20  C   UNL     1      48.919   7.763  17.139  0.00  0.00    +0.000 A 
ATOM     21  C   UNL     1      48.087   8.543  17.964  0.00  0.00    +0.000 A 
ATOM     22  C   UNL     1      47.540   8.028  19.145  0.00  0.00    +0.000 A 
ATOM     23  C   UNL     1      47.803   6.715  19.517  0.00  0.00    +0.000 A 
ATOM     24 CL   UNL     1      47.112   6.076  20.956  0.00  0.00    +0.000 Cl
ATOM     25  C   UNL     1      48.613   5.916  18.721  0.00  0.00    +0.000 A 
ATOM     26  C   UNL     1      49.166   6.437  17.546  0.00  0.00    +0.000 A 
ENDBRANCH  18  20
ENDBRANCH  16  18
ENDBRANCH   1  16
TORSDOF 4
ENDMDL
MODEL 8
REMARK VINA RESULT:    -5.938      4.396      9.064
REMARK INTER + INTRA:          -7.971
REMARK INTER:                  -7.087
REMARK INTRA:                  -0.885
REMARK UNBOUND:                -0.645
REMARK  Name = 
REMARK  6 active torsions:
REMARK  status: ('A' for Active; 'I' for Inactive)
REMARK    1  A    between atoms: C_1  and  C_2
REMARK    2  A    between atoms: C_2  and  C_3
REMARK    3  A    between atoms: C_2  and  C_4
REMARK    4  A    between atoms: C_2  and  C_19
REMARK    5  A    between atoms: C_4  and  N_5
REMARK    6  A    between atoms: C_10  and  C_11
REMARK                            x       y       z     vdW  Elec       q    Type
REMARK                         _______ _______ _______ _____ _____    ______ ____
ROOT
ATOM      1  N   UNL     1      48.627   4.902  16.944  0.00  0.00    +0.000 N 
ATOM      2  C   UNL     1      48.547   5.541  15.711  0.00  0.00    +0.000 A 
ATOM      3  N   UNL     1      49.355   6.572  15.437  0.00  0.00    +0.000 NA
ATOM      4  C   UNL     1      49.179   7.189  14.260  0.00  0.00    +0.000 A 
ATOM      5  C   UNL     1      48.257   6.785  13.328  0.00  0.00    +0.000 A 
ATOM      6  C   UNL     1      47.477   5.700  13.667  0.00  0.00    +0.000 A 
ATOM      7  N   UNL     1      47.588   5.109  14.878  0.00  0.00    +0.000 NA
ATOM      8  H   UNL     1      47.797   5.203  17.443  0.00  0.00    +0.000 HD
ENDROOT
BRANCH   6   9
ATOM      9  C   UNL     1      46.467   5.122  12.750  0.00  0.00    +0.000 A 
ATOM     10  C   UNL     1      45.913   3.840  12.957  0.00  0.00    +0.000 A 
ATOM     11  C   UNL     1      44.989   3.291  12.063  0.00  0.00    +0.000 A 
ATOM     12  C   UNL     1      44.594   4.020  10.952  0.00  0.00    +0.000 A 
ATOM     13  F   UNL     1      43.719   3.488  10.089  0.00  0.00    +0.000 F 
ATOM     14  C   UNL     1      45.094   5.294  10.726  0.00  0.00    +0.000 A 
ATOM     15  C   UNL     1      46.020   5.840  11.622  0.00  0.00    +0.000 A 
ENDBRANCH   6   9
BRANCH   1  16
ATOM     16  C   UNL     1      49.863   5.160  17.680  0.00  0.00    +0.000 C 
BRANCH  16  18
ATOM     17  C   UNL     1      48.677   4.789  19.915  0.00  0.00    +0.000 C 
ATOM     18  C   UNL     1      49.599   5.736  19.107  0.00  0.00    +0.000 C 
ATOM     19  C   UNL     1      50.959   5.730  19.856  0.00  0.00    +0.000 C 
BRANCH  18  20
ATOM     20  C   UNL     1      49.016   7.162  18.984  0.00  0.00    +0.000 A 
ATOM     21  C   UNL     1      47.669   7.436  19.290  0.00  0.00    +0.000 A 
ATOM     22  C   UNL     1      47.158   8.737  19.232  0.00  0.00    +0.000 A 
ATOM     23  C   UNL     1      47.988   9.795  18.883  0.00  0.00    +0.000 A 
ATOM     24 CL   UNL     1      47.365  11.397  18.835  0.00  0.00    +0.000 Cl
ATOM     25  C   UNL     1      49.323   9.560  18.584  0.00  0.00    +0.000 A 
ATOM     26  C   UNL     1      49.830   8.257  18.632  0.00  0.00    +0.000 A 
ENDBRANCH  18  20
ENDBRANCH  16  18
ENDBRANCH   1  16
TORSDOF 4
ENDMDL
MODEL 9
REMARK VINA RESULT:    -5.803      5.073      8.501
REMARK INTER + INTRA:          -7.805
REMARK INTER:                  -7.147
REMARK INTRA:                  -0.657
REMARK UNBOUND:                -0.645
REMARK  Name = 
REMARK  6 active torsions:
REMARK  status: ('A' for Active; 'I' for Inactive)
REMARK    1  A    between atoms: C_1  and  C_2
REMARK    2  A    between atoms: C_2  and  C_3
REMARK    3  A    between atoms: C_2  and  C_4
REMARK    4  A    between atoms: C_2  and  C_19
REMARK    5  A    between atoms: C_4  and  N_5
REMARK    6  A    between atoms: C_10  and  C_11
REMARK                            x       y       z     vdW  Elec       q    Type
REMARK                         _______ _______ _______ _____ _____    ______ ____
ROOT
ATOM      1  N   UNL     1      46.891   4.916  15.155  0.00  0.00    +0.000 N 
ATOM      2  C   UNL     1      47.304   5.814  14.177  0.00  0.00    +0.000 A 
ATOM      3  N   UNL     1      48.605   5.936  13.885  0.00  0.00    +0.000 NA
ATOM      4  C   UNL     1      48.944   6.869  12.985  0.00  0.00    +0.000 A 
ATOM      5  C   UNL     1      48.027   7.653  12.332  0.00  0.00    +0.000 A 
ATOM      6  C   UNL     1      46.703   7.455  12.663  0.00  0.00    +0.000 A 
ATOM      7  N   UNL     1      46.346   6.570  13.621  0.00  0.00    +0.000 NA
ATOM      8  H   UNL     1      46.631   5.497  15.944  0.00  0.00    +0.000 HD
ENDROOT
BRANCH   6   9
ATOM      9  C   UNL     1      45.596   8.195  12.014  0.00  0.00    +0.000 A 
ATOM     10  C   UNL     1      45.567   9.605  11.960  0.00  0.00    +0.000 A 
ATOM     11  C   UNL     1      44.497  10.292  11.377  0.00  0.00    +0.000 A 
ATOM     12  C   UNL     1      43.444   9.578  10.825  0.00  0.00    +0.000 A 
ATOM     13  F   UNL     1      42.414  10.236  10.278  0.00  0.00    +0.000 F 
ATOM     14  C   UNL     1      43.448   8.191  10.833  0.00  0.00    +0.000 A 
ATOM     15  C   UNL     1      44.519   7.507  11.418  0.00  0.00    +0.000 A 
ENDBRANCH   6   9
BRANCH   1  16
ATOM     16  C   UNL     1      47.880   3.896  15.497  0.00  0.00    +0.000 C 
BRANCH  16  18
ATOM     17  C   UNL     1      47.901   5.215  17.686  0.00  0.00    +0.000 C 
ATOM     18  C   UNL     1      48.177   3.840  17.028  0.00  0.00    +0.000 C 
ATOM     19  C   UNL     1      47.144   2.866  17.656  0.00  0.00    +0.000 C 
BRANCH  18  20
ATOM     20  C   UNL     1      49.630   3.362  17.252  0.00  0.00    +0.000 A 
ATOM     21  C   UNL     1      50.625   4.232  17.737  0.00  0.00    +0.000 A 
ATOM     22  C   UNL     1      51.926   3.783  17.992  0.00  0.00    +0.000 A 
ATOM     23  C   UNL     1      52.253   2.449  17.782  0.00  0.00    +0.000 A 
ATOM     24 CL   UNL     1      53.845   1.891  18.118  0.00  0.00    +0.000 Cl
ATOM     25  C   UNL     1      51.293   1.563  17.312  0.00  0.00    +0.000 A 
ATOM     26  C   UNL     1      49.996   2.017  17.049  0.00  0.00    +0.000 A 
ENDBRANCH  18  20
ENDBRANCH  16  18
ENDBRANCH   1  16
TORSDOF 4
ENDMDL
