MODEL 1
REMARK VINA RESULT:    -8.443      0.000      0.000
REMARK INTER + INTRA:         -12.414
REMARK INTER:                 -11.405
REMARK INTRA:                  -1.009
REMARK UNBOUND:                -1.009
REMARK  Name = 
REMARK  6 active torsions:
REMARK  status: ('A' for Active; 'I' for Inactive)
REMARK    1  A    between atoms: C_2  and  C_3
REMARK    2  A    between atoms: C_7  and  C_8
REMARK    3  A    between atoms: C_12  and  C_13
REMARK    4  A    between atoms: C_13  and  N_14
REMARK    5  A    between atoms: N_14  and  C_15
REMARK    6  A    between atoms: C_18  and  C_19
REMARK                            x       y       z     vdW  Elec       q    Type
REMARK                         _______ _______ _______ _____ _____    ______ ____
ROOT
ATOM      1  C   UNL     1      43.796   5.023  11.328  0.00  0.00    +0.000 C 
ATOM      2  C   UNL     1      43.061   6.317  11.019  0.00  0.00    +0.000 C 
ATOM      3  C   UNL     1      42.502   5.395  12.048  0.00  0.00    +0.000 C 
ENDROOT
BRANCH   1   8
ATOM      4  C   UNL     1      47.070   6.328  12.562  0.00  0.00    +0.000 A 
ATOM      5  C   UNL     1      47.514   5.348  13.444  0.00  0.00    +0.000 A 
ATOM      6  C   UNL     1      46.713   4.240  13.680  0.00  0.00    +0.000 A 
ATOM      7  C   UNL     1      45.499   4.128  13.014  0.00  0.00    +0.000 A 
ATOM      8  C   UNL     1      45.102   5.128  12.125  0.00  0.00    +0.000 A 
ATOM      9  N   UNL     1      45.880   6.223  11.925  0.00  0.00    +0.000 NA
BRANCH   4  14
ATOM     10  C   UNL     1      49.961   8.550  11.525  0.00  0.00    +0.000 A 
ATOM     11  C   UNL     1      49.325   9.780  11.594  0.00  0.00    +0.000 A 
ATOM     12  N   UNL     1      48.025   9.935  11.925  0.00  0.00    +0.000 NA
ATOM     13  C   UNL     1      47.329   8.806  12.211  0.00  0.00    +0.000 A 
ATOM     14  C   UNL     1      47.860   7.516  12.201  0.00  0.00    +0.000 A 
ATOM     15  C   UNL     1      49.213   7.412  11.829  0.00  0.00    +0.000 A 
BRANCH  10  17
ATOM     16  N   UNL     1      52.459   8.396  10.874  0.00  0.00    +0.000 NA
ATOM     17  C   UNL     1      51.337   8.460  11.165  0.00  0.00    +0.000 C 
ENDBRANCH  10  17
ENDBRANCH   4  14
ENDBRANCH   1   8
BRANCH   1  18
ATOM     18  N   UNL     1      43.694   3.808  10.482  0.00  0.00    +0.000 N 
ATOM     19  H   UNL     1      43.349   2.992  10.987  0.00  0.00    +0.000 HD
BRANCH  18  20
ATOM     20  C   UNL     1      44.658   3.462   9.515  0.00  0.00    +0.000 A 
ATOM     21  C   UNL     1      45.040   2.122   9.372  0.00  0.00    +0.000 A 
ATOM     22  C   UNL     1      45.939   1.747   8.371  0.00  0.00    +0.000 A 
ATOM     23  C   UNL     1      46.420   2.734   7.524  0.00  0.00    +0.000 A 
ATOM     24  N   UNL     1      46.051   4.040   7.599  0.00  0.00    +0.000 NA
ATOM     25  C   UNL     1      45.169   4.351   8.576  0.00  0.00    +0.000 A 
BRANCH  23  26
ATOM     26  C   UNL     1      47.402   2.402   6.448  0.00  0.00    +0.000 C 
ATOM     27  N   UNL     1      47.340   3.210   5.344  0.00  0.00    +0.000 N 
ATOM     28  O   UNL     1      48.208   1.485   6.542  0.00  0.00    +0.000 OA
ATOM     29  H   UNL     1      46.652   3.954   5.315  0.00  0.00    +0.000 HD
ATOM     30  H   UNL     1      47.973   3.061   4.570  0.00  0.00    +0.000 HD
ENDBRANCH  23  26
ENDBRANCH  18  20
ENDBRANCH   1  18
TORSDOF 6
ENDMDL
MODEL 2
REMARK VINA RESULT:    -8.153      2.600      3.930
REMARK INTER + INTRA:         -12.022
REMARK INTER:                 -11.908
REMARK INTRA:                  -0.114
REMARK UNBOUND:                -1.009
REMARK  Name = 
REMARK  6 active torsions:
REMARK  status: ('A' for Active; 'I' for Inactive)
REMARK    1  A    between atoms: C_2  and  C_3
REMARK    2  A    between atoms: C_7  and  C_8
REMARK    3  A    between atoms: C_12  and  C_13
REMARK    4  A    between atoms: C_13  and  N_14
REMARK    5  A    between atoms: N_14  and  C_15
REMARK    6  A    between atoms: C_18  and  C_19
REMARK                            x       y       z     vdW  Elec       q    Type
REMARK                         _______ _______ _______ _____ _____    ______ ____
ROOT
ATOM      1  C   UNL     1      43.975   4.934  11.612  0.00  0.00    +0.000 C 
ATOM      2  C   UNL     1      42.788   5.154  12.536  0.00  0.00    +0.000 C 
ATOM      3  C   UNL     1      43.382   3.790  12.432  0.00  0.00    +0.000 C 
ENDROOT
BRANCH   1   8
ATOM      4  C   UNL     1      47.026   5.529  13.682  0.00  0.00    +0.000 A 
ATOM      5  C   UNL     1      47.716   6.519  12.991  0.00  0.00    +0.000 A 
ATOM      6  C   UNL     1      47.198   6.991  11.792  0.00  0.00    +0.000 A 
ATOM      7  C   UNL     1      45.996   6.476  11.325  0.00  0.00    +0.000 A 
ATOM      8  C   UNL     1      45.330   5.495  12.061  0.00  0.00    +0.000 A 
ATOM      9  N   UNL     1      45.860   5.019  13.217  0.00  0.00    +0.000 NA
BRANCH   4  14
ATOM     10  C   UNL     1      48.702   5.214  17.067  0.00  0.00    +0.000 A 
ATOM     11  C   UNL     1      48.296   3.928  17.391  0.00  0.00    +0.000 A 
ATOM     12  N   UNL     1      47.500   3.171  16.606  0.00  0.00    +0.000 NA
ATOM     13  C   UNL     1      47.097   3.724  15.433  0.00  0.00    +0.000 A 
ATOM     14  C   UNL     1      47.456   4.995  14.984  0.00  0.00    +0.000 A 
ATOM     15  C   UNL     1      48.270   5.745  15.851  0.00  0.00    +0.000 A 
BRANCH  10  17
ATOM     16  N   UNL     1      50.220   6.562  18.668  0.00  0.00    +0.000 NA
ATOM     17  C   UNL     1      49.543   5.956  17.946  0.00  0.00    +0.000 C 
ENDBRANCH  10  17
ENDBRANCH   4  14
ENDBRANCH   1   8
BRANCH   1  18
ATOM     18  N   UNL     1      43.842   4.764  10.144  0.00  0.00    +0.000 N 
ATOM     19  H   UNL     1      42.880   4.610   9.841  0.00  0.00    +0.000 HD
BRANCH  18  20
ATOM     20  C   UNL     1      44.763   4.033   9.369  0.00  0.00    +0.000 A 
ATOM     21  C   UNL     1      44.792   2.636   9.472  0.00  0.00    +0.000 A 
ATOM     22  C   UNL     1      45.647   1.886   8.659  0.00  0.00    +0.000 A 
ATOM     23  C   UNL     1      46.441   2.566   7.747  0.00  0.00    +0.000 A 
ATOM     24  N   UNL     1      46.422   3.915   7.585  0.00  0.00    +0.000 NA
ATOM     25  C   UNL     1      45.569   4.595   8.385  0.00  0.00    +0.000 A 
BRANCH  23  26
ATOM     26  C   UNL     1      47.393   1.825   6.866  0.00  0.00    +0.000 C 
ATOM     27  N   UNL     1      48.479   2.550   6.454  0.00  0.00    +0.000 N 
ATOM     28  O   UNL     1      47.226   0.656   6.540  0.00  0.00    +0.000 OA
ATOM     29  H   UNL     1      48.568   3.515   6.750  0.00  0.00    +0.000 HD
ATOM     30  H   UNL     1      49.177   2.125   5.860  0.00  0.00    +0.000 HD
ENDBRANCH  23  26
ENDBRANCH  18  20
ENDBRANCH   1  18
TORSDOF 6
ENDMDL
MODEL 3
REMARK VINA RESULT:    -7.976      2.486      4.118
REMARK INTER + INTRA:         -11.783
REMARK INTER:                 -11.686
REMARK INTRA:                  -0.097
REMARK UNBOUND:                -1.009
REMARK  Name = 
REMARK  6 active torsions:
REMARK  status: ('A' for Active; 'I' for Inactive)
REMARK    1  A    between atoms: C_2  and  C_3
REMARK    2  A    between atoms: C_7  and  C_8
REMARK    3  A    between atoms: C_12  and  C_13
REMARK    4  A    between atoms: C_13  and  N_14
REMARK    5  A    between atoms: N_14  and  C_15
REMARK    6  A    between atoms: C_18  and  C_19
REMARK                            x       y       z     vdW  Elec       q    Type
REMARK                         _______ _______ _______ _____ _____    ______ ____
ROOT
ATOM      1  C   UNL     1      43.906   5.058  11.411  0.00  0.00    +0.000 C 
ATOM      2  C   UNL     1      42.752   5.130  12.397  0.00  0.00    +0.000 C 
ATOM      3  C   UNL     1      43.579   3.891  12.340  0.00  0.00    +0.000 C 
ENDROOT
BRANCH   1   8
ATOM      4  C   UNL     1      46.967   6.271  13.175  0.00  0.00    +0.000 A 
ATOM      5  C   UNL     1      47.368   7.377  12.432  0.00  0.00    +0.000 A 
ATOM      6  C   UNL     1      46.648   7.726  11.298  0.00  0.00    +0.000 A 
ATOM      7  C   UNL     1      45.534   6.976  10.946  0.00  0.00    +0.000 A 
ATOM      8  C   UNL     1      45.158   5.884  11.731  0.00  0.00    +0.000 A 
ATOM      9  N   UNL     1      45.888   5.532  12.820  0.00  0.00    +0.000 NA
BRANCH   4  14
ATOM     10  C   UNL     1      47.731   4.408  16.386  0.00  0.00    +0.000 A 
ATOM     11  C   UNL     1      48.858   5.114  16.783  0.00  0.00    +0.000 A 
ATOM     12  N   UNL     1      49.398   6.127  16.072  0.00  0.00    +0.000 NA
ATOM     13  C   UNL     1      48.777   6.458  14.912  0.00  0.00    +0.000 A 
ATOM     14  C   UNL     1      47.626   5.843  14.418  0.00  0.00    +0.000 A 
ATOM     15  C   UNL     1      47.118   4.781  15.189  0.00  0.00    +0.000 A 
BRANCH  10  17
ATOM     16  N   UNL     1      46.792   2.490  17.842  0.00  0.00    +0.000 NA
ATOM     17  C   UNL     1      47.217   3.348  17.186  0.00  0.00    +0.000 C 
ENDBRANCH  10  17
ENDBRANCH   4  14
ENDBRANCH   1   8
BRANCH   1  18
ATOM     18  N   UNL     1      43.726   4.757   9.969  0.00  0.00    +0.000 N 
ATOM     19  H   UNL     1      42.747   4.697   9.689  0.00  0.00    +0.000 HD
BRANCH  18  20
ATOM     20  C   UNL     1      44.533   3.840   9.270  0.00  0.00    +0.000 A 
ATOM     21  C   UNL     1      45.491   4.317   8.365  0.00  0.00    +0.000 A 
ATOM     22  C   UNL     1      46.352   3.428   7.716  0.00  0.00    +0.000 A 
ATOM     23  C   UNL     1      46.236   2.077   8.008  0.00  0.00    +0.000 A 
ATOM     24  N   UNL     1      45.348   1.570   8.904  0.00  0.00    +0.000 NA
ATOM     25  C   UNL     1      44.546   2.471   9.516  0.00  0.00    +0.000 A 
BRANCH  23  26
ATOM     26  C   UNL     1      47.111   1.073   7.330  0.00  0.00    +0.000 C 
ATOM     27  N   UNL     1      46.860  -0.229   7.668  0.00  0.00    +0.000 N 
ATOM     28  O   UNL     1      47.982   1.384   6.527  0.00  0.00    +0.000 OA
ATOM     29  H   UNL     1      46.130  -0.433   8.340  0.00  0.00    +0.000 HD
ATOM     30  H   UNL     1      47.401  -0.975   7.251  0.00  0.00    +0.000 HD
ENDBRANCH  23  26
ENDBRANCH  18  20
ENDBRANCH   1  18
TORSDOF 6
ENDMDL
MODEL 4
REMARK VINA RESULT:    -7.323      1.237      1.998
REMARK INTER + INTRA:         -10.901
REMARK INTER:                 -10.629
REMARK INTRA:                  -0.271
REMARK UNBOUND:                -1.009
REMARK  Name = 
REMARK  6 active torsions:
REMARK  status: ('A' for Active; 'I' for Inactive)
REMARK    1  A    between atoms: C_2  and  C_3
REMARK    2  A    between atoms: C_7  and  C_8
REMARK    3  A    between atoms: C_12  and  C_13
REMARK    4  A    between atoms: C_13  and  N_14
REMARK    5  A    between atoms: N_14  and  C_15
REMARK    6  A    between atoms: C_18  and  C_19
REMARK                            x       y       z     vdW  Elec       q    Type
REMARK                         _______ _______ _______ _____ _____    ______ ____
ROOT
ATOM      1  C   UNL     1      44.212   4.437  11.654  0.00  0.00    +0.000 C 
ATOM      2  C   UNL     1      43.656   3.878  12.953  0.00  0.00    +0.000 C 
ATOM      3  C   UNL     1      45.029   3.486  12.526  0.00  0.00    +0.000 C 
ENDROOT
BRANCH   1   8
ATOM      4  C   UNL     1      46.313   7.505  11.994  0.00  0.00    +0.000 A 
ATOM      5  C   UNL     1      45.430   8.550  11.739  0.00  0.00    +0.000 A 
ATOM      6  C   UNL     1      44.114   8.255  11.409  0.00  0.00    +0.000 A 
ATOM      7  C   UNL     1      43.709   6.927  11.362  0.00  0.00    +0.000 A 
ATOM      8  C   UNL     1      44.626   5.913  11.642  0.00  0.00    +0.000 A 
ATOM      9  N   UNL     1      45.918   6.211  11.934  0.00  0.00    +0.000 NA
BRANCH   4  14
ATOM     10  C   UNL     1      50.093   7.762  11.881  0.00  0.00    +0.000 A 
ATOM     11  C   UNL     1      50.333   8.022  13.222  0.00  0.00    +0.000 A 
ATOM     12  N   UNL     1      49.358   8.145  14.149  0.00  0.00    +0.000 NA
ATOM     13  C   UNL     1      48.082   7.992  13.716  0.00  0.00    +0.000 A 
ATOM     14  C   UNL     1      47.713   7.705  12.401  0.00  0.00    +0.000 A 
ATOM     15  C   UNL     1      48.766   7.607  11.475  0.00  0.00    +0.000 A 
BRANCH  10  17
ATOM     16  N   UNL     1      52.056   7.553  10.212  0.00  0.00    +0.000 NA
ATOM     17  C   UNL     1      51.171   7.647  10.957  0.00  0.00    +0.000 C 
ENDBRANCH  10  17
ENDBRANCH   4  14
ENDBRANCH   1   8
BRANCH   1  18
ATOM     18  N   UNL     1      43.863   3.890  10.319  0.00  0.00    +0.000 N 
ATOM     19  H   UNL     1      43.078   3.239  10.341  0.00  0.00    +0.000 HD
BRANCH  18  20
ATOM     20  C   UNL     1      44.830   3.519   9.365  0.00  0.00    +0.000 A 
ATOM     21  C   UNL     1      45.059   2.160   9.109  0.00  0.00    +0.000 A 
ATOM     22  C   UNL     1      45.961   1.771   8.115  0.00  0.00    +0.000 A 
ATOM     23  C   UNL     1      46.599   2.766   7.389  0.00  0.00    +0.000 A 
ATOM     24  N   UNL     1      46.384   4.095   7.575  0.00  0.00    +0.000 NA
ATOM     25  C   UNL     1      45.493   4.421   8.539  0.00  0.00    +0.000 A 
BRANCH  23  26
ATOM     26  C   UNL     1      47.592   2.416   6.329  0.00  0.00    +0.000 C 
ATOM     27  N   UNL     1      47.394   3.042   5.127  0.00  0.00    +0.000 N 
ATOM     28  O   UNL     1      48.519   1.637   6.515  0.00  0.00    +0.000 OA
ATOM     29  H   UNL     1      46.610   3.675   5.024  0.00  0.00    +0.000 HD
ATOM     30  H   UNL     1      48.023   2.868   4.355  0.00  0.00    +0.000 HD
ENDBRANCH  23  26
ENDBRANCH  18  20
ENDBRANCH   1  18
TORSDOF 6
ENDMDL
MODEL 5
REMARK VINA RESULT:    -7.109      2.125      2.954
REMARK INTER + INTRA:         -10.613
REMARK INTER:                 -10.552
REMARK INTRA:                  -0.061
REMARK UNBOUND:                -1.009
REMARK  Name = 
REMARK  6 active torsions:
REMARK  status: ('A' for Active; 'I' for Inactive)
REMARK    1  A    between atoms: C_2  and  C_3
REMARK    2  A    between atoms: C_7  and  C_8
REMARK    3  A    between atoms: C_12  and  C_13
REMARK    4  A    between atoms: C_13  and  N_14
REMARK    5  A    between atoms: N_14  and  C_15
REMARK    6  A    between atoms: C_18  and  C_19
REMARK                            x       y       z     vdW  Elec       q    Type
REMARK                         _______ _______ _______ _____ _____    ______ ____
ROOT
ATOM      1  C   UNL     1      44.123   4.819  11.736  0.00  0.00    +0.000 C 
ATOM      2  C   UNL     1      43.427   4.229  12.951  0.00  0.00    +0.000 C 
ATOM      3  C   UNL     1      44.769   3.709  12.562  0.00  0.00    +0.000 C 
ENDROOT
BRANCH   1   8
ATOM      4  C   UNL     1      46.335   7.621  12.834  0.00  0.00    +0.000 A 
ATOM      5  C   UNL     1      45.762   8.750  12.256  0.00  0.00    +0.000 A 
ATOM      6  C   UNL     1      44.641   8.601  11.452  0.00  0.00    +0.000 A 
ATOM      7  C   UNL     1      44.108   7.333  11.261  0.00  0.00    +0.000 A 
ATOM      8  C   UNL     1      44.706   6.231  11.875  0.00  0.00    +0.000 A 
ATOM      9  N   UNL     1      45.821   6.384  12.634  0.00  0.00    +0.000 NA
BRANCH   4  14
ATOM     10  C   UNL     1      48.959   8.894  15.255  0.00  0.00    +0.000 A 
ATOM     11  C   UNL     1      49.711   7.736  15.387  0.00  0.00    +0.000 A 
ATOM     12  N   UNL     1      49.413   6.572  14.771  0.00  0.00    +0.000 NA
ATOM     13  C   UNL     1      48.314   6.567  13.975  0.00  0.00    +0.000 A 
ATOM     14  C   UNL     1      47.491   7.670  13.741  0.00  0.00    +0.000 A 
ATOM     15  C   UNL     1      47.838   8.850  14.424  0.00  0.00    +0.000 A 
BRANCH  10  17
ATOM     16  N   UNL     1      49.646  11.058  16.490  0.00  0.00    +0.000 NA
ATOM     17  C   UNL     1      49.333  10.087  15.937  0.00  0.00    +0.000 C 
ENDBRANCH  10  17
ENDBRANCH   4  14
ENDBRANCH   1   8
BRANCH   1  18
ATOM     18  N   UNL     1      43.796   4.429  10.342  0.00  0.00    +0.000 N 
ATOM     19  H   UNL     1      42.897   3.955  10.256  0.00  0.00    +0.000 HD
BRANCH  18  20
ATOM     20  C   UNL     1      44.752   3.916   9.445  0.00  0.00    +0.000 A 
ATOM     21  C   UNL     1      44.867   2.529   9.280  0.00  0.00    +0.000 A 
ATOM     22  C   UNL     1      45.756   2.001   8.341  0.00  0.00    +0.000 A 
ATOM     23  C   UNL     1      46.500   2.888   7.576  0.00  0.00    +0.000 A 
ATOM     24  N   UNL     1      46.397   4.240   7.673  0.00  0.00    +0.000 NA
ATOM     25  C   UNL     1      45.513   4.702   8.587  0.00  0.00    +0.000 A 
BRANCH  23  26
ATOM     26  C   UNL     1      47.485   2.387   6.572  0.00  0.00    +0.000 C 
ATOM     27  N   UNL     1      47.494   3.069   5.385  0.00  0.00    +0.000 N 
ATOM     28  O   UNL     1      48.237   1.444   6.789  0.00  0.00    +0.000 OA
ATOM     29  H   UNL     1      46.850   3.840   5.255  0.00  0.00    +0.000 HD
ATOM     30  H   UNL     1      48.135   2.801   4.651  0.00  0.00    +0.000 HD
ENDBRANCH  23  26
ENDBRANCH  18  20
ENDBRANCH   1  18
TORSDOF 6
ENDMDL
MODEL 6
REMARK VINA RESULT:    -6.930      3.211      7.435
REMARK INTER + INTRA:         -10.371
REMARK INTER:                  -9.765
REMARK INTRA:                  -0.605
REMARK UNBOUND:                -1.009
REMARK  Name = 
REMARK  6 active torsions:
REMARK  status: ('A' for Active; 'I' for Inactive)
REMARK    1  A    between atoms: C_2  and  C_3
REMARK    2  A    between atoms: C_7  and  C_8
REMARK    3  A    between atoms: C_12  and  C_13
REMARK    4  A    between atoms: C_13  and  N_14
REMARK    5  A    between atoms: N_14  and  C_15
REMARK    6  A    between atoms: C_18  and  C_19
REMARK                            x       y       z     vdW  Elec       q    Type
REMARK                         _______ _______ _______ _____ _____    ______ ____
ROOT
ATOM      1  C   UNL     1      48.193   8.104  12.469  0.00  0.00    +0.000 C 
ATOM      2  C   UNL     1      48.588   9.525  12.837  0.00  0.00    +0.000 C 
ATOM      3  C   UNL     1      49.076   8.948  11.552  0.00  0.00    +0.000 C 
ENDROOT
BRANCH   1   8
ATOM      4  C   UNL     1      45.193   6.453  10.979  0.00  0.00    +0.000 A 
ATOM      5  C   UNL     1      44.182   7.399  11.118  0.00  0.00    +0.000 A 
ATOM      6  C   UNL     1      44.467   8.602  11.749  0.00  0.00    +0.000 A 
ATOM      7  C   UNL     1      45.757   8.839  12.206  0.00  0.00    +0.000 A 
ATOM      8  C   UNL     1      46.743   7.868  12.029  0.00  0.00    +0.000 A 
ATOM      9  N   UNL     1      46.447   6.681  11.438  0.00  0.00    +0.000 NA
BRANCH   4  14
ATOM     10  C   UNL     1      45.470   3.685   8.405  0.00  0.00    +0.000 A 
ATOM     11  C   UNL     1      44.601   2.768   8.978  0.00  0.00    +0.000 A 
ATOM     12  N   UNL     1      43.956   2.974  10.146  0.00  0.00    +0.000 NA
ATOM     13  C   UNL     1      44.184   4.158  10.769  0.00  0.00    +0.000 A 
ATOM     14  C   UNL     1      45.015   5.169  10.284  0.00  0.00    +0.000 A 
ATOM     15  C   UNL     1      45.676   4.893   9.074  0.00  0.00    +0.000 A 
BRANCH  10  17
ATOM     16  N   UNL     1      46.654   3.166   6.166  0.00  0.00    +0.000 NA
ATOM     17  C   UNL     1      46.118   3.400   7.169  0.00  0.00    +0.000 C 
ENDBRANCH  10  17
ENDBRANCH   4  14
ENDBRANCH   1   8
BRANCH   1  18
ATOM     18  N   UNL     1      48.865   6.904  13.026  0.00  0.00    +0.000 N 
ATOM     19  H   UNL     1      49.218   6.270  12.310  0.00  0.00    +0.000 HD
BRANCH  18  20
ATOM     20  C   UNL     1      48.387   6.212  14.155  0.00  0.00    +0.000 A 
ATOM     21  C   UNL     1      47.505   5.136  13.982  0.00  0.00    +0.000 A 
ATOM     22  C   UNL     1      47.077   4.390  15.082  0.00  0.00    +0.000 A 
ATOM     23  C   UNL     1      47.564   4.737  16.334  0.00  0.00    +0.000 A 
ATOM     24  N   UNL     1      48.448   5.746  16.549  0.00  0.00    +0.000 NA
ATOM     25  C   UNL     1      48.843   6.431  15.451  0.00  0.00    +0.000 A 
BRANCH  23  26
ATOM     26  C   UNL     1      47.127   3.993  17.554  0.00  0.00    +0.000 C 
ATOM     27  N   UNL     1      47.262   4.684  18.728  0.00  0.00    +0.000 N 
ATOM     28  O   UNL     1      46.674   2.855  17.514  0.00  0.00    +0.000 OA
ATOM     29  H   UNL     1      47.646   5.621  18.707  0.00  0.00    +0.000 HD
ATOM     30  H   UNL     1      46.985   4.258  19.602  0.00  0.00    +0.000 HD
ENDBRANCH  23  26
ENDBRANCH  18  20
ENDBRANCH   1  18
TORSDOF 6
ENDMDL
MODEL 7
REMARK VINA RESULT:    -6.699      3.841      6.223
REMARK INTER + INTRA:         -10.057
REMARK INTER:                  -9.371
REMARK INTRA:                  -0.686
REMARK UNBOUND:                -1.009
REMARK  Name = 
REMARK  6 active torsions:
REMARK  status: ('A' for Active; 'I' for Inactive)
REMARK    1  A    between atoms: C_2  and  C_3
REMARK    2  A    between atoms: C_7  and  C_8
REMARK    3  A    between atoms: C_12  and  C_13
REMARK    4  A    between atoms: C_13  and  N_14
REMARK    5  A    between atoms: N_14  and  C_15
REMARK    6  A    between atoms: C_18  and  C_19
REMARK                            x       y       z     vdW  Elec       q    Type
REMARK                         _______ _______ _______ _____ _____    ______ ____
ROOT
ATOM      1  C   UNL     1      47.930   7.866  12.810  0.00  0.00    +0.000 C 
ATOM      2  C   UNL     1      48.971   7.484  11.771  0.00  0.00    +0.000 C 
ATOM      3  C   UNL     1      48.665   8.926  11.992  0.00  0.00    +0.000 C 
ENDROOT
BRANCH   1   8
ATOM      4  C   UNL     1      48.552   6.306  16.145  0.00  0.00    +0.000 A 
ATOM      5  C   UNL     1      48.911   7.377  16.958  0.00  0.00    +0.000 A 
ATOM      6  C   UNL     1      48.992   8.647  16.403  0.00  0.00    +0.000 A 
ATOM      7  C   UNL     1      48.692   8.819  15.058  0.00  0.00    +0.000 A 
ATOM      8  C   UNL     1      48.320   7.718  14.285  0.00  0.00    +0.000 A 
ATOM      9  N   UNL     1      48.274   6.474  14.830  0.00  0.00    +0.000 NA
BRANCH   4  14
ATOM     10  C   UNL     1      49.313   2.748  17.207  0.00  0.00    +0.000 A 
ATOM     11  C   UNL     1      48.024   2.331  17.509  0.00  0.00    +0.000 A 
ATOM     12  N   UNL     1      46.937   3.128  17.417  0.00  0.00    +0.000 NA
ATOM     13  C   UNL     1      47.147   4.400  16.995  0.00  0.00    +0.000 A 
ATOM     14  C   UNL     1      48.388   4.930  16.639  0.00  0.00    +0.000 A 
ATOM     15  C   UNL     1      49.487   4.063  16.773  0.00  0.00    +0.000 A 
BRANCH  10  17
ATOM     16  N   UNL     1      51.312   1.122  17.419  0.00  0.00    +0.000 NA
ATOM     17  C   UNL     1      50.415   1.853  17.329  0.00  0.00    +0.000 C 
ENDBRANCH  10  17
ENDBRANCH   4  14
ENDBRANCH   1   8
BRANCH   1  18
ATOM     18  N   UNL     1      46.469   7.807  12.556  0.00  0.00    +0.000 N 
ATOM     19  H   UNL     1      45.922   8.362  13.215  0.00  0.00    +0.000 HD
BRANCH  18  20
ATOM     20  C   UNL     1      45.801   6.626  12.180  0.00  0.00    +0.000 A 
ATOM     21  C   UNL     1      45.771   6.252  10.830  0.00  0.00    +0.000 A 
ATOM     22  C   UNL     1      45.179   5.047  10.444  0.00  0.00    +0.000 A 
ATOM     23  C   UNL     1      44.644   4.237  11.435  0.00  0.00    +0.000 A 
ATOM     24  N   UNL     1      44.681   4.538  12.760  0.00  0.00    +0.000 NA
ATOM     25  C   UNL     1      45.277   5.708  13.084  0.00  0.00    +0.000 A 
BRANCH  23  26
ATOM     26  C   UNL     1      43.976   2.947  11.086  0.00  0.00    +0.000 C 
ATOM     27  N   UNL     1      44.534   2.278  10.030  0.00  0.00    +0.000 N 
ATOM     28  O   UNL     1      43.008   2.512  11.698  0.00  0.00    +0.000 OA
ATOM     29  H   UNL     1      45.332   2.684   9.555  0.00  0.00    +0.000 HD
ATOM     30  H   UNL     1      44.148   1.393   9.729  0.00  0.00    +0.000 HD
ENDBRANCH  23  26
ENDBRANCH  18  20
ENDBRANCH   1  18
TORSDOF 6
ENDMDL
MODEL 8
REMARK VINA RESULT:    -6.627      5.531      8.595
REMARK INTER + INTRA:          -9.961
REMARK INTER:                  -9.398
REMARK INTRA:                  -0.562
REMARK UNBOUND:                -1.009
REMARK  Name = 
REMARK  6 active torsions:
REMARK  status: ('A' for Active; 'I' for Inactive)
REMARK    1  A    between atoms: C_2  and  C_3
REMARK    2  A    between atoms: C_7  and  C_8
REMARK    3  A    between atoms: C_12  and  C_13
REMARK    4  A    between atoms: C_13  and  N_14
REMARK    5  A    between atoms: N_14  and  C_15
REMARK    6  A    between atoms: C_18  and  C_19
REMARK                            x       y       z     vdW  Elec       q    Type
REMARK                         _______ _______ _______ _____ _____    ______ ____
ROOT
ATOM      1  C   UNL     1      48.560   4.898  17.335  0.00  0.00    +0.000 C 
ATOM      2  C   UNL     1      47.425   3.891  17.410  0.00  0.00    +0.000 C 
ATOM      3  C   UNL     1      47.340   5.139  18.221  0.00  0.00    +0.000 C 
ENDROOT
BRANCH   1   8
ATOM      4  C   UNL     1      47.877   6.176  13.892  0.00  0.00    +0.000 A 
ATOM      5  C   UNL     1      48.873   7.123  13.680  0.00  0.00    +0.000 A 
ATOM      6  C   UNL     1      49.780   7.389  14.696  0.00  0.00    +0.000 A 
ATOM      7  C   UNL     1      49.682   6.687  15.892  0.00  0.00    +0.000 A 
ATOM      8  C   UNL     1      48.676   5.734  16.054  0.00  0.00    +0.000 A 
ATOM      9  N   UNL     1      47.775   5.504  15.064  0.00  0.00    +0.000 NA
BRANCH   4  14
ATOM     10  C   UNL     1      45.094   4.337  12.093  0.00  0.00    +0.000 A 
ATOM     11  C   UNL     1      45.118   5.030  10.891  0.00  0.00    +0.000 A 
ATOM     12  N   UNL     1      45.950   6.063  10.637  0.00  0.00    +0.000 NA
ATOM     13  C   UNL     1      46.807   6.414  11.628  0.00  0.00    +0.000 A 
ATOM     14  C   UNL     1      46.898   5.781  12.868  0.00  0.00    +0.000 A 
ATOM     15  C   UNL     1      45.994   4.726  13.086  0.00  0.00    +0.000 A 
BRANCH  10  17
ATOM     16  N   UNL     1      43.448   2.378  12.465  0.00  0.00    +0.000 NA
ATOM     17  C   UNL     1      44.186   3.257  12.293  0.00  0.00    +0.000 C 
ENDBRANCH  10  17
ENDBRANCH   4  14
ENDBRANCH   1   8
BRANCH   1  18
ATOM     18  N   UNL     1      49.834   4.745  18.081  0.00  0.00    +0.000 N 
ATOM     19  H   UNL     1      50.335   5.625  18.209  0.00  0.00    +0.000 HD
BRANCH  18  20
ATOM     20  C   UNL     1      50.711   3.661  17.888  0.00  0.00    +0.000 A 
ATOM     21  C   UNL     1      52.019   3.737  18.384  0.00  0.00    +0.000 A 
ATOM     22  C   UNL     1      52.883   2.645  18.268  0.00  0.00    +0.000 A 
ATOM     23  C   UNL     1      52.398   1.492  17.669  0.00  0.00    +0.000 A 
ATOM     24  N   UNL     1      51.127   1.356  17.206  0.00  0.00    +0.000 NA
ATOM     25  C   UNL     1      50.326   2.436  17.352  0.00  0.00    +0.000 A 
BRANCH  23  26
ATOM     26  C   UNL     1      53.278   0.297  17.494  0.00  0.00    +0.000 C 
ATOM     27  N   UNL     1      53.088  -0.697  18.416  0.00  0.00    +0.000 N 
ATOM     28  O   UNL     1      54.102   0.203  16.593  0.00  0.00    +0.000 OA
ATOM     29  H   UNL     1      52.395  -0.569  19.144  0.00  0.00    +0.000 HD
ATOM     30  H   UNL     1      53.637  -1.545  18.368  0.00  0.00    +0.000 HD
ENDBRANCH  23  26
ENDBRANCH  18  20
ENDBRANCH   1  18
TORSDOF 6
ENDMDL
MODEL 9
REMARK VINA RESULT:    -6.578      4.531      6.586
REMARK INTER + INTRA:          -9.895
REMARK INTER:                  -9.052
REMARK INTRA:                  -0.843
REMARK UNBOUND:                -1.009
REMARK  Name = 
REMARK  6 active torsions:
REMARK  status: ('A' for Active; 'I' for Inactive)
REMARK    1  A    between atoms: C_2  and  C_3
REMARK    2  A    between atoms: C_7  and  C_8
REMARK    3  A    between atoms: C_12  and  C_13
REMARK    4  A    between atoms: C_13  and  N_14
REMARK    5  A    between atoms: N_14  and  C_15
REMARK    6  A    between atoms: C_18  and  C_19
REMARK                            x       y       z     vdW  Elec       q    Type
REMARK                         _______ _______ _______ _____ _____    ______ ____
ROOT
ATOM      1  C   UNL     1      48.134   7.554  13.750  0.00  0.00    +0.000 C 
ATOM      2  C   UNL     1      49.132   7.241  12.648  0.00  0.00    +0.000 C 
ATOM      3  C   UNL     1      48.848   8.665  12.983  0.00  0.00    +0.000 C 
ENDROOT
BRANCH   1   8
ATOM      4  C   UNL     1      49.432   5.784  16.772  0.00  0.00    +0.000 A 
ATOM      5  C   UNL     1      49.308   6.722  17.792  0.00  0.00    +0.000 A 
ATOM      6  C   UNL     1      48.821   7.987  17.490  0.00  0.00    +0.000 A 
ATOM      7  C   UNL     1      48.451   8.276  16.183  0.00  0.00    +0.000 A 
ATOM      8  C   UNL     1      48.577   7.298  15.195  0.00  0.00    +0.000 A 
ATOM      9  N   UNL     1      49.084   6.074  15.495  0.00  0.00    +0.000 NA
BRANCH   4  14
ATOM     10  C   UNL     1      51.572   2.810  17.740  0.00  0.00    +0.000 A 
ATOM     11  C   UNL     1      50.732   1.791  17.316  0.00  0.00    +0.000 A 
ATOM     12  N   UNL     1      49.517   2.000  16.766  0.00  0.00    +0.000 NA
ATOM     13  C   UNL     1      49.125   3.292  16.624  0.00  0.00    +0.000 A 
ATOM     14  C   UNL     1      49.887   4.403  16.988  0.00  0.00    +0.000 A 
ATOM     15  C   UNL     1      51.135   4.125  17.574  0.00  0.00    +0.000 A 
BRANCH  10  17
ATOM     16  N   UNL     1      53.874   2.280  18.791  0.00  0.00    +0.000 NA
ATOM     17  C   UNL     1      52.842   2.516  18.315  0.00  0.00    +0.000 C 
ENDBRANCH  10  17
ENDBRANCH   4  14
ENDBRANCH   1   8
BRANCH   1  18
ATOM     18  N   UNL     1      46.664   7.523  13.548  0.00  0.00    +0.000 N 
ATOM     19  H   UNL     1      46.140   7.909  14.334  0.00  0.00    +0.000 HD
BRANCH  18  20
ATOM     20  C   UNL     1      45.994   6.439  12.949  0.00  0.00    +0.000 A 
ATOM     21  C   UNL     1      45.602   6.529  11.607  0.00  0.00    +0.000 A 
ATOM     22  C   UNL     1      45.002   5.439  10.972  0.00  0.00    +0.000 A 
ATOM     23  C   UNL     1      44.827   4.273  11.704  0.00  0.00    +0.000 A 
ATOM     24  N   UNL     1      45.224   4.125  12.995  0.00  0.00    +0.000 NA
ATOM     25  C   UNL     1      45.812   5.204  13.561  0.00  0.00    +0.000 A 
BRANCH  23  26
ATOM     26  C   UNL     1      44.171   3.080  11.090  0.00  0.00    +0.000 C 
ATOM     27  N   UNL     1      44.933   2.417  10.165  0.00  0.00    +0.000 N 
ATOM     28  O   UNL     1      43.043   2.712  11.391  0.00  0.00    +0.000 OA
ATOM     29  H   UNL     1      45.860   2.765   9.949  0.00  0.00    +0.000 HD
ATOM     30  H   UNL     1      44.569   1.594   9.704  0.00  0.00    +0.000 HD
ENDBRANCH  23  26
ENDBRANCH  18  20
ENDBRANCH   1  18
TORSDOF 6
ENDMDL
