MODEL 1
REMARK VINA RESULT:    -8.102      0.000      0.000
REMARK INTER + INTRA:         -10.410
REMARK INTER:                  -9.996
REMARK INTRA:                  -0.413
REMARK UNBOUND:                -0.413
REMARK  Name = 
REMARK  4 active torsions:
REMARK  status: ('A' for Active; 'I' for Inactive)
REMARK    1  A    between atoms: C_2  and  C_4
REMARK    2  A    between atoms: C_7  and  O_8
REMARK    3  A    between atoms: O_8  and  C_9
REMARK    4  A    between atoms: C_9  and  C_10
REMARK                            x       y       z     vdW  Elec       q    Type
REMARK                         _______ _______ _______ _____ _____    ______ ____
ROOT
ATOM      1  C   UNL     1      46.438   2.655   7.516  0.00  0.00    +0.000 A 
ATOM      2  C   UNL     1      45.880   1.698   8.361  0.00  0.00    +0.000 A 
ATOM      3  C   UNL     1      44.894   2.088   9.262  0.00  0.00    +0.000 A 
ATOM      4  C   UNL     1      44.489   3.417   9.282  0.00  0.00    +0.000 A 
ATOM      5  N   UNL     1      45.004   4.375   8.484  0.00  0.00    +0.000 NA
ATOM      6  C   UNL     1      45.980   3.969   7.627  0.00  0.00    +0.000 A 
ENDROOT
BRANCH   1   8
ATOM      7  N   UNL     1      47.598   3.079   5.416  0.00  0.00    +0.000 N 
ATOM      8  C   UNL     1      47.521   2.334   6.561  0.00  0.00    +0.000 C 
ATOM      9  O   UNL     1      48.327   1.445   6.791  0.00  0.00    +0.000 OA
ATOM     10  H   UNL     1      48.380   2.888   4.799  0.00  0.00    +0.000 HD
ATOM     11  H   UNL     1      47.103   3.950   5.280  0.00  0.00    +0.000 HD
ENDBRANCH   1   8
BRANCH   4  12
ATOM     12  O   UNL     1      43.540   3.719  10.241  0.00  0.00    +0.000 OA
BRANCH  12  13
ATOM     13  C   UNL     1      43.806   4.787  11.176  0.00  0.00    +0.000 C 
ATOM     14  C   UNL     1      42.492   5.238  11.816  0.00  0.00    +0.000 C 
ATOM     15  C   UNL     1      43.257   6.184  10.957  0.00  0.00    +0.000 C 
BRANCH  13  16
ATOM     16  C   UNL     1      45.018   4.616  12.059  0.00  0.00    +0.000 A 
ATOM     17  C   UNL     1      45.882   5.650  12.378  0.00  0.00    +0.000 A 
ATOM     18  N   UNL     1      46.951   5.543  13.201  0.00  0.00    +0.000 NA
ATOM     19  C   UNL     1      47.165   4.325  13.717  0.00  0.00    +0.000 A 
ATOM     20  N   UNL     1      46.428   3.232  13.480  0.00  0.00    +0.000 NA
ATOM     21  C   UNL     1      45.377   3.412  12.648  0.00  0.00    +0.000 A 
ENDBRANCH  13  16
ENDBRANCH  12  13
ENDBRANCH   4  12
TORSDOF 4
ENDMDL
MODEL 2
REMARK VINA RESULT:    -7.132      1.129      1.639
REMARK INTER + INTRA:          -9.213
REMARK INTER:                  -9.939
REMARK INTRA:                   0.726
REMARK UNBOUND:                -0.413
REMARK  Name = 
REMARK  4 active torsions:
REMARK  status: ('A' for Active; 'I' for Inactive)
REMARK    1  A    between atoms: C_2  and  C_4
REMARK    2  A    between atoms: C_7  and  O_8
REMARK    3  A    between atoms: O_8  and  C_9
REMARK    4  A    between atoms: C_9  and  C_10
REMARK                            x       y       z     vdW  Elec       q    Type
REMARK                         _______ _______ _______ _____ _____    ______ ____
ROOT
ATOM      1  C   UNL     1      46.334   2.344   7.885  0.00  0.00    +0.000 A 
ATOM      2  C   UNL     1      45.399   1.798   8.762  0.00  0.00    +0.000 A 
ATOM      3  C   UNL     1      44.536   2.651   9.442  0.00  0.00    +0.000 A 
ATOM      4  C   UNL     1      44.624   4.020   9.216  0.00  0.00    +0.000 A 
ATOM      5  N   UNL     1      45.515   4.589   8.377  0.00  0.00    +0.000 NA
ATOM      6  C   UNL     1      46.360   3.732   7.742  0.00  0.00    +0.000 A 
ENDROOT
BRANCH   1   8
ATOM      7  N   UNL     1      48.367   2.152   6.555  0.00  0.00    +0.000 N 
ATOM      8  C   UNL     1      47.318   1.513   7.157  0.00  0.00    +0.000 C 
ATOM      9  O   UNL     1      47.207   0.297   7.107  0.00  0.00    +0.000 OA
ATOM     10  H   UNL     1      49.065   1.566   6.111  0.00  0.00    +0.000 HD
ATOM     11  H   UNL     1      48.621   3.112   6.746  0.00  0.00    +0.000 HD
ENDBRANCH   1   8
BRANCH   4  12
ATOM     12  O   UNL     1      43.758   4.789   9.970  0.00  0.00    +0.000 OA
BRANCH  12  13
ATOM     13  C   UNL     1      43.943   4.849  11.401  0.00  0.00    +0.000 C 
ATOM     14  C   UNL     1      43.312   3.612  12.043  0.00  0.00    +0.000 C 
ATOM     15  C   UNL     1      42.761   4.963  12.346  0.00  0.00    +0.000 C 
BRANCH  13  16
ATOM     16  C   UNL     1      45.300   5.299  11.882  0.00  0.00    +0.000 A 
ATOM     17  C   UNL     1      46.029   4.625  12.849  0.00  0.00    +0.000 A 
ATOM     18  N   UNL     1      47.266   4.973  13.272  0.00  0.00    +0.000 NA
ATOM     19  C   UNL     1      47.788   6.067  12.698  0.00  0.00    +0.000 A 
ATOM     20  N   UNL     1      47.191   6.827  11.771  0.00  0.00    +0.000 NA
ATOM     21  C   UNL     1      45.957   6.420  11.397  0.00  0.00    +0.000 A 
ENDBRANCH  13  16
ENDBRANCH  12  13
ENDBRANCH   4  12
TORSDOF 4
ENDMDL
MODEL 3
REMARK VINA RESULT:    -5.819      2.783      5.937
REMARK INTER + INTRA:          -7.592
REMARK INTER:                  -7.506
REMARK INTRA:                  -0.086
REMARK UNBOUND:                -0.413
REMARK  Name = 
REMARK  4 active torsions:
REMARK  status: ('A' for Active; 'I' for Inactive)
REMARK    1  A    between atoms: C_2  and  C_4
REMARK    2  A    between atoms: C_7  and  O_8
REMARK    3  A    between atoms: O_8  and  C_9
REMARK    4  A    between atoms: C_9  and  C_10
REMARK                            x       y       z     vdW  Elec       q    Type
REMARK                         _______ _______ _______ _____ _____    ______ ____
ROOT
ATOM      1  C   UNL     1      48.159   6.751  13.765  0.00  0.00    +0.000 A 
ATOM      2  C   UNL     1      47.828   7.697  12.797  0.00  0.00    +0.000 A 
ATOM      3  C   UNL     1      46.657   7.529  12.063  0.00  0.00    +0.000 A 
ATOM      4  C   UNL     1      45.849   6.430  12.328  0.00  0.00    +0.000 A 
ATOM      5  N   UNL     1      46.133   5.491  13.255  0.00  0.00    +0.000 NA
ATOM      6  C   UNL     1      47.293   5.671  13.942  0.00  0.00    +0.000 A 
ENDROOT
BRANCH   1   8
ATOM      7  N   UNL     1      50.438   7.566  14.042  0.00  0.00    +0.000 N 
ATOM      8  C   UNL     1      49.406   6.831  14.557  0.00  0.00    +0.000 C 
ATOM      9  O   UNL     1      49.506   6.272  15.639  0.00  0.00    +0.000 OA
ATOM     10  H   UNL     1      51.264   7.662  14.621  0.00  0.00    +0.000 HD
ATOM     11  H   UNL     1      50.334   8.214  13.272  0.00  0.00    +0.000 HD
ENDBRANCH   1   8
BRANCH   4  12
ATOM     12  O   UNL     1      44.733   6.323  11.519  0.00  0.00    +0.000 OA
BRANCH  12  13
ATOM     13  C   UNL     1      44.168   5.016  11.279  0.00  0.00    +0.000 C 
ATOM     14  C   UNL     1      42.646   5.090  11.421  0.00  0.00    +0.000 C 
ATOM     15  C   UNL     1      43.437   4.258  12.371  0.00  0.00    +0.000 C 
BRANCH  13  16
ATOM     16  C   UNL     1      44.747   4.239  10.123  0.00  0.00    +0.000 A 
ATOM     17  C   UNL     1      45.359   4.836   9.033  0.00  0.00    +0.000 A 
ATOM     18  N   UNL     1      45.929   4.171   8.001  0.00  0.00    +0.000 NA
ATOM     19  C   UNL     1      45.864   2.834   8.067  0.00  0.00    +0.000 A 
ATOM     20  N   UNL     1      45.285   2.124   9.045  0.00  0.00    +0.000 NA
ATOM     21  C   UNL     1      44.736   2.854  10.042  0.00  0.00    +0.000 A 
ENDBRANCH  13  16
ENDBRANCH  12  13
ENDBRANCH   4  12
TORSDOF 4
ENDMDL
MODEL 4
REMARK VINA RESULT:    -5.757      2.766      6.182
REMARK INTER + INTRA:          -7.517
REMARK INTER:                  -7.706
REMARK INTRA:                   0.190
REMARK UNBOUND:                -0.413
REMARK  Name = 
REMARK  4 active torsions:
REMARK  status: ('A' for Active; 'I' for Inactive)
REMARK    1  A    between atoms: C_2  and  C_4
REMARK    2  A    between atoms: C_7  and  O_8
REMARK    3  A    between atoms: O_8  and  C_9
REMARK    4  A    between atoms: C_9  and  C_10
REMARK                            x       y       z     vdW  Elec       q    Type
REMARK                         _______ _______ _______ _____ _____    ______ ____
ROOT
ATOM      1  C   UNL     1      46.567   8.115  12.903  0.00  0.00    +0.000 A 
ATOM      2  C   UNL     1      45.315   8.502  12.431  0.00  0.00    +0.000 A 
ATOM      3  C   UNL     1      44.548   7.583  11.723  0.00  0.00    +0.000 A 
ATOM      4  C   UNL     1      45.051   6.303  11.518  0.00  0.00    +0.000 A 
ATOM      5  N   UNL     1      46.258   5.888  11.956  0.00  0.00    +0.000 NA
ATOM      6  C   UNL     1      46.993   6.815  12.628  0.00  0.00    +0.000 A 
ENDROOT
BRANCH   1   8
ATOM      7  N   UNL     1      47.522   8.937  14.988  0.00  0.00    +0.000 N 
ATOM      8  C   UNL     1      47.464   9.044  13.626  0.00  0.00    +0.000 C 
ATOM      9  O   UNL     1      48.139   9.868  13.028  0.00  0.00    +0.000 OA
ATOM     10  H   UNL     1      48.184   9.538  15.466  0.00  0.00    +0.000 HD
ATOM     11  H   UNL     1      47.160   8.146  15.504  0.00  0.00    +0.000 HD
ENDBRANCH   1   8
BRANCH   4  12
ATOM     12  O   UNL     1      44.239   5.475  10.765  0.00  0.00    +0.000 OA
BRANCH  12  13
ATOM     13  C   UNL     1      44.526   4.060  10.730  0.00  0.00    +0.000 C 
ATOM     14  C   UNL     1      43.333   3.289  11.299  0.00  0.00    +0.000 C 
ATOM     15  C   UNL     1      44.645   3.246  12.005  0.00  0.00    +0.000 C 
BRANCH  13  16
ATOM     16  C   UNL     1      45.187   3.543   9.477  0.00  0.00    +0.000 A 
ATOM     17  C   UNL     1      45.636   4.365   8.456  0.00  0.00    +0.000 A 
ATOM     18  N   UNL     1      46.273   3.940   7.340  0.00  0.00    +0.000 NA
ATOM     19  C   UNL     1      46.452   2.615   7.243  0.00  0.00    +0.000 A 
ATOM     20  N   UNL     1      46.051   1.703   8.138  0.00  0.00    +0.000 NA
ATOM     21  C   UNL     1      45.422   2.199   9.228  0.00  0.00    +0.000 A 
ENDBRANCH  13  16
ENDBRANCH  12  13
ENDBRANCH   4  12
TORSDOF 4
ENDMDL
MODEL 5
REMARK VINA RESULT:    -5.742      4.297      7.949
REMARK INTER + INTRA:          -7.498
REMARK INTER:                  -7.171
REMARK INTRA:                  -0.327
REMARK UNBOUND:                -0.413
REMARK  Name = 
REMARK  4 active torsions:
REMARK  status: ('A' for Active; 'I' for Inactive)
REMARK    1  A    between atoms: C_2  and  C_4
REMARK    2  A    between atoms: C_7  and  O_8
REMARK    3  A    between atoms: O_8  and  C_9
REMARK    4  A    between atoms: C_9  and  C_10
REMARK                            x       y       z     vdW  Elec       q    Type
REMARK                         _______ _______ _______ _____ _____    ______ ____
ROOT
ATOM      1  C   UNL     1      48.059   4.970  17.853  0.00  0.00    +0.000 A 
ATOM      2  C   UNL     1      47.251   4.078  17.151  0.00  0.00    +0.000 A 
ATOM      3  C   UNL     1      47.212   4.153  15.762  0.00  0.00    +0.000 A 
ATOM      4  C   UNL     1      47.991   5.107  15.118  0.00  0.00    +0.000 A 
ATOM      5  N   UNL     1      48.785   5.990  15.759  0.00  0.00    +0.000 NA
ATOM      6  C   UNL     1      48.787   5.906  17.117  0.00  0.00    +0.000 A 
ENDROOT
BRANCH   1   8
ATOM      7  N   UNL     1      48.520   3.841  19.961  0.00  0.00    +0.000 N 
ATOM      8  C   UNL     1      48.123   4.988  19.331  0.00  0.00    +0.000 C 
ATOM      9  O   UNL     1      47.845   5.994  19.966  0.00  0.00    +0.000 OA
ATOM     10  H   UNL     1      48.617   3.884  20.970  0.00  0.00    +0.000 HD
ATOM     11  H   UNL     1      48.962   3.065  19.487  0.00  0.00    +0.000 HD
ENDBRANCH   1   8
BRANCH   4  12
ATOM     12  O   UNL     1      47.853   5.136  13.743  0.00  0.00    +0.000 OA
BRANCH  12  13
ATOM     13  C   UNL     1      46.775   5.904  13.166  0.00  0.00    +0.000 C 
ATOM     14  C   UNL     1      47.332   6.805  12.061  0.00  0.00    +0.000 C 
ATOM     15  C   UNL     1      46.732   7.416  13.281  0.00  0.00    +0.000 C 
BRANCH  13  16
ATOM     16  C   UNL     1      45.487   5.161  12.910  0.00  0.00    +0.000 A 
ATOM     17  C   UNL     1      45.433   3.808  12.614  0.00  0.00    +0.000 A 
ATOM     18  N   UNL     1      44.295   3.101  12.423  0.00  0.00    +0.000 NA
ATOM     19  C   UNL     1      43.154   3.798  12.521  0.00  0.00    +0.000 A 
ATOM     20  N   UNL     1      43.058   5.110  12.777  0.00  0.00    +0.000 NA
ATOM     21  C   UNL     1      44.233   5.753  12.957  0.00  0.00    +0.000 A 
ENDBRANCH  13  16
ENDBRANCH  12  13
ENDBRANCH   4  12
TORSDOF 4
ENDMDL
MODEL 6
REMARK VINA RESULT:    -5.589      3.248      6.955
REMARK INTER + INTRA:          -7.309
REMARK INTER:                  -7.177
REMARK INTRA:                  -0.132
REMARK UNBOUND:                -0.413
REMARK  Name = 
REMARK  4 active torsions:
REMARK  status: ('A' for Active; 'I' for Inactive)
REMARK    1  A    between atoms: C_2  and  C_4
REMARK    2  A    between atoms: C_7  and  O_8
REMARK    3  A    between atoms: O_8  and  C_9
REMARK    4  A    between atoms: C_9  and  C_10
REMARK                            x       y       z     vdW  Elec       q    Type
REMARK                         _______ _______ _______ _____ _____    ______ ____
ROOT
ATOM      1  C   UNL     1      47.941   4.698  16.198  0.00  0.00    +0.000 A 
ATOM      2  C   UNL     1      48.309   5.941  15.686  0.00  0.00    +0.000 A 
ATOM      3  C   UNL     1      47.942   6.268  14.384  0.00  0.00    +0.000 A 
ATOM      4  C   UNL     1      47.210   5.350  13.640  0.00  0.00    +0.000 A 
ATOM      5  N   UNL     1      46.835   4.137  14.097  0.00  0.00    +0.000 NA
ATOM      6  C   UNL     1      47.225   3.837  15.366  0.00  0.00    +0.000 A 
ENDROOT
BRANCH   1   8
ATOM      7  N   UNL     1      47.449   3.458  18.237  0.00  0.00    +0.000 N 
ATOM      8  C   UNL     1      48.329   4.254  17.555  0.00  0.00    +0.000 C 
ATOM      9  O   UNL     1      49.401   4.574  18.045  0.00  0.00    +0.000 OA
ATOM     10  H   UNL     1      47.752   3.113  19.140  0.00  0.00    +0.000 HD
ATOM     11  H   UNL     1      46.663   2.994  17.804  0.00  0.00    +0.000 HD
ENDBRANCH   1   8
BRANCH   4  12
ATOM     12  O   UNL     1      46.932   5.744  12.345  0.00  0.00    +0.000 OA
BRANCH  12  13
ATOM     13  C   UNL     1      45.562   5.723  11.887  0.00  0.00    +0.000 C 
ATOM     14  C   UNL     1      45.006   7.148  11.895  0.00  0.00    +0.000 C 
ATOM     15  C   UNL     1      44.418   6.120  12.799  0.00  0.00    +0.000 C 
BRANCH  13  16
ATOM     16  C   UNL     1      45.268   4.840  10.698  0.00  0.00    +0.000 A 
ATOM     17  C   UNL     1      44.570   3.648  10.789  0.00  0.00    +0.000 A 
ATOM     18  N   UNL     1      44.250   2.854   9.740  0.00  0.00    +0.000 NA
ATOM     19  C   UNL     1      44.670   3.281   8.541  0.00  0.00    +0.000 A 
ATOM     20  N   UNL     1      45.372   4.398   8.308  0.00  0.00    +0.000 NA
ATOM     21  C   UNL     1      45.656   5.141   9.401  0.00  0.00    +0.000 A 
ENDBRANCH  13  16
ENDBRANCH  12  13
ENDBRANCH   4  12
TORSDOF 4
ENDMDL
MODEL 7
REMARK VINA RESULT:    -5.410      1.775      2.300
REMARK INTER + INTRA:          -7.088
REMARK INTER:                  -7.332
REMARK INTRA:                   0.244
REMARK UNBOUND:                -0.413
REMARK  Name = 
REMARK  4 active torsions:
REMARK  status: ('A' for Active; 'I' for Inactive)
REMARK    1  A    between atoms: C_2  and  C_4
REMARK    2  A    between atoms: C_7  and  O_8
REMARK    3  A    between atoms: O_8  and  C_9
REMARK    4  A    between atoms: C_9  and  C_10
REMARK                            x       y       z     vdW  Elec       q    Type
REMARK                         _______ _______ _______ _____ _____    ______ ____
ROOT
ATOM      1  C   UNL     1      46.674   2.631   7.373  0.00  0.00    +0.000 A 
ATOM      2  C   UNL     1      45.566   2.397   8.184  0.00  0.00    +0.000 A 
ATOM      3  C   UNL     1      45.007   3.460   8.885  0.00  0.00    +0.000 A 
ATOM      4  C   UNL     1      45.564   4.726   8.745  0.00  0.00    +0.000 A 
ATOM      5  N   UNL     1      46.637   4.996   7.972  0.00  0.00    +0.000 NA
ATOM      6  C   UNL     1      47.174   3.933   7.314  0.00  0.00    +0.000 A 
ENDROOT
BRANCH   1   8
ATOM      7  N   UNL     1      48.339   1.906   5.748  0.00  0.00    +0.000 N 
ATOM      8  C   UNL     1      47.355   1.549   6.629  0.00  0.00    +0.000 C 
ATOM      9  O   UNL     1      47.060   0.376   6.804  0.00  0.00    +0.000 OA
ATOM     10  H   UNL     1      48.837   1.152   5.290  0.00  0.00    +0.000 HD
ATOM     11  H   UNL     1      48.764   2.823   5.726  0.00  0.00    +0.000 HD
ENDBRANCH   1   8
BRANCH   4  12
ATOM     12  O   UNL     1      44.972   5.709   9.515  0.00  0.00    +0.000 OA
BRANCH  12  13
ATOM     13  C   UNL     1      45.353   5.835  10.902  0.00  0.00    +0.000 C 
ATOM     14  C   UNL     1      45.604   7.309  11.225  0.00  0.00    +0.000 C 
ATOM     15  C   UNL     1      46.728   6.335  11.301  0.00  0.00    +0.000 C 
BRANCH  13  16
ATOM     16  C   UNL     1      44.571   5.002  11.888  0.00  0.00    +0.000 A 
ATOM     17  C   UNL     1      43.551   5.511  12.675  0.00  0.00    +0.000 A 
ATOM     18  N   UNL     1      42.799   4.786  13.536  0.00  0.00    +0.000 NA
ATOM     19  C   UNL     1      43.104   3.483  13.616  0.00  0.00    +0.000 A 
ATOM     20  N   UNL     1      44.076   2.862  12.935  0.00  0.00    +0.000 NA
ATOM     21  C   UNL     1      44.786   3.648  12.094  0.00  0.00    +0.000 A 
ENDBRANCH  13  16
ENDBRANCH  12  13
ENDBRANCH   4  12
TORSDOF 4
ENDMDL
MODEL 8
REMARK VINA RESULT:    -5.290      3.275      5.401
REMARK INTER + INTRA:          -6.941
REMARK INTER:                  -6.689
REMARK INTRA:                  -0.252
REMARK UNBOUND:                -0.413
REMARK  Name = 
REMARK  4 active torsions:
REMARK  status: ('A' for Active; 'I' for Inactive)
REMARK    1  A    between atoms: C_2  and  C_4
REMARK    2  A    between atoms: C_7  and  O_8
REMARK    3  A    between atoms: O_8  and  C_9
REMARK    4  A    between atoms: C_9  and  C_10
REMARK                            x       y       z     vdW  Elec       q    Type
REMARK                         _______ _______ _______ _____ _____    ______ ____
ROOT
ATOM      1  C   UNL     1      44.642   4.156  11.482  0.00  0.00    +0.000 A 
ATOM      2  C   UNL     1      44.813   5.224  10.603  0.00  0.00    +0.000 A 
ATOM      3  C   UNL     1      45.381   6.402  11.077  0.00  0.00    +0.000 A 
ATOM      4  C   UNL     1      45.772   6.473  12.409  0.00  0.00    +0.000 A 
ATOM      5  N   UNL     1      45.623   5.464  13.293  0.00  0.00    +0.000 NA
ATOM      6  C   UNL     1      45.047   4.332  12.806  0.00  0.00    +0.000 A 
ENDROOT
BRANCH   1   8
ATOM      7  N   UNL     1      44.563   2.209  10.021  0.00  0.00    +0.000 N 
ATOM      8  C   UNL     1      44.006   2.885  11.071  0.00  0.00    +0.000 C 
ATOM      9  O   UNL     1      43.027   2.447  11.657  0.00  0.00    +0.000 OA
ATOM     10  H   UNL     1      44.154   1.311   9.788  0.00  0.00    +0.000 HD
ATOM     11  H   UNL     1      45.481   2.410   9.649  0.00  0.00    +0.000 HD
ENDBRANCH   1   8
BRANCH   4  12
ATOM     12  O   UNL     1      46.283   7.697  12.799  0.00  0.00    +0.000 OA
BRANCH  12  13
ATOM     13  C   UNL     1      47.715   7.860  12.888  0.00  0.00    +0.000 C 
ATOM     14  C   UNL     1      48.141   9.055  12.033  0.00  0.00    +0.000 C 
ATOM     15  C   UNL     1      48.607   7.686  11.673  0.00  0.00    +0.000 C 
BRANCH  13  16
ATOM     16  C   UNL     1      48.322   7.702  14.260  0.00  0.00    +0.000 A 
ATOM     17  C   UNL     1      48.956   6.546  14.685  0.00  0.00    +0.000 A 
ATOM     18  N   UNL     1      49.550   6.384  15.891  0.00  0.00    +0.000 NA
ATOM     19  C   UNL     1      49.487   7.440  16.714  0.00  0.00    +0.000 A 
ATOM     20  N   UNL     1      48.888   8.608  16.446  0.00  0.00    +0.000 NA
ATOM     21  C   UNL     1      48.316   8.698  15.225  0.00  0.00    +0.000 A 
ENDBRANCH  13  16
ENDBRANCH  12  13
ENDBRANCH   4  12
TORSDOF 4
ENDMDL
