MODEL 1
REMARK VINA RESULT:    -8.867      0.000      0.000
REMARK INTER + INTRA:         -13.350
REMARK INTER:                 -12.496
REMARK INTRA:                  -0.854
REMARK UNBOUND:                -0.854
REMARK  Name = 
REMARK  7 active torsions:
REMARK  status: ('A' for Active; 'I' for Inactive)
REMARK    1  A    between atoms: C_2  and  C_20
REMARK    2  A    between atoms: N_3  and  C_4
REMARK    3  A    between atoms: C_4  and  C_5
REMARK    4  A    between atoms: C_8  and  C_9
REMARK    5  A    between atoms: C_9  and  N_10
REMARK    6  A    between atoms: N_10  and  C_11
REMARK    7  A    between atoms: C_11  and  C_12
REMARK                            x       y       z     vdW  Elec       q    Type
REMARK                         _______ _______ _______ _____ _____    ______ ____
ROOT
ATOM      1  C   UNL     1      45.948   4.400  14.789  0.00  0.00    +0.000 C 
ENDROOT
BRANCH   1   2
ATOM      2  C   UNL     1      46.077   4.887  13.333  0.00  0.00    +0.000 C 
ATOM      3  C   UNL     1      45.950   3.748  12.305  0.00  0.00    +0.000 C 
ATOM      4  C   UNL     1      44.524   3.220  12.150  0.00  0.00    +0.000 C 
ATOM      5  C   UNL     1      43.485   4.328  11.881  0.00  0.00    +0.000 C 
ATOM      6  C   UNL     1      43.621   5.451  12.921  0.00  0.00    +0.000 C 
ATOM      7  C   UNL     1      45.046   5.988  13.044  0.00  0.00    +0.000 C 
BRANCH   5   8
ATOM      8  C   UNL     1      43.538   4.876  10.435  0.00  0.00    +0.000 C 
BRANCH   8   9
ATOM      9  N   UNL     1      43.974   3.813   9.533  0.00  0.00    +0.000 NA
ATOM     10  H   UNL     1      43.164   3.390   9.080  0.00  0.00    +0.000 HD
BRANCH   9  11
ATOM     11  C   UNL     1      44.907   4.268   8.506  0.00  0.00    +0.000 C 
BRANCH  11  12
ATOM     12  C   UNL     1      45.737   3.105   8.026  0.00  0.00    +0.000 A 
ATOM     13  C   UNL     1      46.717   3.275   7.040  0.00  0.00    +0.000 A 
ATOM     14  C   UNL     1      47.501   2.195   6.647  0.00  0.00    +0.000 A 
ATOM     15  C   UNL     1      47.273   0.969   7.247  0.00  0.00    +0.000 A 
ATOM     16  N   UNL     1      46.329   0.758   8.190  0.00  0.00    +0.000 NA
ATOM     17  C   UNL     1      45.585   1.829   8.557  0.00  0.00    +0.000 A 
ENDBRANCH  11  12
ENDBRANCH   9  11
ENDBRANCH   8   9
ENDBRANCH   5   8
ENDBRANCH   1   2
BRANCH   1  20
ATOM     18  O   UNL     1      46.565   3.284  17.323  0.00  0.00    +0.000 OA
ATOM     19  C   UNL     1      47.406   3.973  16.749  0.00  0.00    +0.000 C 
ATOM     20  N   UNL     1      47.175   4.556  15.531  0.00  0.00    +0.000 N 
ATOM     21  H   UNL     1      47.922   5.065  15.070  0.00  0.00    +0.000 HD
BRANCH  19  22
ATOM     22  C   UNL     1      48.713   4.256  17.356  0.00  0.00    +0.000 A 
ATOM     23  C   UNL     1      48.919   5.455  18.024  0.00  0.00    +0.000 A 
ATOM     24  S   UNL     1      50.496   5.622  18.653  0.00  0.00    +0.000 S 
ATOM     25  C   UNL     1      50.946   4.079  18.090  0.00  0.00    +0.000 A 
ATOM     26  N   UNL     1      52.190   3.581  18.329  0.00  0.00    +0.000 NA
ATOM     27  C   UNL     1      52.383   2.387  17.878  0.00  0.00    +0.000 A 
ATOM     28  N   UNL     1      51.448   1.648  17.203  0.00  0.00    +0.000 N 
ATOM     29  C   UNL     1      50.204   2.133  16.881  0.00  0.00    +0.000 A 
ATOM     30  O   UNL     1      49.442   1.485  16.171  0.00  0.00    +0.000 OA
ATOM     31  C   UNL     1      49.916   3.458  17.406  0.00  0.00    +0.000 A 
ATOM     32  H   UNL     1      51.673   0.729  16.850  0.00  0.00    +0.000 HD
ENDBRANCH  19  22
ENDBRANCH   1  20
TORSDOF 7
ENDMDL
MODEL 2
REMARK VINA RESULT:    -8.822      2.030      2.752
REMARK INTER + INTRA:         -13.286
REMARK INTER:                 -11.991
REMARK INTRA:                  -1.294
REMARK UNBOUND:                -0.854
REMARK  Name = 
REMARK  7 active torsions:
REMARK  status: ('A' for Active; 'I' for Inactive)
REMARK    1  A    between atoms: C_2  and  C_20
REMARK    2  A    between atoms: N_3  and  C_4
REMARK    3  A    between atoms: C_4  and  C_5
REMARK    4  A    between atoms: C_8  and  C_9
REMARK    5  A    between atoms: C_9  and  N_10
REMARK    6  A    between atoms: N_10  and  C_11
REMARK    7  A    between atoms: C_11  and  C_12
REMARK                            x       y       z     vdW  Elec       q    Type
REMARK                         _______ _______ _______ _____ _____    ______ ____
ROOT
ATOM      1  C   UNL     1      46.628   7.542  12.822  0.00  0.00    +0.000 C 
ENDROOT
BRANCH   1   2
ATOM      2  C   UNL     1      45.200   7.033  12.553  0.00  0.00    +0.000 C 
ATOM      3  C   UNL     1      44.831   7.041  11.058  0.00  0.00    +0.000 C 
ATOM      4  C   UNL     1      45.524   5.943  10.252  0.00  0.00    +0.000 C 
ATOM      5  C   UNL     1      45.353   4.536  10.858  0.00  0.00    +0.000 C 
ATOM      6  C   UNL     1      45.733   4.545  12.347  0.00  0.00    +0.000 C 
ATOM      7  C   UNL     1      45.010   5.629  13.145  0.00  0.00    +0.000 C 
BRANCH   5   8
ATOM      8  C   UNL     1      43.942   3.940  10.630  0.00  0.00    +0.000 C 
BRANCH   8   9
ATOM      9  N   UNL     1      43.930   3.201   9.370  0.00  0.00    +0.000 NA
ATOM     10  H   UNL     1      44.187   3.821   8.602  0.00  0.00    +0.000 HD
BRANCH   9  11
ATOM     11  C   UNL     1      44.823   2.046   9.365  0.00  0.00    +0.000 C 
BRANCH  11  12
ATOM     12  C   UNL     1      45.768   2.141   8.195  0.00  0.00    +0.000 A 
ATOM     13  C   UNL     1      45.862   3.314   7.436  0.00  0.00    +0.000 A 
ATOM     14  C   UNL     1      46.775   3.392   6.390  0.00  0.00    +0.000 A 
ATOM     15  C   UNL     1      47.564   2.286   6.126  0.00  0.00    +0.000 A 
ATOM     16  N   UNL     1      47.494   1.130   6.823  0.00  0.00    +0.000 NA
ATOM     17  C   UNL     1      46.600   1.086   7.839  0.00  0.00    +0.000 A 
ENDBRANCH  11  12
ENDBRANCH   9  11
ENDBRANCH   8   9
ENDBRANCH   5   8
ENDBRANCH   1   2
BRANCH   1  20
ATOM     18  O   UNL     1      49.063   6.239  13.471  0.00  0.00    +0.000 OA
ATOM     19  C   UNL     1      48.298   6.569  14.376  0.00  0.00    +0.000 C 
ATOM     20  N   UNL     1      47.100   7.188  14.139  0.00  0.00    +0.000 N 
ATOM     21  H   UNL     1      46.531   7.495  14.921  0.00  0.00    +0.000 HD
BRANCH  19  22
ATOM     22  C   UNL     1      48.601   6.279  15.783  0.00  0.00    +0.000 A 
ATOM     23  C   UNL     1      49.181   7.255  16.580  0.00  0.00    +0.000 A 
ATOM     24  S   UNL     1      49.477   6.743  18.180  0.00  0.00    +0.000 S 
ATOM     25  C   UNL     1      48.801   5.210  17.874  0.00  0.00    +0.000 A 
ATOM     26  N   UNL     1      48.712   4.274  18.859  0.00  0.00    +0.000 NA
ATOM     27  C   UNL     1      48.146   3.172  18.499  0.00  0.00    +0.000 A 
ATOM     28  N   UNL     1      47.666   2.916  17.241  0.00  0.00    +0.000 N 
ATOM     29  C   UNL     1      47.794   3.803  16.201  0.00  0.00    +0.000 A 
ATOM     30  O   UNL     1      47.461   3.487  15.063  0.00  0.00    +0.000 OA
ATOM     31  C   UNL     1      48.383   5.081  16.562  0.00  0.00    +0.000 A 
ATOM     32  H   UNL     1      47.259   2.020  17.016  0.00  0.00    +0.000 HD
ENDBRANCH  19  22
ENDBRANCH   1  20
TORSDOF 7
ENDMDL
MODEL 3
REMARK VINA RESULT:    -7.811      2.136      2.677
REMARK INTER + INTRA:         -11.862
REMARK INTER:                 -10.945
REMARK INTRA:                  -0.916
REMARK UNBOUND:                -0.854
REMARK  Name = 
REMARK  7 active torsions:
REMARK  status: ('A' for Active; 'I' for Inactive)
REMARK    1  A    between atoms: C_2  and  C_20
REMARK    2  A    between atoms: N_3  and  C_4
REMARK    3  A    between atoms: C_4  and  C_5
REMARK    4  A    between atoms: C_8  and  C_9
REMARK    5  A    between atoms: C_9  and  N_10
REMARK    6  A    between atoms: N_10  and  C_11
REMARK    7  A    between atoms: C_11  and  C_12
REMARK                            x       y       z     vdW  Elec       q    Type
REMARK                         _______ _______ _______ _____ _____    ______ ____
ROOT
ATOM      1  C   UNL     1      46.203   4.201  14.661  0.00  0.00    +0.000 C 
ENDROOT
BRANCH   1   2
ATOM      2  C   UNL     1      46.253   4.532  13.157  0.00  0.00    +0.000 C 
ATOM      3  C   UNL     1      45.724   3.389  12.273  0.00  0.00    +0.000 C 
ATOM      4  C   UNL     1      44.205   3.225  12.329  0.00  0.00    +0.000 C 
ATOM      5  C   UNL     1      43.436   4.534  12.061  0.00  0.00    +0.000 C 
ATOM      6  C   UNL     1      43.971   5.661  12.959  0.00  0.00    +0.000 C 
ATOM      7  C   UNL     1      45.487   5.832  12.869  0.00  0.00    +0.000 C 
BRANCH   5   8
ATOM      8  C   UNL     1      43.429   4.943  10.569  0.00  0.00    +0.000 C 
BRANCH   8   9
ATOM      9  N   UNL     1      43.994   3.859   9.770  0.00  0.00    +0.000 NA
ATOM     10  H   UNL     1      43.244   3.276   9.398  0.00  0.00    +0.000 HD
BRANCH   9  11
ATOM     11  C   UNL     1      44.826   4.324   8.663  0.00  0.00    +0.000 C 
BRANCH  11  12
ATOM     12  C   UNL     1      45.645   3.178   8.129  0.00  0.00    +0.000 A 
ATOM     13  C   UNL     1      46.577   3.372   7.103  0.00  0.00    +0.000 A 
ATOM     14  C   UNL     1      47.354   2.307   6.659  0.00  0.00    +0.000 A 
ATOM     15  C   UNL     1      47.167   1.070   7.251  0.00  0.00    +0.000 A 
ATOM     16  N   UNL     1      46.268   0.835   8.233  0.00  0.00    +0.000 NA
ATOM     17  C   UNL     1      45.531   1.893   8.648  0.00  0.00    +0.000 A 
ENDBRANCH  11  12
ENDBRANCH   9  11
ENDBRANCH   8   9
ENDBRANCH   5   8
ENDBRANCH   1   2
BRANCH   1  20
ATOM     18  O   UNL     1      48.340   3.239  16.260  0.00  0.00    +0.000 OA
ATOM     19  C   UNL     1      48.155   4.451  16.170  0.00  0.00    +0.000 C 
ATOM     20  N   UNL     1      47.137   4.989  15.429  0.00  0.00    +0.000 N 
ATOM     21  H   UNL     1      47.063   5.996  15.335  0.00  0.00    +0.000 HD
BRANCH  19  22
ATOM     22  C   UNL     1      48.997   5.413  16.893  0.00  0.00    +0.000 A 
ATOM     23  C   UNL     1      49.187   5.273  18.260  0.00  0.00    +0.000 A 
ATOM     24  S   UNL     1      50.180   6.484  18.938  0.00  0.00    +0.000 S 
ATOM     25  C   UNL     1      50.423   7.214  17.419  0.00  0.00    +0.000 A 
ATOM     26  N   UNL     1      51.222   8.308  17.287  0.00  0.00    +0.000 NA
ATOM     27  C   UNL     1      51.348   8.736  16.076  0.00  0.00    +0.000 A 
ATOM     28  N   UNL     1      50.741   8.173  14.984  0.00  0.00    +0.000 N 
ATOM     29  C   UNL     1      49.875   7.112  15.077  0.00  0.00    +0.000 A 
ATOM     30  O   UNL     1      49.259   6.717  14.092  0.00  0.00    +0.000 OA
ATOM     31  C   UNL     1      49.733   6.560  16.414  0.00  0.00    +0.000 A 
ATOM     32  H   UNL     1      50.857   8.575  14.064  0.00  0.00    +0.000 HD
ENDBRANCH  19  22
ENDBRANCH   1  20
TORSDOF 7
ENDMDL
MODEL 4
REMARK VINA RESULT:    -7.427      2.135      2.677
REMARK INTER + INTRA:         -11.320
REMARK INTER:                 -10.409
REMARK INTRA:                  -0.911
REMARK UNBOUND:                -0.854
REMARK  Name = 
REMARK  7 active torsions:
REMARK  status: ('A' for Active; 'I' for Inactive)
REMARK    1  A    between atoms: C_2  and  C_20
REMARK    2  A    between atoms: N_3  and  C_4
REMARK    3  A    between atoms: C_4  and  C_5
REMARK    4  A    between atoms: C_8  and  C_9
REMARK    5  A    between atoms: C_9  and  N_10
REMARK    6  A    between atoms: N_10  and  C_11
REMARK    7  A    between atoms: C_11  and  C_12
REMARK                            x       y       z     vdW  Elec       q    Type
REMARK                         _______ _______ _______ _____ _____    ______ ____
ROOT
ATOM      1  C   UNL     1      47.444   8.377  14.209  0.00  0.00    +0.000 C 
ENDROOT
BRANCH   1   2
ATOM      2  C   UNL     1      47.406   8.135  12.688  0.00  0.00    +0.000 C 
ATOM      3  C   UNL     1      47.849   6.713  12.295  0.00  0.00    +0.000 C 
ATOM      4  C   UNL     1      46.819   5.636  12.633  0.00  0.00    +0.000 C 
ATOM      5  C   UNL     1      45.408   5.945  12.095  0.00  0.00    +0.000 C 
ATOM      6  C   UNL     1      44.979   7.363  12.504  0.00  0.00    +0.000 C 
ATOM      7  C   UNL     1      46.005   8.432  12.133  0.00  0.00    +0.000 C 
BRANCH   5   8
ATOM      8  C   UNL     1      45.275   5.724  10.568  0.00  0.00    +0.000 C 
BRANCH   8   9
ATOM      9  N   UNL     1      45.034   4.307  10.307  0.00  0.00    +0.000 NA
ATOM     10  H   UNL     1      44.349   3.944  10.970  0.00  0.00    +0.000 HD
BRANCH   9  11
ATOM     11  C   UNL     1      44.568   4.037   8.950  0.00  0.00    +0.000 C 
BRANCH  11  12
ATOM     12  C   UNL     1      45.519   3.087   8.268  0.00  0.00    +0.000 A 
ATOM     13  C   UNL     1      46.389   3.531   7.266  0.00  0.00    +0.000 A 
ATOM     14  C   UNL     1      47.289   2.645   6.684  0.00  0.00    +0.000 A 
ATOM     15  C   UNL     1      47.285   1.331   7.118  0.00  0.00    +0.000 A 
ATOM     16  N   UNL     1      46.453   0.857   8.070  0.00  0.00    +0.000 NA
ATOM     17  C   UNL     1      45.591   1.745   8.622  0.00  0.00    +0.000 A 
ENDBRANCH  11  12
ENDBRANCH   9  11
ENDBRANCH   8   9
ENDBRANCH   5   8
ENDBRANCH   1   2
BRANCH   1  20
ATOM     18  O   UNL     1      48.507   8.649  16.825  0.00  0.00    +0.000 OA
ATOM     19  C   UNL     1      48.783   7.648  16.165  0.00  0.00    +0.000 C 
ATOM     20  N   UNL     1      48.319   7.455  14.891  0.00  0.00    +0.000 N 
ATOM     21  H   UNL     1      48.523   6.585  14.410  0.00  0.00    +0.000 HD
BRANCH  19  22
ATOM     22  C   UNL     1      49.672   6.603  16.687  0.00  0.00    +0.000 A 
ATOM     23  C   UNL     1      50.952   6.934  17.111  0.00  0.00    +0.000 A 
ATOM     24  S   UNL     1      51.850   5.597  17.673  0.00  0.00    +0.000 S 
ATOM     25  C   UNL     1      50.545   4.536  17.408  0.00  0.00    +0.000 A 
ATOM     26  N   UNL     1      50.642   3.214  17.719  0.00  0.00    +0.000 NA
ATOM     27  C   UNL     1      49.567   2.534  17.502  0.00  0.00    +0.000 A 
ATOM     28  N   UNL     1      48.405   3.053  16.995  0.00  0.00    +0.000 N 
ATOM     29  C   UNL     1      48.282   4.364  16.605  0.00  0.00    +0.000 A 
ATOM     30  O   UNL     1      47.265   4.758  16.043  0.00  0.00    +0.000 OA
ATOM     31  C   UNL     1      49.449   5.187  16.871  0.00  0.00    +0.000 A 
ATOM     32  H   UNL     1      47.607   2.459  16.821  0.00  0.00    +0.000 HD
ENDBRANCH  19  22
ENDBRANCH   1  20
TORSDOF 7
ENDMDL
MODEL 5
REMARK VINA RESULT:    -7.391      2.047      2.392
REMARK INTER + INTRA:         -11.269
REMARK INTER:                 -10.783
REMARK INTRA:                  -0.486
REMARK UNBOUND:                -0.854
REMARK  Name = 
REMARK  7 active torsions:
REMARK  status: ('A' for Active; 'I' for Inactive)
REMARK    1  A    between atoms: C_2  and  C_20
REMARK    2  A    between atoms: N_3  and  C_4
REMARK    3  A    between atoms: C_4  and  C_5
REMARK    4  A    between atoms: C_8  and  C_9
REMARK    5  A    between atoms: C_9  and  N_10
REMARK    6  A    between atoms: N_10  and  C_11
REMARK    7  A    between atoms: C_11  and  C_12
REMARK                            x       y       z     vdW  Elec       q    Type
REMARK                         _______ _______ _______ _____ _____    ______ ____
ROOT
ATOM      1  C   UNL     1      46.277   3.957  14.493  0.00  0.00    +0.000 C 
ENDROOT
BRANCH   1   2
ATOM      2  C   UNL     1      46.278   4.327  12.998  0.00  0.00    +0.000 C 
ATOM      3  C   UNL     1      45.636   3.245  12.111  0.00  0.00    +0.000 C 
ATOM      4  C   UNL     1      44.115   3.174  12.236  0.00  0.00    +0.000 C 
ATOM      5  C   UNL     1      43.419   4.536  12.039  0.00  0.00    +0.000 C 
ATOM      6  C   UNL     1      44.066   5.601  12.938  0.00  0.00    +0.000 C 
ATOM      7  C   UNL     1      45.584   5.680  12.780  0.00  0.00    +0.000 C 
BRANCH   5   8
ATOM      8  C   UNL     1      43.369   4.988  10.560  0.00  0.00    +0.000 C 
BRANCH   8   9
ATOM      9  N   UNL     1      43.943   3.942   9.717  0.00  0.00    +0.000 NA
ATOM     10  H   UNL     1      43.203   3.468   9.200  0.00  0.00    +0.000 HD
BRANCH   9  11
ATOM     11  C   UNL     1      44.939   4.439   8.772  0.00  0.00    +0.000 C 
BRANCH  11  12
ATOM     12  C   UNL     1      45.694   3.279   8.175  0.00  0.00    +0.000 A 
ATOM     13  C   UNL     1      46.596   3.468   7.123  0.00  0.00    +0.000 A 
ATOM     14  C   UNL     1      47.315   2.388   6.620  0.00  0.00    +0.000 A 
ATOM     15  C   UNL     1      47.100   1.142   7.183  0.00  0.00    +0.000 A 
ATOM     16  N   UNL     1      46.228   0.912   8.189  0.00  0.00    +0.000 NA
ATOM     17  C   UNL     1      45.547   1.984   8.661  0.00  0.00    +0.000 A 
ENDBRANCH  11  12
ENDBRANCH   9  11
ENDBRANCH   8   9
ENDBRANCH   5   8
ENDBRANCH   1   2
BRANCH   1  20
ATOM     18  O   UNL     1      48.487   3.486  16.208  0.00  0.00    +0.000 OA
ATOM     19  C   UNL     1      48.044   4.628  16.098  0.00  0.00    +0.000 C 
ATOM     20  N   UNL     1      46.972   4.929  15.301  0.00  0.00    +0.000 N 
ATOM     21  H   UNL     1      46.681   5.895  15.196  0.00  0.00    +0.000 HD
BRANCH  19  22
ATOM     22  C   UNL     1      48.613   5.750  16.855  0.00  0.00    +0.000 A 
ATOM     23  C   UNL     1      48.919   6.937  16.206  0.00  0.00    +0.000 A 
ATOM     24  S   UNL     1      49.584   8.125  17.234  0.00  0.00    +0.000 S 
ATOM     25  C   UNL     1      49.449   7.107  18.591  0.00  0.00    +0.000 A 
ATOM     26  N   UNL     1      49.822   7.535  19.829  0.00  0.00    +0.000 NA
ATOM     27  C   UNL     1      49.631   6.676  20.772  0.00  0.00    +0.000 A 
ATOM     28  N   UNL     1      49.107   5.423  20.591  0.00  0.00    +0.000 N 
ATOM     29  C   UNL     1      48.779   4.924  19.354  0.00  0.00    +0.000 A 
ATOM     30  O   UNL     1      48.428   3.756  19.222  0.00  0.00    +0.000 OA
ATOM     31  C   UNL     1      48.930   5.868  18.260  0.00  0.00    +0.000 A 
ATOM     32  H   UNL     1      49.011   4.786  21.369  0.00  0.00    +0.000 HD
ENDBRANCH  19  22
ENDBRANCH   1  20
TORSDOF 7
ENDMDL
MODEL 6
REMARK VINA RESULT:    -7.135      4.922      5.405
REMARK INTER + INTRA:         -10.909
REMARK INTER:                 -10.260
REMARK INTRA:                  -0.649
REMARK UNBOUND:                -0.854
REMARK  Name = 
REMARK  7 active torsions:
REMARK  status: ('A' for Active; 'I' for Inactive)
REMARK    1  A    between atoms: C_2  and  C_20
REMARK    2  A    between atoms: N_3  and  C_4
REMARK    3  A    between atoms: C_4  and  C_5
REMARK    4  A    between atoms: C_8  and  C_9
REMARK    5  A    between atoms: C_9  and  N_10
REMARK    6  A    between atoms: N_10  and  C_11
REMARK    7  A    between atoms: C_11  and  C_12
REMARK                            x       y       z     vdW  Elec       q    Type
REMARK                         _______ _______ _______ _____ _____    ______ ____
ROOT
ATOM      1  C   UNL     1      44.926   7.591  12.703  0.00  0.00    +0.000 C 
ENDROOT
BRANCH   1   2
ATOM      2  C   UNL     1      44.934   6.066  12.917  0.00  0.00    +0.000 C 
ATOM      3  C   UNL     1      43.532   5.437  12.813  0.00  0.00    +0.000 C 
ATOM      4  C   UNL     1      42.995   5.374  11.384  0.00  0.00    +0.000 C 
ATOM      5  C   UNL     1      43.973   4.716  10.390  0.00  0.00    +0.000 C 
ATOM      6  C   UNL     1      45.363   5.361  10.501  0.00  0.00    +0.000 C 
ATOM      7  C   UNL     1      45.899   5.390  11.932  0.00  0.00    +0.000 C 
BRANCH   5   8
ATOM      8  C   UNL     1      44.043   3.176  10.530  0.00  0.00    +0.000 C 
BRANCH   8   9
ATOM      9  N   UNL     1      44.100   2.574   9.201  0.00  0.00    +0.000 NA
ATOM     10  H   UNL     1      43.171   2.256   8.924  0.00  0.00    +0.000 HD
BRANCH   9  11
ATOM     11  C   UNL     1      44.618   3.476   8.176  0.00  0.00    +0.000 C 
BRANCH  11  12
ATOM     12  C   UNL     1      45.798   2.837   7.489  0.00  0.00    +0.000 A 
ATOM     13  C   UNL     1      46.467   3.489   6.446  0.00  0.00    +0.000 A 
ATOM     14  C   UNL     1      47.581   2.899   5.859  0.00  0.00    +0.000 A 
ATOM     15  C   UNL     1      47.989   1.663   6.329  0.00  0.00    +0.000 A 
ATOM     16  N   UNL     1      47.364   0.992   7.321  0.00  0.00    +0.000 NA
ATOM     17  C   UNL     1      46.285   1.594   7.876  0.00  0.00    +0.000 A 
ENDBRANCH  11  12
ENDBRANCH   9  11
ENDBRANCH   8   9
ENDBRANCH   5   8
ENDBRANCH   1   2
BRANCH   1  20
ATOM     18  O   UNL     1      45.667  10.253  12.062  0.00  0.00    +0.000 OA
ATOM     19  C   UNL     1      46.530   9.464  12.442  0.00  0.00    +0.000 C 
ATOM     20  N   UNL     1      46.250   8.161  12.756  0.00  0.00    +0.000 N 
ATOM     21  H   UNL     1      46.985   7.566  13.124  0.00  0.00    +0.000 HD
BRANCH  19  22
ATOM     22  C   UNL     1      47.940   9.859  12.547  0.00  0.00    +0.000 A 
ATOM     23  C   UNL     1      48.276  11.078  13.119  0.00  0.00    +0.000 A 
ATOM     24  S   UNL     1      49.954  11.380  13.145  0.00  0.00    +0.000 S 
ATOM     25  C   UNL     1      50.294   9.874  12.428  0.00  0.00    +0.000 A 
ATOM     26  N   UNL     1      51.577   9.481  12.195  0.00  0.00    +0.000 NA
ATOM     27  C   UNL     1      51.690   8.303  11.682  0.00  0.00    +0.000 A 
ATOM     28  N   UNL     1      50.638   7.482  11.372  0.00  0.00    +0.000 N 
ATOM     29  C   UNL     1      49.327   7.861  11.527  0.00  0.00    +0.000 A 
ATOM     30  O   UNL     1      48.415   7.145  11.125  0.00  0.00    +0.000 OA
ATOM     31  C   UNL     1      49.141   9.163  12.146  0.00  0.00    +0.000 A 
ATOM     32  H   UNL     1      50.794   6.581  10.944  0.00  0.00    +0.000 HD
ENDBRANCH  19  22
ENDBRANCH   1  20
TORSDOF 7
ENDMDL
MODEL 7
REMARK VINA RESULT:    -7.080      3.717      8.604
REMARK INTER + INTRA:         -10.831
REMARK INTER:                  -9.180
REMARK INTRA:                  -1.651
REMARK UNBOUND:                -0.854
REMARK  Name = 
REMARK  7 active torsions:
REMARK  status: ('A' for Active; 'I' for Inactive)
REMARK    1  A    between atoms: C_2  and  C_20
REMARK    2  A    between atoms: N_3  and  C_4
REMARK    3  A    between atoms: C_4  and  C_5
REMARK    4  A    between atoms: C_8  and  C_9
REMARK    5  A    between atoms: C_9  and  N_10
REMARK    6  A    between atoms: N_10  and  C_11
REMARK    7  A    between atoms: C_11  and  C_12
REMARK                            x       y       z     vdW  Elec       q    Type
REMARK                         _______ _______ _______ _____ _____    ______ ____
ROOT
ATOM      1  C   UNL     1      48.261   8.274  14.309  0.00  0.00    +0.000 C 
ENDROOT
BRANCH   1   2
ATOM      2  C   UNL     1      49.300   7.225  14.746  0.00  0.00    +0.000 C 
ATOM      3  C   UNL     1      50.637   7.850  15.186  0.00  0.00    +0.000 C 
ATOM      4  C   UNL     1      50.567   8.550  16.543  0.00  0.00    +0.000 C 
ATOM      5  C   UNL     1      49.974   7.667  17.660  0.00  0.00    +0.000 C 
ATOM      6  C   UNL     1      48.637   7.060  17.206  0.00  0.00    +0.000 C 
ATOM      7  C   UNL     1      48.730   6.338  15.862  0.00  0.00    +0.000 C 
BRANCH   5   8
ATOM      8  C   UNL     1      50.954   6.582  18.166  0.00  0.00    +0.000 C 
BRANCH   8   9
ATOM      9  N   UNL     1      50.275   5.741  19.149  0.00  0.00    +0.000 NA
ATOM     10  H   UNL     1      49.268   5.768  18.991  0.00  0.00    +0.000 HD
BRANCH   9  11
ATOM     11  C   UNL     1      50.721   4.351  19.131  0.00  0.00    +0.000 C 
BRANCH  11  12
ATOM     12  C   UNL     1      49.866   3.558  18.176  0.00  0.00    +0.000 A 
ATOM     13  C   UNL     1      48.469   3.623  18.231  0.00  0.00    +0.000 A 
ATOM     14  C   UNL     1      47.703   2.917  17.309  0.00  0.00    +0.000 A 
ATOM     15  C   UNL     1      48.362   2.155  16.360  0.00  0.00    +0.000 A 
ATOM     16  N   UNL     1      49.706   2.052  16.281  0.00  0.00    +0.000 NA
ATOM     17  C   UNL     1      50.425   2.754  17.188  0.00  0.00    +0.000 A 
ENDBRANCH  11  12
ENDBRANCH   9  11
ENDBRANCH   8   9
ENDBRANCH   5   8
ENDBRANCH   1   2
BRANCH   1  20
ATOM     18  O   UNL     1      47.958   7.001  11.793  0.00  0.00    +0.000 OA
ATOM     19  C   UNL     1      46.995   7.063  12.555  0.00  0.00    +0.000 C 
ATOM     20  N   UNL     1      47.062   7.674  13.778  0.00  0.00    +0.000 N 
ATOM     21  H   UNL     1      46.258   7.646  14.397  0.00  0.00    +0.000 HD
BRANCH  19  22
ATOM     22  C   UNL     1      45.683   6.518  12.183  0.00  0.00    +0.000 A 
ATOM     23  C   UNL     1      44.737   7.340  11.587  0.00  0.00    +0.000 A 
ATOM     24  S   UNL     1      43.268   6.547  11.236  0.00  0.00    +0.000 S 
ATOM     25  C   UNL     1      43.860   5.066  11.831  0.00  0.00    +0.000 A 
ATOM     26  N   UNL     1      43.096   3.940  11.794  0.00  0.00    +0.000 NA
ATOM     27  C   UNL     1      43.682   2.881  12.242  0.00  0.00    +0.000 A 
ATOM     28  N   UNL     1      44.960   2.847  12.733  0.00  0.00    +0.000 N 
ATOM     29  C   UNL     1      45.744   3.968  12.853  0.00  0.00    +0.000 A 
ATOM     30  O   UNL     1      46.836   3.914  13.409  0.00  0.00    +0.000 OA
ATOM     31  C   UNL     1      45.150   5.182  12.318  0.00  0.00    +0.000 A 
ATOM     32  H   UNL     1      45.350   1.989  13.098  0.00  0.00    +0.000 HD
ENDBRANCH  19  22
ENDBRANCH   1  20
TORSDOF 7
ENDMDL
MODEL 8
REMARK VINA RESULT:    -6.738      3.870      8.878
REMARK INTER + INTRA:         -10.349
REMARK INTER:                  -8.894
REMARK INTRA:                  -1.455
REMARK UNBOUND:                -0.854
REMARK  Name = 
REMARK  7 active torsions:
REMARK  status: ('A' for Active; 'I' for Inactive)
REMARK    1  A    between atoms: C_2  and  C_20
REMARK    2  A    between atoms: N_3  and  C_4
REMARK    3  A    between atoms: C_4  and  C_5
REMARK    4  A    between atoms: C_8  and  C_9
REMARK    5  A    between atoms: C_9  and  N_10
REMARK    6  A    between atoms: N_10  and  C_11
REMARK    7  A    between atoms: C_11  and  C_12
REMARK                            x       y       z     vdW  Elec       q    Type
REMARK                         _______ _______ _______ _____ _____    ______ ____
ROOT
ATOM      1  C   UNL     1      47.566   7.949  11.945  0.00  0.00    +0.000 C 
ENDROOT
BRANCH   1   2
ATOM      2  C   UNL     1      47.550   8.429  13.408  0.00  0.00    +0.000 C 
ATOM      3  C   UNL     1      47.648   7.273  14.421  0.00  0.00    +0.000 C 
ATOM      4  C   UNL     1      49.039   6.643  14.497  0.00  0.00    +0.000 C 
ATOM      5  C   UNL     1      50.167   7.670  14.717  0.00  0.00    +0.000 C 
ATOM      6  C   UNL     1      50.058   8.811  13.693  0.00  0.00    +0.000 C 
ATOM      7  C   UNL     1      48.671   9.450  13.650  0.00  0.00    +0.000 C 
BRANCH   5   8
ATOM      8  C   UNL     1      50.229   8.206  16.168  0.00  0.00    +0.000 C 
BRANCH   8   9
ATOM      9  N   UNL     1      50.697   7.143  17.054  0.00  0.00    +0.000 NA
ATOM     10  H   UNL     1      51.554   7.435  17.523  0.00  0.00    +0.000 HD
BRANCH   9  11
ATOM     11  C   UNL     1      49.715   6.751  18.061  0.00  0.00    +0.000 C 
BRANCH  11  12
ATOM     12  C   UNL     1      49.154   5.395  17.720  0.00  0.00    +0.000 A 
ATOM     13  C   UNL     1      47.774   5.161  17.726  0.00  0.00    +0.000 A 
ATOM     14  C   UNL     1      47.278   3.913  17.363  0.00  0.00    +0.000 A 
ATOM     15  C   UNL     1      48.184   2.928  17.012  0.00  0.00    +0.000 A 
ATOM     16  N   UNL     1      49.524   3.105  17.008  0.00  0.00    +0.000 NA
ATOM     17  C   UNL     1      49.976   4.332  17.361  0.00  0.00    +0.000 A 
ENDBRANCH  11  12
ENDBRANCH   9  11
ENDBRANCH   8   9
ENDBRANCH   5   8
ENDBRANCH   1   2
BRANCH   1  20
ATOM     18  O   UNL     1      44.761   7.705  11.602  0.00  0.00    +0.000 OA
ATOM     19  C   UNL     1      45.459   6.693  11.584  0.00  0.00    +0.000 C 
ATOM     20  N   UNL     1      46.817   6.731  11.757  0.00  0.00    +0.000 N 
ATOM     21  H   UNL     1      47.357   5.876  11.673  0.00  0.00    +0.000 HD
BRANCH  19  22
ATOM     22  C   UNL     1      44.872   5.357  11.417  0.00  0.00    +0.000 A 
ATOM     23  C   UNL     1      44.120   4.801  12.442  0.00  0.00    +0.000 A 
ATOM     24  S   UNL     1      43.529   3.241  12.083  0.00  0.00    +0.000 S 
ATOM     25  C   UNL     1      44.223   3.273  10.529  0.00  0.00    +0.000 A 
ATOM     26  N   UNL     1      44.063   2.231   9.668  0.00  0.00    +0.000 NA
ATOM     27  C   UNL     1      44.610   2.403   8.512  0.00  0.00    +0.000 A 
ATOM     28  N   UNL     1      45.311   3.520   8.141  0.00  0.00    +0.000 N 
ATOM     29  C   UNL     1      45.556   4.566   8.996  0.00  0.00    +0.000 A 
ATOM     30  O   UNL     1      46.291   5.491   8.663  0.00  0.00    +0.000 OA
ATOM     31  C   UNL     1      44.922   4.445  10.298  0.00  0.00    +0.000 A 
ATOM     32  H   UNL     1      45.741   3.580   7.229  0.00  0.00    +0.000 HD
ENDBRANCH  19  22
ENDBRANCH   1  20
TORSDOF 7
ENDMDL
MODEL 9
REMARK VINA RESULT:    -6.720      2.545      2.888
REMARK INTER + INTRA:         -10.323
REMARK INTER:                  -9.542
REMARK INTRA:                  -0.781
REMARK UNBOUND:                -0.854
REMARK  Name = 
REMARK  7 active torsions:
REMARK  status: ('A' for Active; 'I' for Inactive)
REMARK    1  A    between atoms: C_2  and  C_20
REMARK    2  A    between atoms: N_3  and  C_4
REMARK    3  A    between atoms: C_4  and  C_5
REMARK    4  A    between atoms: C_8  and  C_9
REMARK    5  A    between atoms: C_9  and  N_10
REMARK    6  A    between atoms: N_10  and  C_11
REMARK    7  A    between atoms: C_11  and  C_12
REMARK                            x       y       z     vdW  Elec       q    Type
REMARK                         _______ _______ _______ _____ _____    ______ ____
ROOT
ATOM      1  C   UNL     1      47.919   7.315  14.454  0.00  0.00    +0.000 C 
ENDROOT
BRANCH   1   2
ATOM      2  C   UNL     1      48.100   6.480  13.173  0.00  0.00    +0.000 C 
ATOM      3  C   UNL     1      47.192   5.237  13.133  0.00  0.00    +0.000 C 
ATOM      4  C   UNL     1      45.720   5.563  12.881  0.00  0.00    +0.000 C 
ATOM      5  C   UNL     1      45.492   6.455  11.644  0.00  0.00    +0.000 C 
ATOM      6  C   UNL     1      46.400   7.694  11.705  0.00  0.00    +0.000 C 
ATOM      7  C   UNL     1      47.872   7.350  11.928  0.00  0.00    +0.000 C 
BRANCH   5   8
ATOM      8  C   UNL     1      45.649   5.694  10.305  0.00  0.00    +0.000 C 
BRANCH   8   9
ATOM      9  N   UNL     1      44.877   4.456  10.362  0.00  0.00    +0.000 NA
ATOM     10  H   UNL     1      44.102   4.561  11.017  0.00  0.00    +0.000 HD
BRANCH   9  11
ATOM     11  C   UNL     1      44.348   4.041   9.066  0.00  0.00    +0.000 C 
BRANCH  11  12
ATOM     12  C   UNL     1      45.331   3.122   8.388  0.00  0.00    +0.000 A 
ATOM     13  C   UNL     1      46.183   3.591   7.381  0.00  0.00    +0.000 A 
ATOM     14  C   UNL     1      47.114   2.734   6.803  0.00  0.00    +0.000 A 
ATOM     15  C   UNL     1      47.158   1.423   7.246  0.00  0.00    +0.000 A 
ATOM     16  N   UNL     1      46.345   0.926   8.203  0.00  0.00    +0.000 NA
ATOM     17  C   UNL     1      45.453   1.785   8.751  0.00  0.00    +0.000 A 
ENDBRANCH  11  12
ENDBRANCH   9  11
ENDBRANCH   8   9
ENDBRANCH   5   8
ENDBRANCH   1   2
BRANCH   1  20
ATOM     18  O   UNL     1      48.616   8.468  16.951  0.00  0.00    +0.000 OA
ATOM     19  C   UNL     1      48.686   7.248  16.811  0.00  0.00    +0.000 C 
ATOM     20  N   UNL     1      48.380   6.623  15.632  0.00  0.00    +0.000 N 
ATOM     21  H   UNL     1      48.395   5.609  15.585  0.00  0.00    +0.000 HD
BRANCH  19  22
ATOM     22  C   UNL     1      49.150   6.376  17.897  0.00  0.00    +0.000 A 
ATOM     23  C   UNL     1      48.226   5.721  18.699  0.00  0.00    +0.000 A 
ATOM     24  S   UNL     1      48.939   4.763  19.918  0.00  0.00    +0.000 S 
ATOM     25  C   UNL     1      50.508   5.159  19.390  0.00  0.00    +0.000 A 
ATOM     26  N   UNL     1      51.607   4.633  19.999  0.00  0.00    +0.000 NA
ATOM     27  C   UNL     1      52.731   4.987  19.474  0.00  0.00    +0.000 A 
ATOM     28  N   UNL     1      52.858   5.827  18.399  0.00  0.00    +0.000 N 
ATOM     29  C   UNL     1      51.785   6.434  17.795  0.00  0.00    +0.000 A 
ATOM     30  O   UNL     1      51.951   7.273  16.915  0.00  0.00    +0.000 OA
ATOM     31  C   UNL     1      50.489   6.033  18.317  0.00  0.00    +0.000 A 
ATOM     32  H   UNL     1      53.771   6.089  18.054  0.00  0.00    +0.000 HD
ENDBRANCH  19  22
ENDBRANCH   1  20
TORSDOF 7
ENDMDL
