MODEL 1
REMARK VINA RESULT:    -9.239      0.000      0.000
REMARK INTER + INTRA:         -13.630
REMARK INTER:                 -12.750
REMARK INTRA:                  -0.880
REMARK UNBOUND:                -0.880
REMARK  Name = 
REMARK  8 active torsions:
REMARK  status: ('A' for Active; 'I' for Inactive)
REMARK    1  A    between atoms: C_1  and  C_2
REMARK    2  A    between atoms: C_2  and  O_3
REMARK    3  A    between atoms: C_5  and  O_6
REMARK    4  A    between atoms: O_6  and  C_7
REMARK    5  A    between atoms: C_9  and  C_10
REMARK    6  A    between atoms: C_10  and  C_13
REMARK    7  A    between atoms: C_13  and  N_14
REMARK    8  A    between atoms: C_18  and  C_19
REMARK                            x       y       z     vdW  Elec       q    Type
REMARK                         _______ _______ _______ _____ _____    ______ ____
ROOT
ATOM      1  C   UNL     1      43.336   4.772  12.520  0.00  0.00    +0.000 C 
ATOM      2  F   UNL     1      42.962   3.789  13.396  0.00  0.00    +0.000 F 
ATOM      3  F   UNL     1      42.340   5.710  12.597  0.00  0.00    +0.000 F 
ENDROOT
BRANCH   1   6
ATOM      4  C   UNL     1      46.864   4.994  13.977  0.00  0.00    +0.000 A 
ATOM      5  C   UNL     1      45.581   4.545  13.635  0.00  0.00    +0.000 A 
ATOM      6  C   UNL     1      44.684   5.365  12.926  0.00  0.00    +0.000 A 
ATOM      7  C   UNL     1      45.096   6.666  12.594  0.00  0.00    +0.000 A 
ATOM      8  C   UNL     1      46.384   7.109  12.903  0.00  0.00    +0.000 A 
ATOM      9  C   UNL     1      47.274   6.271  13.574  0.00  0.00    +0.000 A 
ATOM     10 CL   UNL     1      48.868   6.856  13.880  0.00  0.00    +0.000 Cl
BRANCH   4  11
ATOM     11  O   UNL     1      47.757   4.215  14.683  0.00  0.00    +0.000 OA
BRANCH  11  15
ATOM     12  C   UNL     1      49.243   3.871  18.929  0.00  0.00    +0.000 C 
ATOM     13  C   UNL     1      48.935   4.031  17.449  0.00  0.00    +0.000 C 
ATOM     14  C   UNL     1      47.579   4.728  17.181  0.00  0.00    +0.000 C 
ATOM     15  C   UNL     1      47.362   3.751  15.999  0.00  0.00    +0.000 C 
ATOM     16  C   UNL     1      48.354   2.795  16.711  0.00  0.00    +0.000 C 
BRANCH  13  17
ATOM     17  O   UNL     1      50.086   4.611  16.797  0.00  0.00    +0.000 OA
ATOM     18  H   UNL     1      50.771   4.687  17.480  0.00  0.00    +0.000 HD
ENDBRANCH  13  17
ENDBRANCH  11  15
ENDBRANCH   4  11
ENDBRANCH   1   6
BRANCH   1  19
ATOM     19  C   UNL     1      43.317   4.186  11.090  0.00  0.00    +0.000 C 
BRANCH  19  20
ATOM     20  N   UNL     1      44.073   4.954  10.073  0.00  0.00    +0.000 N 
ATOM     21  C   UNL     1      44.896   4.114   9.300  0.00  0.00    +0.000 A 
ATOM     22  C   UNL     1      45.691   4.641   8.273  0.00  0.00    +0.000 A 
ATOM     23  N   UNL     1      46.507   3.894   7.478  0.00  0.00    +0.000 NA
ATOM     24  C   UNL     1      46.479   2.558   7.743  0.00  0.00    +0.000 A 
ATOM     25  C   UNL     1      45.685   2.016   8.735  0.00  0.00    +0.000 A 
ATOM     26  N   UNL     1      44.884   2.779   9.521  0.00  0.00    +0.000 NA
ATOM     27  H   UNL     1      44.621   5.711  10.488  0.00  0.00    +0.000 HD
BRANCH  24  28
ATOM     28  C   UNL     1      47.348   1.659   6.937  0.00  0.00    +0.000 C 
ATOM     29  N   UNL     1      48.423   2.251   6.337  0.00  0.00    +0.000 N 
ATOM     30  O   UNL     1      47.121   0.462   6.822  0.00  0.00    +0.000 OA
ATOM     31  H   UNL     1      48.588   3.245   6.447  0.00  0.00    +0.000 HD
ATOM     32  H   UNL     1      49.052   1.688   5.777  0.00  0.00    +0.000 HD
ENDBRANCH  24  28
ENDBRANCH  19  20
ENDBRANCH   1  19
TORSDOF 7
ENDMDL
MODEL 2
REMARK VINA RESULT:    -7.775      1.863      2.114
REMARK INTER + INTRA:         -11.610
REMARK INTER:                 -10.568
REMARK INTRA:                  -1.041
REMARK UNBOUND:                -0.880
REMARK  Name = 
REMARK  8 active torsions:
REMARK  status: ('A' for Active; 'I' for Inactive)
REMARK    1  A    between atoms: C_1  and  C_2
REMARK    2  A    between atoms: C_2  and  O_3
REMARK    3  A    between atoms: C_5  and  O_6
REMARK    4  A    between atoms: O_6  and  C_7
REMARK    5  A    between atoms: C_9  and  C_10
REMARK    6  A    between atoms: C_10  and  C_13
REMARK    7  A    between atoms: C_13  and  N_14
REMARK    8  A    between atoms: C_18  and  C_19
REMARK                            x       y       z     vdW  Elec       q    Type
REMARK                         _______ _______ _______ _____ _____    ______ ____
ROOT
ATOM      1  C   UNL     1      44.191   4.857  12.578  0.00  0.00    +0.000 C 
ATOM      2  F   UNL     1      44.451   3.698  13.256  0.00  0.00    +0.000 F 
ATOM      3  F   UNL     1      43.126   5.418  13.234  0.00  0.00    +0.000 F 
ENDROOT
BRANCH   1   6
ATOM      4  C   UNL     1      47.639   6.214  13.520  0.00  0.00    +0.000 A 
ATOM      5  C   UNL     1      46.460   5.457  13.487  0.00  0.00    +0.000 A 
ATOM      6  C   UNL     1      45.408   5.780  12.611  0.00  0.00    +0.000 A 
ATOM      7  C   UNL     1      45.555   6.908  11.787  0.00  0.00    +0.000 A 
ATOM      8  C   UNL     1      46.739   7.648  11.791  0.00  0.00    +0.000 A 
ATOM      9  C   UNL     1      47.788   7.292  12.639  0.00  0.00    +0.000 A 
ATOM     10 CL   UNL     1      49.245   8.212  12.561  0.00  0.00    +0.000 Cl
BRANCH   4  11
ATOM     11  O   UNL     1      48.679   5.925  14.378  0.00  0.00    +0.000 OA
BRANCH  11  15
ATOM     12  C   UNL     1      51.151   7.358  17.870  0.00  0.00    +0.000 C 
ATOM     13  C   UNL     1      50.495   6.822  16.608  0.00  0.00    +0.000 C 
ATOM     14  C   UNL     1      49.295   7.677  16.136  0.00  0.00    +0.000 C 
ATOM     15  C   UNL     1      48.567   6.364  15.756  0.00  0.00    +0.000 C 
ATOM     16  C   UNL     1      49.491   5.650  16.777  0.00  0.00    +0.000 C 
BRANCH  13  17
ATOM     17  O   UNL     1      51.522   6.572  15.624  0.00  0.00    +0.000 OA
ATOM     18  H   UNL     1      51.248   5.771  15.149  0.00  0.00    +0.000 HD
ENDBRANCH  13  17
ENDBRANCH  11  15
ENDBRANCH   4  11
ENDBRANCH   1   6
BRANCH   1  19
ATOM     19  C   UNL     1      43.721   4.495  11.151  0.00  0.00    +0.000 C 
BRANCH  19  20
ATOM     20  N   UNL     1      43.962   3.093  10.735  0.00  0.00    +0.000 N 
ATOM     21  C   UNL     1      44.792   3.027   9.600  0.00  0.00    +0.000 A 
ATOM     22  C   UNL     1      45.151   1.791   9.047  0.00  0.00    +0.000 A 
ATOM     23  N   UNL     1      45.954   1.645   7.957  0.00  0.00    +0.000 NA
ATOM     24  C   UNL     1      46.414   2.817   7.438  0.00  0.00    +0.000 A 
ATOM     25  C   UNL     1      46.091   4.045   7.981  0.00  0.00    +0.000 A 
ATOM     26  N   UNL     1      45.283   4.169   9.064  0.00  0.00    +0.000 NA
ATOM     27  H   UNL     1      43.091   2.581  10.574  0.00  0.00    +0.000 HD
BRANCH  24  28
ATOM     28  C   UNL     1      47.288   2.763   6.235  0.00  0.00    +0.000 C 
ATOM     29  N   UNL     1      48.607   2.499   6.468  0.00  0.00    +0.000 N 
ATOM     30  O   UNL     1      46.852   2.936   5.103  0.00  0.00    +0.000 OA
ATOM     31  H   UNL     1      48.943   2.360   7.414  0.00  0.00    +0.000 HD
ATOM     32  H   UNL     1      49.250   2.448   5.686  0.00  0.00    +0.000 HD
ENDBRANCH  24  28
ENDBRANCH  19  20
ENDBRANCH   1  19
TORSDOF 7
ENDMDL
MODEL 3
REMARK VINA RESULT:    -7.695      3.865      7.922
REMARK INTER + INTRA:         -11.499
REMARK INTER:                 -10.641
REMARK INTRA:                  -0.859
REMARK UNBOUND:                -0.880
REMARK  Name = 
REMARK  8 active torsions:
REMARK  status: ('A' for Active; 'I' for Inactive)
REMARK    1  A    between atoms: C_1  and  C_2
REMARK    2  A    between atoms: C_2  and  O_3
REMARK    3  A    between atoms: C_5  and  O_6
REMARK    4  A    between atoms: O_6  and  C_7
REMARK    5  A    between atoms: C_9  and  C_10
REMARK    6  A    between atoms: C_10  and  C_13
REMARK    7  A    between atoms: C_13  and  N_14
REMARK    8  A    between atoms: C_18  and  C_19
REMARK                            x       y       z     vdW  Elec       q    Type
REMARK                         _______ _______ _______ _____ _____    ______ ____
ROOT
ATOM      1  C   UNL     1      46.521   7.451  12.479  0.00  0.00    +0.000 C 
ATOM      2  F   UNL     1      46.515   8.297  11.404  0.00  0.00    +0.000 F 
ATOM      3  F   UNL     1      46.093   8.216  13.533  0.00  0.00    +0.000 F 
ENDROOT
BRANCH   1   6
ATOM      4  C   UNL     1      45.057   4.299  10.885  0.00  0.00    +0.000 A 
ATOM      5  C   UNL     1      45.833   5.440  11.130  0.00  0.00    +0.000 A 
ATOM      6  C   UNL     1      45.579   6.272  12.235  0.00  0.00    +0.000 A 
ATOM      7  C   UNL     1      44.501   5.949  13.076  0.00  0.00    +0.000 A 
ATOM      8  C   UNL     1      43.744   4.796  12.856  0.00  0.00    +0.000 A 
ATOM      9  C   UNL     1      44.032   3.961  11.776  0.00  0.00    +0.000 A 
ATOM     10 CL   UNL     1      43.096   2.524  11.588  0.00  0.00    +0.000 Cl
BRANCH   4  11
ATOM     11  O   UNL     1      45.278   3.474   9.801  0.00  0.00    +0.000 OA
BRANCH  11  15
ATOM     12  C   UNL     1      46.748   2.858   5.581  0.00  0.00    +0.000 C 
ATOM     13  C   UNL     1      46.386   2.920   7.055  0.00  0.00    +0.000 C 
ATOM     14  C   UNL     1      44.871   3.123   7.301  0.00  0.00    +0.000 C 
ATOM     15  C   UNL     1      45.234   4.064   8.477  0.00  0.00    +0.000 C 
ATOM     16  C   UNL     1      46.603   4.276   7.780  0.00  0.00    +0.000 C 
BRANCH  13  17
ATOM     17  O   UNL     1      46.993   1.797   7.728  0.00  0.00    +0.000 OA
ATOM     18  H   UNL     1      47.032   1.082   7.074  0.00  0.00    +0.000 HD
ENDBRANCH  13  17
ENDBRANCH  11  15
ENDBRANCH   4  11
ENDBRANCH   1   6
BRANCH   1  19
ATOM     19  C   UNL     1      47.981   7.034  12.766  0.00  0.00    +0.000 C 
BRANCH  19  20
ATOM     20  N   UNL     1      48.487   7.367  14.118  0.00  0.00    +0.000 N 
ATOM     21  C   UNL     1      48.244   6.324  15.032  0.00  0.00    +0.000 A 
ATOM     22  C   UNL     1      48.652   6.434  16.368  0.00  0.00    +0.000 A 
ATOM     23  N   UNL     1      48.459   5.468  17.308  0.00  0.00    +0.000 NA
ATOM     24  C   UNL     1      47.844   4.346  16.842  0.00  0.00    +0.000 A 
ATOM     25  C   UNL     1      47.454   4.208  15.524  0.00  0.00    +0.000 A 
ATOM     26  N   UNL     1      47.649   5.186  14.604  0.00  0.00    +0.000 NA
ATOM     27  H   UNL     1      48.105   8.249  14.469  0.00  0.00    +0.000 HD
BRANCH  24  28
ATOM     28  C   UNL     1      47.575   3.238  17.798  0.00  0.00    +0.000 C 
ATOM     29  N   UNL     1      48.443   3.132  18.846  0.00  0.00    +0.000 N 
ATOM     30  O   UNL     1      46.630   2.471  17.660  0.00  0.00    +0.000 OA
ATOM     31  H   UNL     1      49.218   3.779  18.937  0.00  0.00    +0.000 HD
ATOM     32  H   UNL     1      48.309   2.397  19.532  0.00  0.00    +0.000 HD
ENDBRANCH  24  28
ENDBRANCH  19  20
ENDBRANCH   1  19
TORSDOF 7
ENDMDL
MODEL 4
REMARK VINA RESULT:    -7.633      3.092      3.810
REMARK INTER + INTRA:         -11.413
REMARK INTER:                 -10.321
REMARK INTRA:                  -1.093
REMARK UNBOUND:                -0.880
REMARK  Name = 
REMARK  8 active torsions:
REMARK  status: ('A' for Active; 'I' for Inactive)
REMARK    1  A    between atoms: C_1  and  C_2
REMARK    2  A    between atoms: C_2  and  O_3
REMARK    3  A    between atoms: C_5  and  O_6
REMARK    4  A    between atoms: O_6  and  C_7
REMARK    5  A    between atoms: C_9  and  C_10
REMARK    6  A    between atoms: C_10  and  C_13
REMARK    7  A    between atoms: C_13  and  N_14
REMARK    8  A    between atoms: C_18  and  C_19
REMARK                            x       y       z     vdW  Elec       q    Type
REMARK                         _______ _______ _______ _____ _____    ______ ____
ROOT
ATOM      1  C   UNL     1      43.865   5.118  12.245  0.00  0.00    +0.000 C 
ATOM      2  F   UNL     1      44.735   4.244  12.838  0.00  0.00    +0.000 F 
ATOM      3  F   UNL     1      42.746   5.094  13.036  0.00  0.00    +0.000 F 
ENDROOT
BRANCH   1   6
ATOM      4  C   UNL     1      46.333   7.984  12.808  0.00  0.00    +0.000 A 
ATOM      5  C   UNL     1      45.680   6.746  12.874  0.00  0.00    +0.000 A 
ATOM      6  C   UNL     1      44.472   6.519  12.188  0.00  0.00    +0.000 A 
ATOM      7  C   UNL     1      43.915   7.582  11.457  0.00  0.00    +0.000 A 
ATOM      8  C   UNL     1      44.577   8.808  11.361  0.00  0.00    +0.000 A 
ATOM      9  C   UNL     1      45.792   9.004  12.016  0.00  0.00    +0.000 A 
ATOM     10 CL   UNL     1      46.587  10.522  11.815  0.00  0.00    +0.000 Cl
BRANCH   4  11
ATOM     11  O   UNL     1      47.511   8.235  13.480  0.00  0.00    +0.000 OA
BRANCH  11  15
ATOM     12  C   UNL     1      51.529   8.215  11.428  0.00  0.00    +0.000 C 
ATOM     13  C   UNL     1      50.142   8.398  12.022  0.00  0.00    +0.000 C 
ATOM     14  C   UNL     1      50.053   7.959  13.504  0.00  0.00    +0.000 C 
ATOM     15  C   UNL     1      48.649   7.380  13.201  0.00  0.00    +0.000 C 
ATOM     16  C   UNL     1      49.091   7.297  11.717  0.00  0.00    +0.000 C 
BRANCH  13  17
ATOM     17  O   UNL     1      49.686   9.736  11.728  0.00  0.00    +0.000 OA
ATOM     18  H   UNL     1      48.865   9.856  12.233  0.00  0.00    +0.000 HD
ENDBRANCH  13  17
ENDBRANCH  11  15
ENDBRANCH   4  11
ENDBRANCH   1   6
BRANCH   1  19
ATOM     19  C   UNL     1      43.471   4.552  10.862  0.00  0.00    +0.000 C 
BRANCH  19  20
ATOM     20  N   UNL     1      43.883   3.152  10.602  0.00  0.00    +0.000 N 
ATOM     21  C   UNL     1      44.745   3.066   9.493  0.00  0.00    +0.000 A 
ATOM     22  C   UNL     1      45.258   1.829   9.081  0.00  0.00    +0.000 A 
ATOM     23  N   UNL     1      46.102   1.665   8.025  0.00  0.00    +0.000 NA
ATOM     24  C   UNL     1      46.439   2.822   7.390  0.00  0.00    +0.000 A 
ATOM     25  C   UNL     1      45.962   4.054   7.794  0.00  0.00    +0.000 A 
ATOM     26  N   UNL     1      45.116   4.195   8.845  0.00  0.00    +0.000 NA
ATOM     27  H   UNL     1      43.081   2.529  10.484  0.00  0.00    +0.000 HD
BRANCH  24  28
ATOM     28  C   UNL     1      47.345   2.745   6.213  0.00  0.00    +0.000 C 
ATOM     29  N   UNL     1      48.642   2.411   6.480  0.00  0.00    +0.000 N 
ATOM     30  O   UNL     1      46.953   2.959   5.072  0.00  0.00    +0.000 OA
ATOM     31  H   UNL     1      48.941   2.239   7.433  0.00  0.00    +0.000 HD
ATOM     32  H   UNL     1      49.305   2.340   5.717  0.00  0.00    +0.000 HD
ENDBRANCH  24  28
ENDBRANCH  19  20
ENDBRANCH   1  19
TORSDOF 7
ENDMDL
MODEL 5
REMARK VINA RESULT:    -7.398      4.305      8.432
REMARK INTER + INTRA:         -11.089
REMARK INTER:                 -10.243
REMARK INTRA:                  -0.846
REMARK UNBOUND:                -0.880
REMARK  Name = 
REMARK  8 active torsions:
REMARK  status: ('A' for Active; 'I' for Inactive)
REMARK    1  A    between atoms: C_1  and  C_2
REMARK    2  A    between atoms: C_2  and  O_3
REMARK    3  A    between atoms: C_5  and  O_6
REMARK    4  A    between atoms: O_6  and  C_7
REMARK    5  A    between atoms: C_9  and  C_10
REMARK    6  A    between atoms: C_10  and  C_13
REMARK    7  A    between atoms: C_13  and  N_14
REMARK    8  A    between atoms: C_18  and  C_19
REMARK                            x       y       z     vdW  Elec       q    Type
REMARK                         _______ _______ _______ _____ _____    ______ ____
ROOT
ATOM      1  C   UNL     1      47.478   7.028  12.291  0.00  0.00    +0.000 C 
ATOM      2  F   UNL     1      48.049   7.232  11.064  0.00  0.00    +0.000 F 
ATOM      3  F   UNL     1      47.028   8.263  12.680  0.00  0.00    +0.000 F 
ENDROOT
BRANCH   1   6
ATOM      4  C   UNL     1      44.792   4.805  10.722  0.00  0.00    +0.000 A 
ATOM      5  C   UNL     1      45.798   5.762  10.907  0.00  0.00    +0.000 A 
ATOM      6  C   UNL     1      46.326   6.029  12.184  0.00  0.00    +0.000 A 
ATOM      7  C   UNL     1      45.793   5.332  13.281  0.00  0.00    +0.000 A 
ATOM      8  C   UNL     1      44.813   4.354  13.099  0.00  0.00    +0.000 A 
ATOM      9  C   UNL     1      44.327   4.075  11.823  0.00  0.00    +0.000 A 
ATOM     10 CL   UNL     1      43.156   2.819  11.656  0.00  0.00    +0.000 Cl
BRANCH   4  11
ATOM     11  O   UNL     1      44.250   4.533   9.483  0.00  0.00    +0.000 OA
BRANCH  11  15
ATOM     12  C   UNL     1      47.143   2.384   6.768  0.00  0.00    +0.000 C 
ATOM     13  C   UNL     1      46.257   3.280   7.618  0.00  0.00    +0.000 C 
ATOM     14  C   UNL     1      45.961   2.691   9.019  0.00  0.00    +0.000 C 
ATOM     15  C   UNL     1      44.517   3.235   8.893  0.00  0.00    +0.000 C 
ATOM     16  C   UNL     1      44.728   3.215   7.357  0.00  0.00    +0.000 C 
BRANCH  13  17
ATOM     17  O   UNL     1      46.794   4.620   7.594  0.00  0.00    +0.000 OA
ATOM     18  H   UNL     1      47.754   4.521   7.493  0.00  0.00    +0.000 HD
ENDBRANCH  13  17
ENDBRANCH  11  15
ENDBRANCH   4  11
ENDBRANCH   1   6
BRANCH   1  19
ATOM     19  C   UNL     1      48.585   6.600  13.280  0.00  0.00    +0.000 C 
BRANCH  19  20
ATOM     20  N   UNL     1      48.765   7.481  14.459  0.00  0.00    +0.000 N 
ATOM     21  C   UNL     1      48.709   6.751  15.661  0.00  0.00    +0.000 A 
ATOM     22  C   UNL     1      48.865   7.395  16.896  0.00  0.00    +0.000 A 
ATOM     23  N   UNL     1      48.830   6.759  18.100  0.00  0.00    +0.000 NA
ATOM     24  C   UNL     1      48.650   5.411  18.017  0.00  0.00    +0.000 A 
ATOM     25  C   UNL     1      48.517   4.754  16.809  0.00  0.00    +0.000 A 
ATOM     26  N   UNL     1      48.547   5.408  15.621  0.00  0.00    +0.000 NA
ATOM     27  H   UNL     1      48.092   8.251  14.473  0.00  0.00    +0.000 HD
BRANCH  24  28
ATOM     28  C   UNL     1      48.583   4.628  19.280  0.00  0.00    +0.000 C 
ATOM     29  N   UNL     1      48.417   3.280  19.138  0.00  0.00    +0.000 N 
ATOM     30  O   UNL     1      48.677   5.156  20.381  0.00  0.00    +0.000 OA
ATOM     31  H   UNL     1      48.341   2.868  18.215  0.00  0.00    +0.000 HD
ATOM     32  H   UNL     1      48.367   2.694  19.963  0.00  0.00    +0.000 HD
ENDBRANCH  24  28
ENDBRANCH  19  20
ENDBRANCH   1  19
TORSDOF 7
ENDMDL
MODEL 6
REMARK VINA RESULT:    -6.867      4.752      7.813
REMARK INTER + INTRA:         -10.356
REMARK INTER:                  -9.282
REMARK INTRA:                  -1.074
REMARK UNBOUND:                -0.880
REMARK  Name = 
REMARK  8 active torsions:
REMARK  status: ('A' for Active; 'I' for Inactive)
REMARK    1  A    between atoms: C_1  and  C_2
REMARK    2  A    between atoms: C_2  and  O_3
REMARK    3  A    between atoms: C_5  and  O_6
REMARK    4  A    between atoms: O_6  and  C_7
REMARK    5  A    between atoms: C_9  and  C_10
REMARK    6  A    between atoms: C_10  and  C_13
REMARK    7  A    between atoms: C_13  and  N_14
REMARK    8  A    between atoms: C_18  and  C_19
REMARK                            x       y       z     vdW  Elec       q    Type
REMARK                         _______ _______ _______ _____ _____    ______ ____
ROOT
ATOM      1  C   UNL     1      48.563   9.250  12.894  0.00  0.00    +0.000 C 
ATOM      2  F   UNL     1      49.528   9.670  12.020  0.00  0.00    +0.000 F 
ATOM      3  F   UNL     1      48.699  10.064  13.988  0.00  0.00    +0.000 F 
ENDROOT
BRANCH   1   6
ATOM      4  C   UNL     1      45.082   8.302  11.628  0.00  0.00    +0.000 A 
ATOM      5  C   UNL     1      46.390   8.236  12.125  0.00  0.00    +0.000 A 
ATOM      6  C   UNL     1      47.177   9.395  12.268  0.00  0.00    +0.000 A 
ATOM      7  C   UNL     1      46.627  10.623  11.865  0.00  0.00    +0.000 A 
ATOM      8  C   UNL     1      45.312  10.700  11.399  0.00  0.00    +0.000 A 
ATOM      9  C   UNL     1      44.533   9.548  11.299  0.00  0.00    +0.000 A 
ATOM     10 CL   UNL     1      42.901   9.714  10.768  0.00  0.00    +0.000 Cl
BRANCH   4  11
ATOM     11  O   UNL     1      44.295   7.180  11.468  0.00  0.00    +0.000 OA
BRANCH  11  15
ATOM     12  C   UNL     1      43.389   2.773  11.799  0.00  0.00    +0.000 C 
ATOM     13  C   UNL     1      43.498   4.287  11.734  0.00  0.00    +0.000 C 
ATOM     14  C   UNL     1      44.411   4.783  10.586  0.00  0.00    +0.000 C 
ATOM     15  C   UNL     1      44.938   5.882  11.542  0.00  0.00    +0.000 C 
ATOM     16  C   UNL     1      44.494   4.967  12.712  0.00  0.00    +0.000 C 
BRANCH  13  17
ATOM     17  O   UNL     1      42.168   4.849  11.774  0.00  0.00    +0.000 OA
ATOM     18  H   UNL     1      41.602   4.231  11.286  0.00  0.00    +0.000 HD
ENDBRANCH  13  17
ENDBRANCH  11  15
ENDBRANCH   4  11
ENDBRANCH   1   6
BRANCH   1  19
ATOM     19  C   UNL     1      48.899   7.809  13.339  0.00  0.00    +0.000 C 
BRANCH  19  20
ATOM     20  N   UNL     1      49.597   7.688  14.641  0.00  0.00    +0.000 N 
ATOM     21  C   UNL     1      49.076   6.629  15.409  0.00  0.00    +0.000 A 
ATOM     22  C   UNL     1      49.603   6.338  16.674  0.00  0.00    +0.000 A 
ATOM     23  N   UNL     1      49.158   5.328  17.473  0.00  0.00    +0.000 NA
ATOM     24  C   UNL     1      48.152   4.587  16.932  0.00  0.00    +0.000 A 
ATOM     25  C   UNL     1      47.634   4.843  15.677  0.00  0.00    +0.000 A 
ATOM     26  N   UNL     1      48.087   5.859  14.900  0.00  0.00    +0.000 NA
ATOM     27  H   UNL     1      49.579   8.561  15.172  0.00  0.00    +0.000 HD
BRANCH  24  28
ATOM     28  C   UNL     1      47.588   3.468  17.735  0.00  0.00    +0.000 C 
ATOM     29  N   UNL     1      48.293   3.121  18.852  0.00  0.00    +0.000 N 
ATOM     30  O   UNL     1      46.551   2.897  17.421  0.00  0.00    +0.000 OA
ATOM     31  H   UNL     1      49.149   3.610  19.089  0.00  0.00    +0.000 HD
ATOM     32  H   UNL     1      47.956   2.368  19.440  0.00  0.00    +0.000 HD
ENDBRANCH  24  28
ENDBRANCH  19  20
ENDBRANCH   1  19
TORSDOF 7
ENDMDL
MODEL 7
REMARK VINA RESULT:    -6.671      3.394      5.617
REMARK INTER + INTRA:         -10.086
REMARK INTER:                  -9.335
REMARK INTRA:                  -0.751
REMARK UNBOUND:                -0.880
REMARK  Name = 
REMARK  8 active torsions:
REMARK  status: ('A' for Active; 'I' for Inactive)
REMARK    1  A    between atoms: C_1  and  C_2
REMARK    2  A    between atoms: C_2  and  O_3
REMARK    3  A    between atoms: C_5  and  O_6
REMARK    4  A    between atoms: O_6  and  C_7
REMARK    5  A    between atoms: C_9  and  C_10
REMARK    6  A    between atoms: C_10  and  C_13
REMARK    7  A    between atoms: C_13  and  N_14
REMARK    8  A    between atoms: C_18  and  C_19
REMARK                            x       y       z     vdW  Elec       q    Type
REMARK                         _______ _______ _______ _____ _____    ______ ____
ROOT
ATOM      1  C   UNL     1      47.959   3.631  16.983  0.00  0.00    +0.000 C 
ATOM      2  F   UNL     1      49.162   2.986  17.086  0.00  0.00    +0.000 F 
ATOM      3  F   UNL     1      47.092   2.882  17.735  0.00  0.00    +0.000 F 
ENDROOT
BRANCH   1   6
ATOM      4  C   UNL     1      48.969   7.312  17.216  0.00  0.00    +0.000 A 
ATOM      5  C   UNL     1      48.877   5.970  16.822  0.00  0.00    +0.000 A 
ATOM      6  C   UNL     1      48.070   5.056  17.524  0.00  0.00    +0.000 A 
ATOM      7  C   UNL     1      47.378   5.516  18.657  0.00  0.00    +0.000 A 
ATOM      8  C   UNL     1      47.440   6.859  19.036  0.00  0.00    +0.000 A 
ATOM      9  C   UNL     1      48.216   7.760  18.307  0.00  0.00    +0.000 A 
ATOM     10 CL   UNL     1      48.209   9.416  18.792  0.00  0.00    +0.000 Cl
BRANCH   4  11
ATOM     11  O   UNL     1      49.762   8.224  16.552  0.00  0.00    +0.000 OA
BRANCH  11  15
ATOM     12  C   UNL     1      48.762   8.433  12.157  0.00  0.00    +0.000 C 
ATOM     13  C   UNL     1      49.218   8.204  13.589  0.00  0.00    +0.000 C 
ATOM     14  C   UNL     1      48.089   8.417  14.627  0.00  0.00    +0.000 C 
ATOM     15  C   UNL     1      49.135   9.077  15.560  0.00  0.00    +0.000 C 
ATOM     16  C   UNL     1      49.970   9.369  14.286  0.00  0.00    +0.000 C 
BRANCH  13  17
ATOM     17  O   UNL     1      49.912   6.940  13.657  0.00  0.00    +0.000 OA
ATOM     18  H   UNL     1      50.194   6.740  12.750  0.00  0.00    +0.000 HD
ENDBRANCH  13  17
ENDBRANCH  11  15
ENDBRANCH   4  11
ENDBRANCH   1   6
BRANCH   1  19
ATOM     19  C   UNL     1      47.488   3.557  15.513  0.00  0.00    +0.000 C 
BRANCH  19  20
ATOM     20  N   UNL     1      46.747   4.740  15.018  0.00  0.00    +0.000 N 
ATOM     21  C   UNL     1      46.099   4.469  13.798  0.00  0.00    +0.000 A 
ATOM     22  C   UNL     1      45.334   5.455  13.161  0.00  0.00    +0.000 A 
ATOM     23  N   UNL     1      44.673   5.268  11.984  0.00  0.00    +0.000 NA
ATOM     24  C   UNL     1      44.794   4.014  11.466  0.00  0.00    +0.000 A 
ATOM     25  C   UNL     1      45.524   3.022  12.090  0.00  0.00    +0.000 A 
ATOM     26  N   UNL     1      46.181   3.231  13.258  0.00  0.00    +0.000 NA
ATOM     27  H   UNL     1      47.345   5.565  14.932  0.00  0.00    +0.000 HD
BRANCH  24  28
ATOM     28  C   UNL     1      44.119   3.716  10.174  0.00  0.00    +0.000 C 
ATOM     29  N   UNL     1      43.832   4.796   9.388  0.00  0.00    +0.000 N 
ATOM     30  O   UNL     1      43.844   2.573   9.829  0.00  0.00    +0.000 OA
ATOM     31  H   UNL     1      44.069   5.731   9.697  0.00  0.00    +0.000 HD
ATOM     32  H   UNL     1      43.375   4.654   8.495  0.00  0.00    +0.000 HD
ENDBRANCH  24  28
ENDBRANCH  19  20
ENDBRANCH   1  19
TORSDOF 7
ENDMDL
MODEL 8
REMARK VINA RESULT:    -6.596      3.460      4.953
REMARK INTER + INTRA:          -9.983
REMARK INTER:                  -9.108
REMARK INTRA:                  -0.875
REMARK UNBOUND:                -0.880
REMARK  Name = 
REMARK  8 active torsions:
REMARK  status: ('A' for Active; 'I' for Inactive)
REMARK    1  A    between atoms: C_1  and  C_2
REMARK    2  A    between atoms: C_2  and  O_3
REMARK    3  A    between atoms: C_5  and  O_6
REMARK    4  A    between atoms: O_6  and  C_7
REMARK    5  A    between atoms: C_9  and  C_10
REMARK    6  A    between atoms: C_10  and  C_13
REMARK    7  A    between atoms: C_13  and  N_14
REMARK    8  A    between atoms: C_18  and  C_19
REMARK                            x       y       z     vdW  Elec       q    Type
REMARK                         _______ _______ _______ _____ _____    ______ ____
ROOT
ATOM      1  C   UNL     1      48.351   8.434  12.170  0.00  0.00    +0.000 C 
ATOM      2  F   UNL     1      48.469   9.526  11.354  0.00  0.00    +0.000 F 
ATOM      3  F   UNL     1      48.730   7.370  11.393  0.00  0.00    +0.000 F 
ENDROOT
BRANCH   1   6
ATOM      4  C   UNL     1      50.502   7.456  15.176  0.00  0.00    +0.000 A 
ATOM      5  C   UNL     1      49.614   7.412  14.094  0.00  0.00    +0.000 A 
ATOM      6  C   UNL     1      49.261   8.578  13.389  0.00  0.00    +0.000 A 
ATOM      7  C   UNL     1      49.799   9.802  13.822  0.00  0.00    +0.000 A 
ATOM      8  C   UNL     1      50.710   9.849  14.879  0.00  0.00    +0.000 A 
ATOM      9  C   UNL     1      51.078   8.679  15.543  0.00  0.00    +0.000 A 
ATOM     10 CL   UNL     1      52.247   8.794  16.806  0.00  0.00    +0.000 Cl
BRANCH   4  11
ATOM     11  O   UNL     1      50.854   6.329  15.890  0.00  0.00    +0.000 OA
BRANCH  11  15
ATOM     12  C   UNL     1      47.315   4.196  17.700  0.00  0.00    +0.000 C 
ATOM     13  C   UNL     1      48.420   4.876  16.910  0.00  0.00    +0.000 C 
ATOM     14  C   UNL     1      49.831   4.621  17.495  0.00  0.00    +0.000 C 
ATOM     15  C   UNL     1      50.187   6.090  17.156  0.00  0.00    +0.000 C 
ATOM     16  C   UNL     1      48.664   6.383  17.190  0.00  0.00    +0.000 C 
BRANCH  13  17
ATOM     17  O   UNL     1      48.248   4.564  15.511  0.00  0.00    +0.000 OA
ATOM     18  H   UNL     1      48.539   3.645  15.403  0.00  0.00    +0.000 HD
ENDBRANCH  13  17
ENDBRANCH  11  15
ENDBRANCH   4  11
ENDBRANCH   1   6
BRANCH   1  19
ATOM     19  C   UNL     1      46.859   8.246  12.524  0.00  0.00    +0.000 C 
BRANCH  19  20
ATOM     20  N   UNL     1      46.563   7.169  13.497  0.00  0.00    +0.000 N 
ATOM     21  C   UNL     1      45.912   6.083  12.881  0.00  0.00    +0.000 A 
ATOM     22  C   UNL     1      45.549   4.952  13.624  0.00  0.00    +0.000 A 
ATOM     23  N   UNL     1      44.925   3.860  13.100  0.00  0.00    +0.000 NA
ATOM     24  C   UNL     1      44.690   3.938  11.761  0.00  0.00    +0.000 A 
ATOM     25  C   UNL     1      45.060   5.033  11.005  0.00  0.00    +0.000 A 
ATOM     26  N   UNL     1      45.675   6.114  11.549  0.00  0.00    +0.000 NA
ATOM     27  H   UNL     1      46.021   7.506  14.296  0.00  0.00    +0.000 HD
BRANCH  24  28
ATOM     28  C   UNL     1      43.998   2.799  11.098  0.00  0.00    +0.000 C 
ATOM     29  N   UNL     1      44.624   2.278  10.001  0.00  0.00    +0.000 N 
ATOM     30  O   UNL     1      42.936   2.350  11.511  0.00  0.00    +0.000 OA
ATOM     31  H   UNL     1      45.502   2.669   9.679  0.00  0.00    +0.000 HD
ATOM     32  H   UNL     1      44.201   1.500   9.510  0.00  0.00    +0.000 HD
ENDBRANCH  24  28
ENDBRANCH  19  20
ENDBRANCH   1  19
TORSDOF 7
ENDMDL
