MODEL 1
REMARK VINA RESULT:    -8.335      0.000      0.000
REMARK INTER + INTRA:         -12.625
REMARK INTER:                 -11.502
REMARK INTRA:                  -1.122
REMARK UNBOUND:                -1.122
REMARK  Name = 
REMARK  8 active torsions:
REMARK  status: ('A' for Active; 'I' for Inactive)
REMARK    1  A    between atoms: C_1  and  C_2
REMARK    2  A    between atoms: C_2  and  C_3
REMARK    3  A    between atoms: C_7  and  C_8
REMARK    4  A    between atoms: C_8  and  C_9
REMARK    5  A    between atoms: C_9  and  N_10
REMARK    6  A    between atoms: N_10  and  C_11
REMARK    7  A    between atoms: C_14  and  C_15
REMARK    8  A    between atoms: C_23  and  O_24
REMARK                            x       y       z     vdW  Elec       q    Type
REMARK                         _______ _______ _______ _____ _____    ______ ____
ROOT
ATOM      1  C   UNL     1      44.679   3.664   9.586  0.00  0.00    +0.000 A 
ATOM      2  C   UNL     1      43.988   2.824  10.471  0.00  0.00    +0.000 A 
ATOM      3  C   UNL     1      43.460   3.315  11.672  0.00  0.00    +0.000 A 
ATOM      4  C   UNL     1      43.622   4.655  12.025  0.00  0.00    +0.000 A 
ATOM      5  C   UNL     1      44.295   5.529  11.168  0.00  0.00    +0.000 A 
ATOM      6  C   UNL     1      44.781   5.014   9.952  0.00  0.00    +0.000 A 
ENDROOT
BRANCH   1   8
ATOM      7  C   UNL     1      44.300   2.997   7.228  0.00  0.00    +0.000 C 
ATOM      8  C   UNL     1      45.389   3.114   8.324  0.00  0.00    +0.000 C 
ATOM      9  C   UNL     1      46.523   4.076   7.881  0.00  0.00    +0.000 C 
ATOM     10  C   UNL     1      47.334   3.561   6.689  0.00  0.00    +0.000 C 
ATOM     11  C   UNL     1      47.903   2.166   6.932  0.00  0.00    +0.000 C 
ATOM     12  C   UNL     1      46.823   1.179   7.355  0.00  0.00    +0.000 C 
ATOM     13  C   UNL     1      46.024   1.703   8.543  0.00  0.00    +0.000 C 
BRANCH  11  14
ATOM     14  O   UNL     1      48.538   1.694   5.749  0.00  0.00    +0.000 OA
ATOM     15  H   UNL     1      48.798   2.466   5.217  0.00  0.00    +0.000 HD
ENDBRANCH  11  14
ENDBRANCH   1   8
BRANCH   5  16
ATOM     16  C   UNL     1      44.532   6.974  11.585  0.00  0.00    +0.000 C 
BRANCH  16  17
ATOM     17  C   UNL     1      45.417   7.096  12.830  0.00  0.00    +0.000 C 
BRANCH  17  18
ATOM     18  N   UNL     1      46.770   6.559  12.674  0.00  0.00    +0.000 N 
ATOM     19  H   UNL     1      47.473   7.297  12.639  0.00  0.00    +0.000 HD
BRANCH  18  20
ATOM     20  C   UNL     1      47.100   5.585  13.642  0.00  0.00    +0.000 A 
ATOM     21  C   UNL     1      46.897   4.216  13.494  0.00  0.00    +0.000 A 
ATOM     22  N   UNL     1      47.237   3.272  14.395  0.00  0.00    +0.000 NA
ATOM     23  C   UNL     1      47.864   3.732  15.499  0.00  0.00    +0.000 A 
ATOM     24  N   UNL     1      48.172   5.019  15.748  0.00  0.00    +0.000 NA
ATOM     25  C   UNL     1      47.796   5.906  14.798  0.00  0.00    +0.000 A 
BRANCH  23  26
ATOM     26  C   UNL     1      48.249   2.687  16.521  0.00  0.00    +0.000 C 
ATOM     27  N   UNL     1      47.575   2.759  17.721  0.00  0.00    +0.000 N 
ATOM     28  O   UNL     1      49.094   1.822  16.334  0.00  0.00    +0.000 OA
ATOM     29  H   UNL     1      46.861   3.464  17.860  0.00  0.00    +0.000 HD
ATOM     30  H   UNL     1      47.770   2.074  18.437  0.00  0.00    +0.000 HD
ENDBRANCH  23  26
ENDBRANCH  18  20
ENDBRANCH  17  18
ENDBRANCH  16  17
ENDBRANCH   5  16
TORSDOF 7
ENDMDL
MODEL 2
REMARK VINA RESULT:    -7.938      3.844      7.195
REMARK INTER + INTRA:         -12.076
REMARK INTER:                 -11.023
REMARK INTRA:                  -1.053
REMARK UNBOUND:                -1.122
REMARK  Name = 
REMARK  8 active torsions:
REMARK  status: ('A' for Active; 'I' for Inactive)
REMARK    1  A    between atoms: C_1  and  C_2
REMARK    2  A    between atoms: C_2  and  C_3
REMARK    3  A    between atoms: C_7  and  C_8
REMARK    4  A    between atoms: C_8  and  C_9
REMARK    5  A    between atoms: C_9  and  N_10
REMARK    6  A    between atoms: N_10  and  C_11
REMARK    7  A    between atoms: C_14  and  C_15
REMARK    8  A    between atoms: C_23  and  O_24
REMARK                            x       y       z     vdW  Elec       q    Type
REMARK                         _______ _______ _______ _____ _____    ______ ____
ROOT
ATOM      1  C   UNL     1      46.942   6.677  13.035  0.00  0.00    +0.000 A 
ATOM      2  C   UNL     1      47.523   5.578  13.685  0.00  0.00    +0.000 A 
ATOM      3  C   UNL     1      46.801   4.396  13.894  0.00  0.00    +0.000 A 
ATOM      4  C   UNL     1      45.475   4.287  13.471  0.00  0.00    +0.000 A 
ATOM      5  C   UNL     1      44.861   5.354  12.810  0.00  0.00    +0.000 A 
ATOM      6  C   UNL     1      45.625   6.515  12.583  0.00  0.00    +0.000 A 
ENDROOT
BRANCH   1   8
ATOM      7  C   UNL     1      48.004   8.478  14.367  0.00  0.00    +0.000 C 
ATOM      8  C   UNL     1      47.673   8.037  12.919  0.00  0.00    +0.000 C 
ATOM      9  C   UNL     1      48.966   7.884  12.075  0.00  0.00    +0.000 C 
ATOM     10  C   UNL     1      49.705   9.204  11.838  0.00  0.00    +0.000 C 
ATOM     11  C   UNL     1      48.805  10.271  11.220  0.00  0.00    +0.000 C 
ATOM     12  C   UNL     1      47.526  10.470  12.024  0.00  0.00    +0.000 C 
ATOM     13  C   UNL     1      46.801   9.148  12.251  0.00  0.00    +0.000 C 
BRANCH  11  14
ATOM     14  O   UNL     1      49.510  11.505  11.140  0.00  0.00    +0.000 OA
ATOM     15  H   UNL     1      49.704  11.681  10.203  0.00  0.00    +0.000 HD
ENDBRANCH  11  14
ENDBRANCH   1   8
BRANCH   5  16
ATOM     16  C   UNL     1      43.395   5.261  12.411  0.00  0.00    +0.000 C 
BRANCH  16  17
ATOM     17  C   UNL     1      43.170   4.377  11.179  0.00  0.00    +0.000 C 
BRANCH  17  18
ATOM     18  N   UNL     1      43.711   4.917   9.931  0.00  0.00    +0.000 N 
ATOM     19  H   UNL     1      44.177   5.813  10.072  0.00  0.00    +0.000 HD
BRANCH  18  20
ATOM     20  C   UNL     1      44.550   4.010   9.247  0.00  0.00    +0.000 A 
ATOM     21  C   UNL     1      45.577   4.376   8.381  0.00  0.00    +0.000 A 
ATOM     22  N   UNL     1      46.407   3.524   7.745  0.00  0.00    +0.000 NA
ATOM     23  C   UNL     1      46.221   2.218   8.037  0.00  0.00    +0.000 A 
ATOM     24  N   UNL     1      45.305   1.728   8.893  0.00  0.00    +0.000 NA
ATOM     25  C   UNL     1      44.509   2.645   9.489  0.00  0.00    +0.000 A 
BRANCH  23  26
ATOM     26  C   UNL     1      47.140   1.249   7.330  0.00  0.00    +0.000 C 
ATOM     27  N   UNL     1      48.247   1.813   6.734  0.00  0.00    +0.000 N 
ATOM     28  O   UNL     1      46.950   0.041   7.270  0.00  0.00    +0.000 OA
ATOM     29  H   UNL     1      48.409   2.810   6.807  0.00  0.00    +0.000 HD
ATOM     30  H   UNL     1      48.912   1.215   6.266  0.00  0.00    +0.000 HD
ENDBRANCH  23  26
ENDBRANCH  18  20
ENDBRANCH  17  18
ENDBRANCH  16  17
ENDBRANCH   5  16
TORSDOF 7
ENDMDL
MODEL 3
REMARK VINA RESULT:    -7.317      2.985      4.574
REMARK INTER + INTRA:         -11.219
REMARK INTER:                  -9.952
REMARK INTRA:                  -1.267
REMARK UNBOUND:                -1.122
REMARK  Name = 
REMARK  8 active torsions:
REMARK  status: ('A' for Active; 'I' for Inactive)
REMARK    1  A    between atoms: C_1  and  C_2
REMARK    2  A    between atoms: C_2  and  C_3
REMARK    3  A    between atoms: C_7  and  C_8
REMARK    4  A    between atoms: C_8  and  C_9
REMARK    5  A    between atoms: C_9  and  N_10
REMARK    6  A    between atoms: N_10  and  C_11
REMARK    7  A    between atoms: C_14  and  C_15
REMARK    8  A    between atoms: C_23  and  O_24
REMARK                            x       y       z     vdW  Elec       q    Type
REMARK                         _______ _______ _______ _____ _____    ______ ____
ROOT
ATOM      1  C   UNL     1      45.836   7.077  11.677  0.00  0.00    +0.000 A 
ATOM      2  C   UNL     1      45.051   8.183  12.034  0.00  0.00    +0.000 A 
ATOM      3  C   UNL     1      45.640   9.382  12.454  0.00  0.00    +0.000 A 
ATOM      4  C   UNL     1      47.028   9.502  12.541  0.00  0.00    +0.000 A 
ATOM      5  C   UNL     1      47.847   8.428  12.186  0.00  0.00    +0.000 A 
ATOM      6  C   UNL     1      47.227   7.249  11.733  0.00  0.00    +0.000 A 
ENDROOT
BRANCH   1   8
ATOM      7  C   UNL     1      45.649   5.356   9.901  0.00  0.00    +0.000 C 
ATOM      8  C   UNL     1      45.206   5.701  11.345  0.00  0.00    +0.000 C 
ATOM      9  C   UNL     1      45.698   4.626  12.350  0.00  0.00    +0.000 C 
ATOM     10  C   UNL     1      45.054   3.253  12.145  0.00  0.00    +0.000 C 
ATOM     11  C   UNL     1      43.529   3.319  12.162  0.00  0.00    +0.000 C 
ATOM     12  C   UNL     1      42.994   4.351  11.178  0.00  0.00    +0.000 C 
ATOM     13  C   UNL     1      43.644   5.714  11.394  0.00  0.00    +0.000 C 
BRANCH  11  14
ATOM     14  O   UNL     1      42.990   2.040  11.845  0.00  0.00    +0.000 OA
ATOM     15  H   UNL     1      42.034   2.143  11.699  0.00  0.00    +0.000 HD
ENDBRANCH  11  14
ENDBRANCH   1   8
BRANCH   5  16
ATOM     16  C   UNL     1      49.357   8.534  12.348  0.00  0.00    +0.000 C 
BRANCH  16  17
ATOM     17  C   UNL     1      49.906   7.604  13.435  0.00  0.00    +0.000 C 
BRANCH  17  18
ATOM     18  N   UNL     1      49.516   7.962  14.800  0.00  0.00    +0.000 N 
ATOM     19  H   UNL     1      48.880   8.759  14.820  0.00  0.00    +0.000 HD
BRANCH  18  20
ATOM     20  C   UNL     1      48.995   6.876  15.536  0.00  0.00    +0.000 A 
ATOM     21  C   UNL     1      48.212   5.856  15.002  0.00  0.00    +0.000 A 
ATOM     22  N   UNL     1      47.733   4.796  15.685  0.00  0.00    +0.000 NA
ATOM     23  C   UNL     1      48.106   4.734  16.981  0.00  0.00    +0.000 A 
ATOM     24  N   UNL     1      48.901   5.618  17.613  0.00  0.00    +0.000 NA
ATOM     25  C   UNL     1      49.338   6.655  16.862  0.00  0.00    +0.000 A 
BRANCH  23  26
ATOM     26  C   UNL     1      47.576   3.553  17.763  0.00  0.00    +0.000 C 
ATOM     27  N   UNL     1      48.279   3.239  18.906  0.00  0.00    +0.000 N 
ATOM     28  O   UNL     1      46.596   2.898  17.436  0.00  0.00    +0.000 OA
ATOM     29  H   UNL     1      49.076   3.800  19.181  0.00  0.00    +0.000 HD
ATOM     30  H   UNL     1      47.961   2.475  19.484  0.00  0.00    +0.000 HD
ENDBRANCH  23  26
ENDBRANCH  18  20
ENDBRANCH  17  18
ENDBRANCH  16  17
ENDBRANCH   5  16
TORSDOF 7
ENDMDL
MODEL 4
REMARK VINA RESULT:    -7.183      4.382      7.566
REMARK INTER + INTRA:         -11.035
REMARK INTER:                 -10.337
REMARK INTRA:                  -0.698
REMARK UNBOUND:                -1.122
REMARK  Name = 
REMARK  8 active torsions:
REMARK  status: ('A' for Active; 'I' for Inactive)
REMARK    1  A    between atoms: C_1  and  C_2
REMARK    2  A    between atoms: C_2  and  C_3
REMARK    3  A    between atoms: C_7  and  C_8
REMARK    4  A    between atoms: C_8  and  C_9
REMARK    5  A    between atoms: C_9  and  N_10
REMARK    6  A    between atoms: N_10  and  C_11
REMARK    7  A    between atoms: C_14  and  C_15
REMARK    8  A    between atoms: C_23  and  O_24
REMARK                            x       y       z     vdW  Elec       q    Type
REMARK                         _______ _______ _______ _____ _____    ______ ____
ROOT
ATOM      1  C   UNL     1      47.647   8.461  12.208  0.00  0.00    +0.000 A 
ATOM      2  C   UNL     1      46.638   9.431  12.305  0.00  0.00    +0.000 A 
ATOM      3  C   UNL     1      45.285   9.076  12.240  0.00  0.00    +0.000 A 
ATOM      4  C   UNL     1      44.905   7.745  12.060  0.00  0.00    +0.000 A 
ATOM      5  C   UNL     1      45.878   6.746  11.968  0.00  0.00    +0.000 A 
ATOM      6  C   UNL     1      47.228   7.130  12.075  0.00  0.00    +0.000 A 
ENDROOT
BRANCH   1   8
ATOM      7  C   UNL     1      49.615   9.037  13.601  0.00  0.00    +0.000 C 
ATOM      8  C   UNL     1      49.145   8.846  12.137  0.00  0.00    +0.000 C 
ATOM      9  C   UNL     1      49.957   7.726  11.434  0.00  0.00    +0.000 C 
ATOM     10  C   UNL     1      51.438   8.067  11.246  0.00  0.00    +0.000 C 
ATOM     11  C   UNL     1      51.641   9.391  10.515  0.00  0.00    +0.000 C 
ATOM     12  C   UNL     1      50.875  10.528  11.177  0.00  0.00    +0.000 C 
ATOM     13  C   UNL     1      49.402  10.176  11.358  0.00  0.00    +0.000 C 
BRANCH  11  14
ATOM     14  O   UNL     1      53.027   9.712  10.480  0.00  0.00    +0.000 OA
ATOM     15  H   UNL     1      53.384   9.417   9.624  0.00  0.00    +0.000 HD
ENDBRANCH  11  14
ENDBRANCH   1   8
BRANCH   5  16
ATOM     16  C   UNL     1      45.467   5.305  11.703  0.00  0.00    +0.000 C 
BRANCH  16  17
ATOM     17  C   UNL     1      44.089   5.192  11.041  0.00  0.00    +0.000 C 
BRANCH  17  18
ATOM     18  N   UNL     1      43.796   3.880  10.460  0.00  0.00    +0.000 N 
ATOM     19  H   UNL     1      42.842   3.824  10.103  0.00  0.00    +0.000 HD
BRANCH  18  20
ATOM     20  C   UNL     1      44.730   3.482   9.479  0.00  0.00    +0.000 A 
ATOM     21  C   UNL     1      45.164   2.174   9.279  0.00  0.00    +0.000 A 
ATOM     22  N   UNL     1      46.030   1.773   8.327  0.00  0.00    +0.000 NA
ATOM     23  C   UNL     1      46.454   2.745   7.491  0.00  0.00    +0.000 A 
ATOM     24  N   UNL     1      46.076   4.037   7.534  0.00  0.00    +0.000 NA
ATOM     25  C   UNL     1      45.208   4.361   8.518  0.00  0.00    +0.000 A 
BRANCH  23  26
ATOM     26  C   UNL     1      47.428   2.313   6.419  0.00  0.00    +0.000 C 
ATOM     27  N   UNL     1      47.325   2.987   5.221  0.00  0.00    +0.000 N 
ATOM     28  O   UNL     1      48.263   1.431   6.565  0.00  0.00    +0.000 OA
ATOM     29  H   UNL     1      46.646   3.731   5.116  0.00  0.00    +0.000 HD
ATOM     30  H   UNL     1      47.964   2.762   4.473  0.00  0.00    +0.000 HD
ENDBRANCH  23  26
ENDBRANCH  18  20
ENDBRANCH  17  18
ENDBRANCH  16  17
ENDBRANCH   5  16
TORSDOF 7
ENDMDL
MODEL 5
REMARK VINA RESULT:    -6.663      1.894      2.349
REMARK INTER + INTRA:         -10.318
REMARK INTER:                  -9.612
REMARK INTRA:                  -0.706
REMARK UNBOUND:                -1.122
REMARK  Name = 
REMARK  8 active torsions:
REMARK  status: ('A' for Active; 'I' for Inactive)
REMARK    1  A    between atoms: C_1  and  C_2
REMARK    2  A    between atoms: C_2  and  C_3
REMARK    3  A    between atoms: C_7  and  C_8
REMARK    4  A    between atoms: C_8  and  C_9
REMARK    5  A    between atoms: C_9  and  N_10
REMARK    6  A    between atoms: N_10  and  C_11
REMARK    7  A    between atoms: C_14  and  C_15
REMARK    8  A    between atoms: C_23  and  O_24
REMARK                            x       y       z     vdW  Elec       q    Type
REMARK                         _______ _______ _______ _____ _____    ______ ____
ROOT
ATOM      1  C   UNL     1      44.890   3.871   9.714  0.00  0.00    +0.000 A 
ATOM      2  C   UNL     1      43.659   3.433  10.225  0.00  0.00    +0.000 A 
ATOM      3  C   UNL     1      43.199   3.866  11.474  0.00  0.00    +0.000 A 
ATOM      4  C   UNL     1      43.963   4.737  12.252  0.00  0.00    +0.000 A 
ATOM      5  C   UNL     1      45.191   5.205  11.778  0.00  0.00    +0.000 A 
ATOM      6  C   UNL     1      45.609   4.781  10.502  0.00  0.00    +0.000 A 
ENDROOT
BRANCH   1   8
ATOM      7  C   UNL     1      44.315   3.253   7.383  0.00  0.00    +0.000 C 
ATOM      8  C   UNL     1      45.481   3.297   8.403  0.00  0.00    +0.000 C 
ATOM      9  C   UNL     1      46.634   4.200   7.890  0.00  0.00    +0.000 C 
ATOM     10  C   UNL     1      47.332   3.656   6.641  0.00  0.00    +0.000 C 
ATOM     11  C   UNL     1      47.838   2.229   6.833  0.00  0.00    +0.000 C 
ATOM     12  C   UNL     1      46.736   1.297   7.322  0.00  0.00    +0.000 C 
ATOM     13  C   UNL     1      46.051   1.851   8.566  0.00  0.00    +0.000 C 
BRANCH  11  14
ATOM     14  O   UNL     1      48.363   1.737   5.606  0.00  0.00    +0.000 OA
ATOM     15  H   UNL     1      47.977   2.258   4.881  0.00  0.00    +0.000 HD
ENDBRANCH  11  14
ENDBRANCH   1   8
BRANCH   5  16
ATOM     16  C   UNL     1      46.056   6.099  12.655  0.00  0.00    +0.000 C 
BRANCH  16  17
ATOM     17  C   UNL     1      46.831   5.315  13.720  0.00  0.00    +0.000 C 
BRANCH  17  18
ATOM     18  N   UNL     1      47.899   6.071  14.378  0.00  0.00    +0.000 N 
ATOM     19  H   UNL     1      47.788   7.077  14.255  0.00  0.00    +0.000 HD
BRANCH  18  20
ATOM     20  C   UNL     1      48.059   5.740  15.742  0.00  0.00    +0.000 A 
ATOM     21  C   UNL     1      48.876   6.428  16.635  0.00  0.00    +0.000 A 
ATOM     22  N   UNL     1      49.015   6.145  17.946  0.00  0.00    +0.000 NA
ATOM     23  C   UNL     1      48.247   5.130  18.398  0.00  0.00    +0.000 A 
ATOM     24  N   UNL     1      47.377   4.416  17.660  0.00  0.00    +0.000 NA
ATOM     25  C   UNL     1      47.296   4.758  16.355  0.00  0.00    +0.000 A 
BRANCH  23  26
ATOM     26  C   UNL     1      48.394   4.797  19.865  0.00  0.00    +0.000 C 
ATOM     27  N   UNL     1      48.604   3.465  20.150  0.00  0.00    +0.000 N 
ATOM     28  O   UNL     1      48.335   5.623  20.767  0.00  0.00    +0.000 OA
ATOM     29  H   UNL     1      48.673   2.791  19.397  0.00  0.00    +0.000 HD
ATOM     30  H   UNL     1      48.733   3.181  21.110  0.00  0.00    +0.000 HD
ENDBRANCH  23  26
ENDBRANCH  18  20
ENDBRANCH  17  18
ENDBRANCH  16  17
ENDBRANCH   5  16
TORSDOF 7
ENDMDL
MODEL 6
REMARK VINA RESULT:    -6.576      2.779      3.458
REMARK INTER + INTRA:         -10.198
REMARK INTER:                  -9.476
REMARK INTRA:                  -0.722
REMARK UNBOUND:                -1.122
REMARK  Name = 
REMARK  8 active torsions:
REMARK  status: ('A' for Active; 'I' for Inactive)
REMARK    1  A    between atoms: C_1  and  C_2
REMARK    2  A    between atoms: C_2  and  C_3
REMARK    3  A    between atoms: C_7  and  C_8
REMARK    4  A    between atoms: C_8  and  C_9
REMARK    5  A    between atoms: C_9  and  N_10
REMARK    6  A    between atoms: N_10  and  C_11
REMARK    7  A    between atoms: C_14  and  C_15
REMARK    8  A    between atoms: C_23  and  O_24
REMARK                            x       y       z     vdW  Elec       q    Type
REMARK                         _______ _______ _______ _____ _____    ______ ____
ROOT
ATOM      1  C   UNL     1      44.848   3.648   9.628  0.00  0.00    +0.000 A 
ATOM      2  C   UNL     1      43.989   2.852  10.400  0.00  0.00    +0.000 A 
ATOM      3  C   UNL     1      43.515   3.294  11.642  0.00  0.00    +0.000 A 
ATOM      4  C   UNL     1      43.898   4.536  12.149  0.00  0.00    +0.000 A 
ATOM      5  C   UNL     1      44.745   5.365  11.408  0.00  0.00    +0.000 A 
ATOM      6  C   UNL     1      45.174   4.908  10.148  0.00  0.00    +0.000 A 
ENDROOT
BRANCH   1   8
ATOM      7  C   UNL     1      44.354   3.040   7.276  0.00  0.00    +0.000 C 
ATOM      8  C   UNL     1      45.493   3.123   8.322  0.00  0.00    +0.000 C 
ATOM      9  C   UNL     1      46.614   4.086   7.849  0.00  0.00    +0.000 C 
ATOM     10  C   UNL     1      47.364   3.593   6.608  0.00  0.00    +0.000 C 
ATOM     11  C   UNL     1      47.931   2.188   6.791  0.00  0.00    +0.000 C 
ATOM     12  C   UNL     1      46.864   1.199   7.241  0.00  0.00    +0.000 C 
ATOM     13  C   UNL     1      46.126   1.702   8.477  0.00  0.00    +0.000 C 
BRANCH  11  14
ATOM     14  O   UNL     1      48.506   1.740   5.569  0.00  0.00    +0.000 OA
ATOM     15  H   UNL     1      49.000   0.922   5.750  0.00  0.00    +0.000 HD
ENDBRANCH  11  14
ENDBRANCH   1   8
BRANCH   5  16
ATOM     16  C   UNL     1      45.218   6.688  11.992  0.00  0.00    +0.000 C 
BRANCH  16  17
ATOM     17  C   UNL     1      46.268   6.511  13.095  0.00  0.00    +0.000 C 
BRANCH  17  18
ATOM     18  N   UNL     1      46.738   7.759  13.698  0.00  0.00    +0.000 N 
ATOM     19  H   UNL     1      46.327   7.918  14.618  0.00  0.00    +0.000 HD
BRANCH  18  20
ATOM     20  C   UNL     1      48.145   7.863  13.745  0.00  0.00    +0.000 A 
ATOM     21  C   UNL     1      48.899   8.779  13.017  0.00  0.00    +0.000 A 
ATOM     22  N   UNL     1      50.240   8.912  13.075  0.00  0.00    +0.000 NA
ATOM     23  C   UNL     1      50.859   8.099  13.958  0.00  0.00    +0.000 A 
ATOM     24  N   UNL     1      50.251   7.206  14.762  0.00  0.00    +0.000 NA
ATOM     25  C   UNL     1      48.906   7.130  14.643  0.00  0.00    +0.000 A 
BRANCH  23  26
ATOM     26  C   UNL     1      52.363   8.232  14.034  0.00  0.00    +0.000 C 
ATOM     27  N   UNL     1      52.993   7.342  14.876  0.00  0.00    +0.000 N 
ATOM     28  O   UNL     1      53.011   9.060  13.407  0.00  0.00    +0.000 OA
ATOM     29  H   UNL     1      52.451   6.646  15.375  0.00  0.00    +0.000 HD
ATOM     30  H   UNL     1      53.999   7.365  14.953  0.00  0.00    +0.000 HD
ENDBRANCH  23  26
ENDBRANCH  18  20
ENDBRANCH  17  18
ENDBRANCH  16  17
ENDBRANCH   5  16
TORSDOF 7
ENDMDL
MODEL 7
REMARK VINA RESULT:    -6.101      3.145      4.989
REMARK INTER + INTRA:          -9.541
REMARK INTER:                  -8.637
REMARK INTRA:                  -0.905
REMARK UNBOUND:                -1.122
REMARK  Name = 
REMARK  8 active torsions:
REMARK  status: ('A' for Active; 'I' for Inactive)
REMARK    1  A    between atoms: C_1  and  C_2
REMARK    2  A    between atoms: C_2  and  C_3
REMARK    3  A    between atoms: C_7  and  C_8
REMARK    4  A    between atoms: C_8  and  C_9
REMARK    5  A    between atoms: C_9  and  N_10
REMARK    6  A    between atoms: N_10  and  C_11
REMARK    7  A    between atoms: C_14  and  C_15
REMARK    8  A    between atoms: C_23  and  O_24
REMARK                            x       y       z     vdW  Elec       q    Type
REMARK                         _______ _______ _______ _____ _____    ______ ____
ROOT
ATOM      1  C   UNL     1      45.912   6.921  12.165  0.00  0.00    +0.000 A 
ATOM      2  C   UNL     1      45.029   8.009  12.081  0.00  0.00    +0.000 A 
ATOM      3  C   UNL     1      45.498   9.327  12.141  0.00  0.00    +0.000 A 
ATOM      4  C   UNL     1      46.858   9.592  12.301  0.00  0.00    +0.000 A 
ATOM      5  C   UNL     1      47.773   8.539  12.379  0.00  0.00    +0.000 A 
ATOM      6  C   UNL     1      47.275   7.226  12.278  0.00  0.00    +0.000 A 
ENDROOT
BRANCH   1   8
ATOM      7  C   UNL     1      46.441   4.681  13.086  0.00  0.00    +0.000 C 
ATOM      8  C   UNL     1      45.403   5.461  12.241  0.00  0.00    +0.000 C 
ATOM      9  C   UNL     1      43.999   5.412  12.901  0.00  0.00    +0.000 C 
ATOM     10  C   UNL     1      43.385   4.010  12.936  0.00  0.00    +0.000 C 
ATOM     11  C   UNL     1      43.330   3.365  11.554  0.00  0.00    +0.000 C 
ATOM     12  C   UNL     1      44.690   3.374  10.869  0.00  0.00    +0.000 C 
ATOM     13  C   UNL     1      45.290   4.775  10.841  0.00  0.00    +0.000 C 
BRANCH  11  14
ATOM     14  O   UNL     1      42.867   2.024  11.669  0.00  0.00    +0.000 OA
ATOM     15  H   UNL     1      42.632   1.864  12.599  0.00  0.00    +0.000 HD
ENDBRANCH  11  14
ENDBRANCH   1   8
BRANCH   5  16
ATOM     16  C   UNL     1      49.248   8.826  12.624  0.00  0.00    +0.000 C 
BRANCH  16  17
ATOM     17  C   UNL     1      49.568   9.075  14.102  0.00  0.00    +0.000 C 
BRANCH  17  18
ATOM     18  N   UNL     1      48.576   8.546  15.040  0.00  0.00    +0.000 N 
ATOM     19  H   UNL     1      47.705   8.292  14.573  0.00  0.00    +0.000 HD
BRANCH  18  20
ATOM     20  C   UNL     1      49.062   7.479  15.826  0.00  0.00    +0.000 A 
ATOM     21  C   UNL     1      49.933   7.618  16.903  0.00  0.00    +0.000 A 
ATOM     22  N   UNL     1      50.380   6.612  17.683  0.00  0.00    +0.000 NA
ATOM     23  C   UNL     1      49.883   5.392  17.387  0.00  0.00    +0.000 A 
ATOM     24  N   UNL     1      48.996   5.122  16.410  0.00  0.00    +0.000 NA
ATOM     25  C   UNL     1      48.598   6.181  15.671  0.00  0.00    +0.000 A 
BRANCH  23  26
ATOM     26  C   UNL     1      50.377   4.253  18.249  0.00  0.00    +0.000 C 
ATOM     27  N   UNL     1      49.625   3.100  18.192  0.00  0.00    +0.000 N 
ATOM     28  O   UNL     1      51.370   4.312  18.962  0.00  0.00    +0.000 OA
ATOM     29  H   UNL     1      48.816   3.052  17.583  0.00  0.00    +0.000 HD
ATOM     30  H   UNL     1      49.915   2.295  18.727  0.00  0.00    +0.000 HD
ENDBRANCH  23  26
ENDBRANCH  18  20
ENDBRANCH  17  18
ENDBRANCH  16  17
ENDBRANCH   5  16
TORSDOF 7
ENDMDL
MODEL 8
REMARK VINA RESULT:    -6.025      3.270      5.397
REMARK INTER + INTRA:          -9.436
REMARK INTER:                  -8.297
REMARK INTRA:                  -1.139
REMARK UNBOUND:                -1.122
REMARK  Name = 
REMARK  8 active torsions:
REMARK  status: ('A' for Active; 'I' for Inactive)
REMARK    1  A    between atoms: C_1  and  C_2
REMARK    2  A    between atoms: C_2  and  C_3
REMARK    3  A    between atoms: C_7  and  C_8
REMARK    4  A    between atoms: C_8  and  C_9
REMARK    5  A    between atoms: C_9  and  N_10
REMARK    6  A    between atoms: N_10  and  C_11
REMARK    7  A    between atoms: C_14  and  C_15
REMARK    8  A    between atoms: C_23  and  O_24
REMARK                            x       y       z     vdW  Elec       q    Type
REMARK                         _______ _______ _______ _____ _____    ______ ____
ROOT
ATOM      1  C   UNL     1      47.457   7.049  12.421  0.00  0.00    +0.000 A 
ATOM      2  C   UNL     1      48.373   7.192  11.368  0.00  0.00    +0.000 A 
ATOM      3  C   UNL     1      49.342   8.202  11.384  0.00  0.00    +0.000 A 
ATOM      4  C   UNL     1      49.413   9.104  12.447  0.00  0.00    +0.000 A 
ATOM      5  C   UNL     1      48.526   8.992  13.520  0.00  0.00    +0.000 A 
ATOM      6  C   UNL     1      47.587   7.944  13.492  0.00  0.00    +0.000 A 
ENDROOT
BRANCH   1   8
ATOM      7  C   UNL     1      46.743   4.800  13.182  0.00  0.00    +0.000 C 
ATOM      8  C   UNL     1      46.291   6.031  12.357  0.00  0.00    +0.000 C 
ATOM      9  C   UNL     1      44.999   6.653  12.948  0.00  0.00    +0.000 C 
ATOM     10  C   UNL     1      43.774   5.740  12.844  0.00  0.00    +0.000 C 
ATOM     11  C   UNL     1      43.518   5.274  11.414  0.00  0.00    +0.000 C 
ATOM     12  C   UNL     1      44.755   4.639  10.793  0.00  0.00    +0.000 C 
ATOM     13  C   UNL     1      45.966   5.559  10.903  0.00  0.00    +0.000 C 
BRANCH  11  14
ATOM     14  O   UNL     1      42.448   4.335  11.400  0.00  0.00    +0.000 OA
ATOM     15  H   UNL     1      41.939   4.445  12.221  0.00  0.00    +0.000 HD
ENDBRANCH  11  14
ENDBRANCH   1   8
BRANCH   5  16
ATOM     16  C   UNL     1      48.557  10.018  14.645  0.00  0.00    +0.000 C 
BRANCH  16  17
ATOM     17  C   UNL     1      48.247   9.406  16.016  0.00  0.00    +0.000 C 
BRANCH  17  18
ATOM     18  N   UNL     1      49.333   8.609  16.588  0.00  0.00    +0.000 N 
ATOM     19  H   UNL     1      49.801   9.093  17.355  0.00  0.00    +0.000 HD
BRANCH  18  20
ATOM     20  C   UNL     1      48.931   7.312  16.976  0.00  0.00    +0.000 A 
ATOM     21  C   UNL     1      48.339   6.995  18.195  0.00  0.00    +0.000 A 
ATOM     22  N   UNL     1      47.920   5.767  18.567  0.00  0.00    +0.000 NA
ATOM     23  C   UNL     1      48.066   4.804  17.631  0.00  0.00    +0.000 A 
ATOM     24  N   UNL     1      48.571   4.980  16.396  0.00  0.00    +0.000 NA
ATOM     25  C   UNL     1      48.971   6.237  16.099  0.00  0.00    +0.000 A 
BRANCH  23  26
ATOM     26  C   UNL     1      47.605   3.422  18.033  0.00  0.00    +0.000 C 
ATOM     27  N   UNL     1      48.266   2.868  19.108  0.00  0.00    +0.000 N 
ATOM     28  O   UNL     1      46.712   2.805  17.468  0.00  0.00    +0.000 OA
ATOM     29  H   UNL     1      48.989   3.394  19.583  0.00  0.00    +0.000 HD
ATOM     30  H   UNL     1      47.989   1.956  19.440  0.00  0.00    +0.000 HD
ENDBRANCH  23  26
ENDBRANCH  18  20
ENDBRANCH  17  18
ENDBRANCH  16  17
ENDBRANCH   5  16
TORSDOF 7
ENDMDL
MODEL 9
REMARK VINA RESULT:    -5.939      5.329      6.982
REMARK INTER + INTRA:          -9.318
REMARK INTER:                  -8.555
REMARK INTRA:                  -0.762
REMARK UNBOUND:                -1.122
REMARK  Name = 
REMARK  8 active torsions:
REMARK  status: ('A' for Active; 'I' for Inactive)
REMARK    1  A    between atoms: C_1  and  C_2
REMARK    2  A    between atoms: C_2  and  C_3
REMARK    3  A    between atoms: C_7  and  C_8
REMARK    4  A    between atoms: C_8  and  C_9
REMARK    5  A    between atoms: C_9  and  N_10
REMARK    6  A    between atoms: N_10  and  C_11
REMARK    7  A    between atoms: C_14  and  C_15
REMARK    8  A    between atoms: C_23  and  O_24
REMARK                            x       y       z     vdW  Elec       q    Type
REMARK                         _______ _______ _______ _____ _____    ______ ____
ROOT
ATOM      1  C   UNL     1      52.027   8.093  10.202  0.00  0.00    +0.000 A 
ATOM      2  C   UNL     1      51.929   9.492  10.251  0.00  0.00    +0.000 A 
ATOM      3  C   UNL     1      50.940  10.121  11.018  0.00  0.00    +0.000 A 
ATOM      4  C   UNL     1      50.016   9.369  11.744  0.00  0.00    +0.000 A 
ATOM      5  C   UNL     1      50.084   7.973  11.731  0.00  0.00    +0.000 A 
ATOM      6  C   UNL     1      51.111   7.372  10.980  0.00  0.00    +0.000 A 
ENDROOT
BRANCH   1   8
ATOM      7  C   UNL     1      54.210   8.350   9.055  0.00  0.00    +0.000 C 
ATOM      8  C   UNL     1      53.020   7.378   9.253  0.00  0.00    +0.000 C 
ATOM      9  C   UNL     1      53.493   6.039   9.877  0.00  0.00    +0.000 C 
ATOM     10  C   UNL     1      54.412   5.225   8.963  0.00  0.00    +0.000 C 
ATOM     11  C   UNL     1      53.788   4.967   7.594  0.00  0.00    +0.000 C 
ATOM     12  C   UNL     1      53.321   6.256   6.931  0.00  0.00    +0.000 C 
ATOM     13  C   UNL     1      52.407   7.055   7.852  0.00  0.00    +0.000 C 
BRANCH  11  14
ATOM     14  O   UNL     1      54.734   4.317   6.751  0.00  0.00    +0.000 OA
ATOM     15  H   UNL     1      54.365   4.284   5.852  0.00  0.00    +0.000 HD
ENDBRANCH  11  14
ENDBRANCH   1   8
BRANCH   5  16
ATOM     16  C   UNL     1      49.034   7.152  12.465  0.00  0.00    +0.000 C 
BRANCH  16  17
ATOM     17  C   UNL     1      47.700   7.892  12.619  0.00  0.00    +0.000 C 
BRANCH  17  18
ATOM     18  N   UNL     1      46.736   7.236  13.504  0.00  0.00    +0.000 N 
ATOM     19  H   UNL     1      46.056   7.894  13.885  0.00  0.00    +0.000 HD
BRANCH  18  20
ATOM     20  C   UNL     1      46.094   6.128  12.910  0.00  0.00    +0.000 A 
ATOM     21  C   UNL     1      46.040   4.851  13.461  0.00  0.00    +0.000 A 
ATOM     22  N   UNL     1      45.404   3.791  12.921  0.00  0.00    +0.000 NA
ATOM     23  C   UNL     1      44.739   4.045  11.773  0.00  0.00    +0.000 A 
ATOM     24  N   UNL     1      44.662   5.240  11.159  0.00  0.00    +0.000 NA
ATOM     25  C   UNL     1      45.328   6.252  11.759  0.00  0.00    +0.000 A 
BRANCH  23  26
ATOM     26  C   UNL     1      44.023   2.867  11.153  0.00  0.00    +0.000 C 
ATOM     27  N   UNL     1      44.653   2.298  10.067  0.00  0.00    +0.000 N 
ATOM     28  O   UNL     1      42.958   2.420  11.557  0.00  0.00    +0.000 OA
ATOM     29  H   UNL     1      45.545   2.660   9.752  0.00  0.00    +0.000 HD
ATOM     30  H   UNL     1      44.237   1.493   9.623  0.00  0.00    +0.000 HD
ENDBRANCH  23  26
ENDBRANCH  18  20
ENDBRANCH  17  18
ENDBRANCH  16  17
ENDBRANCH   5  16
TORSDOF 7
ENDMDL
