MODEL 1
REMARK VINA RESULT:    -8.270      0.000      0.000
REMARK INTER + INTRA:         -12.013
REMARK INTER:                 -10.929
REMARK INTRA:                  -1.084
REMARK UNBOUND:                -1.084
REMARK  Name = 
REMARK  6 active torsions:
REMARK  status: ('A' for Active; 'I' for Inactive)
REMARK    1  A    between atoms: C_2  and  C_4
REMARK    2  A    between atoms: C_7  and  C_8
REMARK    3  A    between atoms: C_8  and  C_9
REMARK    4  A    between atoms: C_9  and  C_10
REMARK    5  A    between atoms: C_14  and  N_15
REMARK    6  A    between atoms: C_18  and  O_19
REMARK                            x       y       z     vdW  Elec       q    Type
REMARK                         _______ _______ _______ _____ _____    ______ ____
ROOT
ATOM      1  C   UNL     1      45.008   4.333  12.355  0.00  0.00    +0.000 A 
ATOM      2  C   UNL     1      45.663   3.263  12.948  0.00  0.00    +0.000 A 
ATOM      3  N   UNL     1      46.830   3.373  13.616  0.00  0.00    +0.000 NA
ATOM      4  C   UNL     1      47.375   4.614  13.693  0.00  0.00    +0.000 A 
ATOM      5  C   UNL     1      46.830   5.778  13.148  0.00  0.00    +0.000 A 
ATOM      6  C   UNL     1      45.605   5.592  12.499  0.00  0.00    +0.000 A 
ENDROOT
BRANCH   5   7
ATOM      7  N   UNL     1      47.406   7.031  13.229  0.00  0.00    +0.000 N 
ATOM      8  C   UNL     1      48.836   7.244  13.016  0.00  0.00    +0.000 C 
ATOM      9  C   UNL     1      49.053   8.121  11.789  0.00  0.00    +0.000 C 
ATOM     10  C   UNL     1      48.230   9.408  11.858  0.00  0.00    +0.000 C 
ATOM     11  C   UNL     1      46.759   9.134  12.155  0.00  0.00    +0.000 C 
ATOM     12  C   UNL     1      46.578   8.233  13.376  0.00  0.00    +0.000 C 
BRANCH  10  13
ATOM     13  O   UNL     1      48.775  10.305  12.826  0.00  0.00    +0.000 OA
ATOM     14  H   UNL     1      48.160  11.045  12.957  0.00  0.00    +0.000 HD
ENDBRANCH  10  13
ENDBRANCH   5   7
BRANCH   1  15
ATOM     15  C   UNL     1      43.688   4.144  11.649  0.00  0.00    +0.000 C 
BRANCH  15  16
ATOM     16  C   UNL     1      43.686   4.636  10.193  0.00  0.00    +0.000 C 
BRANCH  16  20
ATOM     17  C   UNL     1      46.478   2.494   7.708  0.00  0.00    +0.000 A 
ATOM     18  C   UNL     1      46.405   3.889   7.639  0.00  0.00    +0.000 A 
ATOM     19  C   UNL     1      45.490   4.579   8.435  0.00  0.00    +0.000 A 
ATOM     20  C   UNL     1      44.643   3.882   9.308  0.00  0.00    +0.000 A 
ATOM     21  C   UNL     1      44.704   2.485   9.357  0.00  0.00    +0.000 A 
ATOM     22  C   UNL     1      45.615   1.793   8.558  0.00  0.00    +0.000 A 
BRANCH  17  24
ATOM     23  N   UNL     1      48.537   2.394   6.414  0.00  0.00    +0.000 N 
ATOM     24  C   UNL     1      47.438   1.725   6.878  0.00  0.00    +0.000 C 
ATOM     25  O   UNL     1      47.278   0.533   6.643  0.00  0.00    +0.000 OA
ATOM     26  H   UNL     1      49.232   1.834   5.936  0.00  0.00    +0.000 HD
ATOM     27  H   UNL     1      48.828   3.283   6.793  0.00  0.00    +0.000 HD
ENDBRANCH  17  24
ENDBRANCH  16  20
ENDBRANCH  15  16
ENDBRANCH   1  15
TORSDOF 6
ENDMDL
MODEL 2
REMARK VINA RESULT:    -7.959      2.414      3.475
REMARK INTER + INTRA:         -11.602
REMARK INTER:                 -10.711
REMARK INTRA:                  -0.891
REMARK UNBOUND:                -1.084
REMARK  Name = 
REMARK  6 active torsions:
REMARK  status: ('A' for Active; 'I' for Inactive)
REMARK    1  A    between atoms: C_2  and  C_4
REMARK    2  A    between atoms: C_7  and  C_8
REMARK    3  A    between atoms: C_8  and  C_9
REMARK    4  A    between atoms: C_9  and  C_10
REMARK    5  A    between atoms: C_14  and  N_15
REMARK    6  A    between atoms: C_18  and  O_19
REMARK                            x       y       z     vdW  Elec       q    Type
REMARK                         _______ _______ _______ _____ _____    ______ ____
ROOT
ATOM      1  C   UNL     1      45.147   5.151  12.440  0.00  0.00    +0.000 A 
ATOM      2  C   UNL     1      45.414   6.403  11.906  0.00  0.00    +0.000 A 
ATOM      3  N   UNL     1      46.386   7.221  12.357  0.00  0.00    +0.000 NA
ATOM      4  C   UNL     1      47.130   6.770  13.400  0.00  0.00    +0.000 A 
ATOM      5  C   UNL     1      46.977   5.536  14.034  0.00  0.00    +0.000 A 
ATOM      6  C   UNL     1      45.970   4.729  13.492  0.00  0.00    +0.000 A 
ENDROOT
BRANCH   5   7
ATOM      7  N   UNL     1      47.738   5.098  15.102  0.00  0.00    +0.000 N 
ATOM      8  C   UNL     1      48.688   5.971  15.787  0.00  0.00    +0.000 C 
ATOM      9  C   UNL     1      48.255   6.175  17.234  0.00  0.00    +0.000 C 
ATOM     10  C   UNL     1      47.999   4.845  17.944  0.00  0.00    +0.000 C 
ATOM     11  C   UNL     1      47.058   3.943  17.150  0.00  0.00    +0.000 C 
ATOM     12  C   UNL     1      47.509   3.779  15.700  0.00  0.00    +0.000 C 
BRANCH  10  13
ATOM     13  O   UNL     1      49.229   4.170  18.211  0.00  0.00    +0.000 OA
ATOM     14  H   UNL     1      49.608   3.854  17.375  0.00  0.00    +0.000 HD
ENDBRANCH  10  13
ENDBRANCH   5   7
BRANCH   1  15
ATOM     15  C   UNL     1      44.062   4.274  11.866  0.00  0.00    +0.000 C 
BRANCH  15  16
ATOM     16  C   UNL     1      43.764   4.544  10.383  0.00  0.00    +0.000 C 
BRANCH  16  20
ATOM     17  C   UNL     1      46.467   2.468   7.748  0.00  0.00    +0.000 A 
ATOM     18  C   UNL     1      46.363   3.862   7.689  0.00  0.00    +0.000 A 
ATOM     19  C   UNL     1      45.476   4.530   8.534  0.00  0.00    +0.000 A 
ATOM     20  C   UNL     1      44.689   3.813   9.447  0.00  0.00    +0.000 A 
ATOM     21  C   UNL     1      44.780   2.417   9.486  0.00  0.00    +0.000 A 
ATOM     22  C   UNL     1      45.663   1.747   8.638  0.00  0.00    +0.000 A 
BRANCH  17  24
ATOM     23  N   UNL     1      48.498   2.394   6.409  0.00  0.00    +0.000 N 
ATOM     24  C   UNL     1      47.398   1.723   6.866  0.00  0.00    +0.000 C 
ATOM     25  O   UNL     1      47.215   0.544   6.584  0.00  0.00    +0.000 OA
ATOM     26  H   UNL     1      49.175   1.846   5.894  0.00  0.00    +0.000 HD
ATOM     27  H   UNL     1      48.810   3.262   6.820  0.00  0.00    +0.000 HD
ENDBRANCH  17  24
ENDBRANCH  16  20
ENDBRANCH  15  16
ENDBRANCH   1  15
TORSDOF 6
ENDMDL
MODEL 3
REMARK VINA RESULT:    -7.688      1.567      2.279
REMARK INTER + INTRA:         -11.244
REMARK INTER:                 -10.317
REMARK INTRA:                  -0.927
REMARK UNBOUND:                -1.084
REMARK  Name = 
REMARK  6 active torsions:
REMARK  status: ('A' for Active; 'I' for Inactive)
REMARK    1  A    between atoms: C_2  and  C_4
REMARK    2  A    between atoms: C_7  and  C_8
REMARK    3  A    between atoms: C_8  and  C_9
REMARK    4  A    between atoms: C_9  and  C_10
REMARK    5  A    between atoms: C_14  and  N_15
REMARK    6  A    between atoms: C_18  and  O_19
REMARK                            x       y       z     vdW  Elec       q    Type
REMARK                         _______ _______ _______ _____ _____    ______ ____
ROOT
ATOM      1  C   UNL     1      45.007   5.368  12.135  0.00  0.00    +0.000 A 
ATOM      2  C   UNL     1      44.404   6.574  11.809  0.00  0.00    +0.000 A 
ATOM      3  N   UNL     1      44.995   7.776  11.962  0.00  0.00    +0.000 NA
ATOM      4  C   UNL     1      46.254   7.778  12.472  0.00  0.00    +0.000 A 
ATOM      5  C   UNL     1      46.983   6.646  12.842  0.00  0.00    +0.000 A 
ATOM      6  C   UNL     1      46.318   5.434  12.624  0.00  0.00    +0.000 A 
ENDROOT
BRANCH   5   7
ATOM      7  N   UNL     1      48.261   6.669  13.369  0.00  0.00    +0.000 N 
ATOM      8  C   UNL     1      49.420   7.074  12.577  0.00  0.00    +0.000 C 
ATOM      9  C   UNL     1      50.035   8.337  13.167  0.00  0.00    +0.000 C 
ATOM     10  C   UNL     1      50.316   8.189  14.663  0.00  0.00    +0.000 C 
ATOM     11  C   UNL     1      49.094   7.694  15.430  0.00  0.00    +0.000 C 
ATOM     12  C   UNL     1      48.489   6.440  14.800  0.00  0.00    +0.000 C 
BRANCH  10  13
ATOM     13  O   UNL     1      51.429   7.320  14.883  0.00  0.00    +0.000 OA
ATOM     14  H   UNL     1      51.533   6.735  14.115  0.00  0.00    +0.000 HD
ENDBRANCH  10  13
ENDBRANCH   5   7
BRANCH   1  15
ATOM     15  C   UNL     1      44.299   4.055  11.908  0.00  0.00    +0.000 C 
BRANCH  15  16
ATOM     16  C   UNL     1      43.679   3.917  10.508  0.00  0.00    +0.000 C 
BRANCH  16  20
ATOM     17  C   UNL     1      46.551   2.636   7.563  0.00  0.00    +0.000 A 
ATOM     18  C   UNL     1      46.235   3.992   7.690  0.00  0.00    +0.000 A 
ATOM     19  C   UNL     1      45.294   4.403   8.636  0.00  0.00    +0.000 A 
ATOM     20  C   UNL     1      44.664   3.463   9.463  0.00  0.00    +0.000 A 
ATOM     21  C   UNL     1      44.966   2.104   9.317  0.00  0.00    +0.000 A 
ATOM     22  C   UNL     1      45.904   1.692   8.368  0.00  0.00    +0.000 A 
BRANCH  17  24
ATOM     23  N   UNL     1      47.880   3.021   5.562  0.00  0.00    +0.000 N 
ATOM     24  C   UNL     1      47.545   2.161   6.570  0.00  0.00    +0.000 C 
ATOM     25  O   UNL     1      48.076   1.060   6.664  0.00  0.00    +0.000 OA
ATOM     26  H   UNL     1      48.632   2.725   4.951  0.00  0.00    +0.000 HD
ATOM     27  H   UNL     1      47.664   4.007   5.599  0.00  0.00    +0.000 HD
ENDBRANCH  17  24
ENDBRANCH  16  20
ENDBRANCH  15  16
ENDBRANCH   1  15
TORSDOF 6
ENDMDL
MODEL 4
REMARK VINA RESULT:    -6.736      3.055      7.760
REMARK INTER + INTRA:          -9.985
REMARK INTER:                  -9.168
REMARK INTRA:                  -0.817
REMARK UNBOUND:                -1.084
REMARK  Name = 
REMARK  6 active torsions:
REMARK  status: ('A' for Active; 'I' for Inactive)
REMARK    1  A    between atoms: C_2  and  C_4
REMARK    2  A    between atoms: C_7  and  C_8
REMARK    3  A    between atoms: C_8  and  C_9
REMARK    4  A    between atoms: C_9  and  C_10
REMARK    5  A    between atoms: C_14  and  N_15
REMARK    6  A    between atoms: C_18  and  O_19
REMARK                            x       y       z     vdW  Elec       q    Type
REMARK                         _______ _______ _______ _____ _____    ______ ____
ROOT
ATOM      1  C   UNL     1      45.005   4.960  12.395  0.00  0.00    +0.000 A 
ATOM      2  C   UNL     1      44.063   4.174  13.042  0.00  0.00    +0.000 A 
ATOM      3  N   UNL     1      43.416   3.144  12.461  0.00  0.00    +0.000 NA
ATOM      4  C   UNL     1      43.722   2.884  11.163  0.00  0.00    +0.000 A 
ATOM      5  C   UNL     1      44.647   3.587  10.389  0.00  0.00    +0.000 A 
ATOM      6  C   UNL     1      45.300   4.621  11.068  0.00  0.00    +0.000 A 
ENDROOT
BRANCH   5   7
ATOM      7  N   UNL     1      44.936   3.314   9.065  0.00  0.00    +0.000 N 
ATOM      8  C   UNL     1      45.359   4.355   8.132  0.00  0.00    +0.000 C 
ATOM      9  C   UNL     1      46.776   4.075   7.649  0.00  0.00    +0.000 C 
ATOM     10  C   UNL     1      46.923   2.651   7.111  0.00  0.00    +0.000 C 
ATOM     11  C   UNL     1      46.400   1.609   8.094  0.00  0.00    +0.000 C 
ATOM     12  C   UNL     1      44.987   1.932   8.575  0.00  0.00    +0.000 C 
BRANCH  10  13
ATOM     13  O   UNL     1      46.268   2.519   5.848  0.00  0.00    +0.000 OA
ATOM     14  H   UNL     1      45.379   2.154   5.988  0.00  0.00    +0.000 HD
ENDBRANCH  10  13
ENDBRANCH   5   7
BRANCH   1  15
ATOM     15  C   UNL     1      45.714   6.080  13.115  0.00  0.00    +0.000 C 
BRANCH  15  16
ATOM     16  C   UNL     1      47.231   5.869  13.252  0.00  0.00    +0.000 C 
BRANCH  16  20
ATOM     17  C   UNL     1      48.398   4.836  17.269  0.00  0.00    +0.000 A 
ATOM     18  C   UNL     1      48.903   5.994  16.667  0.00  0.00    +0.000 A 
ATOM     19  C   UNL     1      48.534   6.318  15.361  0.00  0.00    +0.000 A 
ATOM     20  C   UNL     1      47.656   5.492  14.647  0.00  0.00    +0.000 A 
ATOM     21  C   UNL     1      47.171   4.322  15.244  0.00  0.00    +0.000 A 
ATOM     22  C   UNL     1      47.544   3.994  16.548  0.00  0.00    +0.000 A 
BRANCH  17  24
ATOM     23  N   UNL     1      48.274   3.274  19.130  0.00  0.00    +0.000 N 
ATOM     24  C   UNL     1      48.767   4.458  18.655  0.00  0.00    +0.000 C 
ATOM     25  O   UNL     1      49.511   5.152  19.337  0.00  0.00    +0.000 OA
ATOM     26  H   UNL     1      48.615   2.979  20.037  0.00  0.00    +0.000 HD
ATOM     27  H   UNL     1      47.882   2.569  18.523  0.00  0.00    +0.000 HD
ENDBRANCH  17  24
ENDBRANCH  16  20
ENDBRANCH  15  16
ENDBRANCH   1  15
TORSDOF 6
ENDMDL
MODEL 5
REMARK VINA RESULT:    -6.553      3.739      7.457
REMARK INTER + INTRA:          -9.744
REMARK INTER:                  -8.890
REMARK INTRA:                  -0.854
REMARK UNBOUND:                -1.084
REMARK  Name = 
REMARK  6 active torsions:
REMARK  status: ('A' for Active; 'I' for Inactive)
REMARK    1  A    between atoms: C_2  and  C_4
REMARK    2  A    between atoms: C_7  and  C_8
REMARK    3  A    between atoms: C_8  and  C_9
REMARK    4  A    between atoms: C_9  and  C_10
REMARK    5  A    between atoms: C_14  and  N_15
REMARK    6  A    between atoms: C_18  and  O_19
REMARK                            x       y       z     vdW  Elec       q    Type
REMARK                         _______ _______ _______ _____ _____    ______ ____
ROOT
ATOM      1  C   UNL     1      46.099   8.398  12.718  0.00  0.00    +0.000 A 
ATOM      2  C   UNL     1      45.590   9.473  12.005  0.00  0.00    +0.000 A 
ATOM      3  N   UNL     1      44.517   9.395  11.192  0.00  0.00    +0.000 NA
ATOM      4  C   UNL     1      43.922   8.179  11.080  0.00  0.00    +0.000 A 
ATOM      5  C   UNL     1      44.322   7.014  11.736  0.00  0.00    +0.000 A 
ATOM      6  C   UNL     1      45.421   7.179  12.586  0.00  0.00    +0.000 A 
ENDROOT
BRANCH   5   7
ATOM      7  N   UNL     1      43.709   5.783  11.601  0.00  0.00    +0.000 N 
ATOM      8  C   UNL     1      43.859   4.969  10.397  0.00  0.00    +0.000 C 
ATOM      9  C   UNL     1      44.568   3.664  10.739  0.00  0.00    +0.000 C 
ATOM     10  C   UNL     1      43.896   2.941  11.907  0.00  0.00    +0.000 C 
ATOM     11  C   UNL     1      43.698   3.856  13.111  0.00  0.00    +0.000 C 
ATOM     12  C   UNL     1      43.006   5.164  12.730  0.00  0.00    +0.000 C 
BRANCH  10  13
ATOM     13  O   UNL     1      42.650   2.374  11.500  0.00  0.00    +0.000 OA
ATOM     14  H   UNL     1      42.487   1.564  12.011  0.00  0.00    +0.000 HD
ENDBRANCH  10  13
ENDBRANCH   5   7
BRANCH   1  15
ATOM     15  C   UNL     1      47.286   8.562  13.635  0.00  0.00    +0.000 C 
BRANCH  15  16
ATOM     16  C   UNL     1      48.305   7.415  13.545  0.00  0.00    +0.000 C 
BRANCH  16  20
ATOM     17  C   UNL     1      47.747   4.481  16.649  0.00  0.00    +0.000 A 
ATOM     18  C   UNL     1      48.601   5.569  16.858  0.00  0.00    +0.000 A 
ATOM     19  C   UNL     1      48.790   6.510  15.845  0.00  0.00    +0.000 A 
ATOM     20  C   UNL     1      48.127   6.375  14.618  0.00  0.00    +0.000 A 
ATOM     21  C   UNL     1      47.291   5.272  14.405  0.00  0.00    +0.000 A 
ATOM     22  C   UNL     1      47.105   4.327  15.415  0.00  0.00    +0.000 A 
BRANCH  17  24
ATOM     23  N   UNL     1      48.198   3.615  18.878  0.00  0.00    +0.000 N 
ATOM     24  C   UNL     1      47.520   3.460  17.701  0.00  0.00    +0.000 C 
ATOM     25  O   UNL     1      46.733   2.534  17.543  0.00  0.00    +0.000 OA
ATOM     26  H   UNL     1      47.958   2.971  19.622  0.00  0.00    +0.000 HD
ATOM     27  H   UNL     1      48.644   4.484  19.134  0.00  0.00    +0.000 HD
ENDBRANCH  17  24
ENDBRANCH  16  20
ENDBRANCH  15  16
ENDBRANCH   1  15
TORSDOF 6
ENDMDL
MODEL 6
REMARK VINA RESULT:    -6.523      3.737      5.910
REMARK INTER + INTRA:          -9.704
REMARK INTER:                  -8.720
REMARK INTRA:                  -0.984
REMARK UNBOUND:                -1.084
REMARK  Name = 
REMARK  6 active torsions:
REMARK  status: ('A' for Active; 'I' for Inactive)
REMARK    1  A    between atoms: C_2  and  C_4
REMARK    2  A    between atoms: C_7  and  C_8
REMARK    3  A    between atoms: C_8  and  C_9
REMARK    4  A    between atoms: C_9  and  C_10
REMARK    5  A    between atoms: C_14  and  N_15
REMARK    6  A    between atoms: C_18  and  O_19
REMARK                            x       y       z     vdW  Elec       q    Type
REMARK                         _______ _______ _______ _____ _____    ______ ____
ROOT
ATOM      1  C   UNL     1      49.033   7.510  13.775  0.00  0.00    +0.000 A 
ATOM      2  C   UNL     1      50.264   8.145  13.857  0.00  0.00    +0.000 A 
ATOM      3  N   UNL     1      51.123   7.989  14.885  0.00  0.00    +0.000 NA
ATOM      4  C   UNL     1      50.732   7.159  15.887  0.00  0.00    +0.000 A 
ATOM      5  C   UNL     1      49.528   6.456  15.938  0.00  0.00    +0.000 A 
ATOM      6  C   UNL     1      48.703   6.642  14.823  0.00  0.00    +0.000 A 
ENDROOT
BRANCH   5   7
ATOM      7  N   UNL     1      49.144   5.623  16.973  0.00  0.00    +0.000 N 
ATOM      8  C   UNL     1      47.777   5.126  17.102  0.00  0.00    +0.000 C 
ATOM      9  C   UNL     1      47.762   3.608  16.964  0.00  0.00    +0.000 C 
ATOM     10  C   UNL     1      48.765   2.941  17.906  0.00  0.00    +0.000 C 
ATOM     11  C   UNL     1      50.160   3.548  17.781  0.00  0.00    +0.000 C 
ATOM     12  C   UNL     1      50.136   5.071  17.902  0.00  0.00    +0.000 C 
BRANCH  10  13
ATOM     13  O   UNL     1      48.311   3.009  19.258  0.00  0.00    +0.000 OA
ATOM     14  H   UNL     1      48.835   2.398  19.801  0.00  0.00    +0.000 HD
ENDBRANCH  10  13
ENDBRANCH   5   7
BRANCH   1  15
ATOM     15  C   UNL     1      48.134   7.706  12.579  0.00  0.00    +0.000 C 
BRANCH  15  16
ATOM     16  C   UNL     1      46.635   7.638  12.912  0.00  0.00    +0.000 C 
BRANCH  16  20
ATOM     17  C   UNL     1      44.672   4.069  11.509  0.00  0.00    +0.000 A 
ATOM     18  C   UNL     1      44.918   4.243  12.875  0.00  0.00    +0.000 A 
ATOM     19  C   UNL     1      45.566   5.394  13.324  0.00  0.00    +0.000 A 
ATOM     20  C   UNL     1      45.971   6.381  12.415  0.00  0.00    +0.000 A 
ATOM     21  C   UNL     1      45.744   6.192  11.047  0.00  0.00    +0.000 A 
ATOM     22  C   UNL     1      45.100   5.039  10.595  0.00  0.00    +0.000 A 
BRANCH  17  24
ATOM     23  N   UNL     1      44.565   2.218   9.933  0.00  0.00    +0.000 N 
ATOM     24  C   UNL     1      43.986   2.859  10.992  0.00  0.00    +0.000 C 
ATOM     25  O   UNL     1      42.963   2.427  11.510  0.00  0.00    +0.000 OA
ATOM     26  H   UNL     1      44.143   1.339   9.656  0.00  0.00    +0.000 HD
ATOM     27  H   UNL     1      45.520   2.390   9.654  0.00  0.00    +0.000 HD
ENDBRANCH  17  24
ENDBRANCH  16  20
ENDBRANCH  15  16
ENDBRANCH   1  15
TORSDOF 6
ENDMDL
MODEL 7
REMARK VINA RESULT:    -6.448      4.796      8.030
REMARK INTER + INTRA:          -9.606
REMARK INTER:                  -8.860
REMARK INTRA:                  -0.745
REMARK UNBOUND:                -1.084
REMARK  Name = 
REMARK  6 active torsions:
REMARK  status: ('A' for Active; 'I' for Inactive)
REMARK    1  A    between atoms: C_2  and  C_4
REMARK    2  A    between atoms: C_7  and  C_8
REMARK    3  A    between atoms: C_8  and  C_9
REMARK    4  A    between atoms: C_9  and  C_10
REMARK    5  A    between atoms: C_14  and  N_15
REMARK    6  A    between atoms: C_18  and  O_19
REMARK                            x       y       z     vdW  Elec       q    Type
REMARK                         _______ _______ _______ _____ _____    ______ ____
ROOT
ATOM      1  C   UNL     1      47.470   4.819  15.284  0.00  0.00    +0.000 A 
ATOM      2  C   UNL     1      48.435   5.804  15.134  0.00  0.00    +0.000 A 
ATOM      3  N   UNL     1      48.495   6.643  14.079  0.00  0.00    +0.000 NA
ATOM      4  C   UNL     1      47.545   6.488  13.121  0.00  0.00    +0.000 A 
ATOM      5  C   UNL     1      46.517   5.545  13.139  0.00  0.00    +0.000 A 
ATOM      6  C   UNL     1      46.499   4.732  14.278  0.00  0.00    +0.000 A 
ENDROOT
BRANCH   5   7
ATOM      7  N   UNL     1      45.565   5.398  12.148  0.00  0.00    +0.000 N 
ATOM      8  C   UNL     1      45.526   6.266  10.973  0.00  0.00    +0.000 C 
ATOM      9  C   UNL     1      45.782   5.446   9.714  0.00  0.00    +0.000 C 
ATOM     10  C   UNL     1      44.858   4.231   9.628  0.00  0.00    +0.000 C 
ATOM     11  C   UNL     1      44.881   3.400  10.907  0.00  0.00    +0.000 C 
ATOM     12  C   UNL     1      44.644   4.255  12.151  0.00  0.00    +0.000 C 
BRANCH  10  13
ATOM     13  O   UNL     1      43.522   4.634   9.319  0.00  0.00    +0.000 OA
ATOM     14  H   UNL     1      43.053   3.891   8.905  0.00  0.00    +0.000 HD
ENDBRANCH  10  13
ENDBRANCH   5   7
BRANCH   1  15
ATOM     15  C   UNL     1      47.443   3.933  16.505  0.00  0.00    +0.000 C 
BRANCH  15  16
ATOM     16  C   UNL     1      48.443   4.349  17.596  0.00  0.00    +0.000 C 
BRANCH  16  20
ATOM     17  C   UNL     1      52.032   1.967  17.668  0.00  0.00    +0.000 A 
ATOM     18  C   UNL     1      52.054   3.283  18.143  0.00  0.00    +0.000 A 
ATOM     19  C   UNL     1      50.893   4.056  18.105  0.00  0.00    +0.000 A 
ATOM     20  C   UNL     1      49.701   3.522  17.597  0.00  0.00    +0.000 A 
ATOM     21  C   UNL     1      49.689   2.213  17.102  0.00  0.00    +0.000 A 
ATOM     22  C   UNL     1      50.851   1.440  17.134  0.00  0.00    +0.000 A 
BRANCH  17  24
ATOM     23  N   UNL     1      53.114  -0.143  18.213  0.00  0.00    +0.000 N 
ATOM     24  C   UNL     1      53.245   1.114  17.691  0.00  0.00    +0.000 C 
ATOM     25  O   UNL     1      54.314   1.498  17.232  0.00  0.00    +0.000 OA
ATOM     26  H   UNL     1      53.921  -0.749  18.130  0.00  0.00    +0.000 HD
ATOM     27  H   UNL     1      52.213  -0.577  18.358  0.00  0.00    +0.000 HD
ENDBRANCH  17  24
ENDBRANCH  16  20
ENDBRANCH  15  16
ENDBRANCH   1  15
TORSDOF 6
ENDMDL
MODEL 8
REMARK VINA RESULT:    -5.937      4.389      7.978
REMARK INTER + INTRA:          -8.930
REMARK INTER:                  -8.112
REMARK INTRA:                  -0.817
REMARK UNBOUND:                -1.084
REMARK  Name = 
REMARK  6 active torsions:
REMARK  status: ('A' for Active; 'I' for Inactive)
REMARK    1  A    between atoms: C_2  and  C_4
REMARK    2  A    between atoms: C_7  and  C_8
REMARK    3  A    between atoms: C_8  and  C_9
REMARK    4  A    between atoms: C_9  and  C_10
REMARK    5  A    between atoms: C_14  and  N_15
REMARK    6  A    between atoms: C_18  and  O_19
REMARK                            x       y       z     vdW  Elec       q    Type
REMARK                         _______ _______ _______ _____ _____    ______ ____
ROOT
ATOM      1  C   UNL     1      48.163   7.170  14.096  0.00  0.00    +0.000 A 
ATOM      2  C   UNL     1      48.193   8.294  13.284  0.00  0.00    +0.000 A 
ATOM      3  N   UNL     1      47.412   8.457  12.197  0.00  0.00    +0.000 NA
ATOM      4  C   UNL     1      46.558   7.444  11.900  0.00  0.00    +0.000 A 
ATOM      5  C   UNL     1      46.418   6.259  12.626  0.00  0.00    +0.000 A 
ATOM      6  C   UNL     1      47.237   6.175  13.757  0.00  0.00    +0.000 A 
ENDROOT
BRANCH   5   7
ATOM      7  N   UNL     1      45.549   5.234  12.302  0.00  0.00    +0.000 N 
ATOM      8  C   UNL     1      44.783   4.516  13.317  0.00  0.00    +0.000 C 
ATOM      9  C   UNL     1      43.292   4.749  13.103  0.00  0.00    +0.000 C 
ATOM     10  C   UNL     1      42.869   4.445  11.665  0.00  0.00    +0.000 C 
ATOM     11  C   UNL     1      43.748   5.163  10.645  0.00  0.00    +0.000 C 
ATOM     12  C   UNL     1      45.235   4.927  10.902  0.00  0.00    +0.000 C 
BRANCH  10  13
ATOM     13  O   UNL     1      42.874   3.037  11.425  0.00  0.00    +0.000 OA
ATOM     14  H   UNL     1      42.683   2.572  12.255  0.00  0.00    +0.000 HD
ENDBRANCH  10  13
ENDBRANCH   5   7
BRANCH   1  15
ATOM     15  C   UNL     1      49.044   7.067  15.317  0.00  0.00    +0.000 C 
BRANCH  15  16
ATOM     16  C   UNL     1      48.461   6.183  16.431  0.00  0.00    +0.000 C 
BRANCH  16  20
ATOM     17  C   UNL     1      51.014   2.908  17.579  0.00  0.00    +0.000 A 
ATOM     18  C   UNL     1      51.534   4.203  17.483  0.00  0.00    +0.000 A 
ATOM     19  C   UNL     1      50.708   5.259  17.097  0.00  0.00    +0.000 A 
ATOM     20  C   UNL     1      49.355   5.032  16.808  0.00  0.00    +0.000 A 
ATOM     21  C   UNL     1      48.844   3.731  16.883  0.00  0.00    +0.000 A 
ATOM     22  C   UNL     1      49.670   2.673  17.264  0.00  0.00    +0.000 A 
BRANCH  17  24
ATOM     23  N   UNL     1      52.931   2.029  18.791  0.00  0.00    +0.000 N 
ATOM     24  C   UNL     1      51.860   1.760  17.985  0.00  0.00    +0.000 C 
ATOM     25  O   UNL     1      51.596   0.612  17.648  0.00  0.00    +0.000 OA
ATOM     26  H   UNL     1      53.440   1.226  19.143  0.00  0.00    +0.000 HD
ATOM     27  H   UNL     1      53.028   2.902  19.289  0.00  0.00    +0.000 HD
ENDBRANCH  17  24
ENDBRANCH  16  20
ENDBRANCH  15  16
ENDBRANCH   1  15
TORSDOF 6
ENDMDL
