MODEL 1
REMARK VINA RESULT:    -8.306      0.000      0.000
REMARK INTER + INTRA:         -11.227
REMARK INTER:                 -10.249
REMARK INTRA:                  -0.978
REMARK UNBOUND:                -0.978
REMARK  Name = 
REMARK  6 active torsions:
REMARK  status: ('A' for Active; 'I' for Inactive)
REMARK    1  A    between atoms: C_1  and  C_2
REMARK    2  A    between atoms: C_2  and  N_3
REMARK    3  A    between atoms: C_2  and  C_19
REMARK    4  A    between atoms: C_4  and  C_6
REMARK    5  A    between atoms: C_11  and  C_13
REMARK    6  A    between atoms: N_16  and  C_17
REMARK                            x       y       z     vdW  Elec       q    Type
REMARK                         _______ _______ _______ _____ _____    ______ ____
ROOT
ATOM      1  N   UNL     1      47.111   6.434  12.218  0.00  0.00    +0.000 N 
ATOM      2  C   UNL     1      45.936   7.199  12.233  0.00  0.00    +0.000 C 
ATOM      3  O   UNL     1      45.887   8.301  12.765  0.00  0.00    +0.000 OA
ATOM      4  H   UNL     1      46.964   5.462  12.011  0.00  0.00    +0.000 HD
ENDROOT
BRANCH   2   5
ATOM      5  C   UNL     1      44.629   6.387  11.703  0.00  0.00    +0.000 C 
ATOM      6  C   UNL     1      43.865   5.791  12.913  0.00  0.00    +0.000 C 
ATOM      7  C   UNL     1      42.643   5.140  12.292  0.00  0.00    +0.000 C 
ATOM      8  C   UNL     1      43.165   4.573  10.986  0.00  0.00    +0.000 C 
ATOM      9  N   UNL     1      44.446   5.241  10.736  0.00  0.00    +0.000 N 
ATOM     10  C   UNL     1      45.236   4.969   9.621  0.00  0.00    +0.000 C 
ATOM     11  O   UNL     1      46.341   5.485   9.477  0.00  0.00    +0.000 OA
BRANCH  10  12
ATOM     12  C   UNL     1      44.711   3.928   8.586  0.00  0.00    +0.000 C 
ATOM     13  C   UNL     1      44.488   2.514   9.140  0.00  0.00    +0.000 C 
ATOM     14  C   UNL     1      45.721   1.702   8.763  0.00  0.00    +0.000 C 
ATOM     15  N   UNL     1      46.464   2.490   7.785  0.00  0.00    +0.000 NA
ATOM     16  C   UNL     1      46.928   1.733   6.632  0.00  0.00    +0.000 C 
ATOM     17  C   UNL     1      45.684   3.678   7.433  0.00  0.00    +0.000 C 
ENDBRANCH  10  12
ENDBRANCH   2   5
BRANCH   1  19
ATOM     18  C   UNL     1      49.455   7.621  12.267  0.00  0.00    +0.000 C 
ATOM     19  C   UNL     1      48.447   6.619  12.816  0.00  0.00    +0.000 C 
BRANCH  19  20
ATOM     20  C   UNL     1      48.346   6.585  14.328  0.00  0.00    +0.000 A 
ATOM     21  C   UNL     1      48.692   7.646  15.154  0.00  0.00    +0.000 A 
ATOM     22  S   UNL     1      48.772   7.201  16.806  0.00  0.00    +0.000 S 
ATOM     23  C   UNL     1      48.298   5.604  16.449  0.00  0.00    +0.000 A 
ATOM     24  N   UNL     1      48.313   4.616  17.385  0.00  0.00    +0.000 NA
ATOM     25  C   UNL     1      47.972   3.455  16.920  0.00  0.00    +0.000 A 
ATOM     26  N   UNL     1      47.525   3.210  15.650  0.00  0.00    +0.000 N 
ATOM     27  C   UNL     1      47.268   4.231  14.766  0.00  0.00    +0.000 A 
ATOM     28  O   UNL     1      46.434   4.109  13.875  0.00  0.00    +0.000 OA
ATOM     29  C   UNL     1      47.912   5.474  15.127  0.00  0.00    +0.000 A 
ATOM     30  H   UNL     1      47.136   2.321  15.392  0.00  0.00    +0.000 HD
ENDBRANCH  19  20
ENDBRANCH   1  19
TORSDOF 4
ENDMDL
MODEL 2
REMARK VINA RESULT:    -7.561      2.262      3.971
REMARK INTER + INTRA:         -10.307
REMARK INTER:                  -9.296
REMARK INTRA:                  -1.011
REMARK UNBOUND:                -0.978
REMARK  Name = 
REMARK  6 active torsions:
REMARK  status: ('A' for Active; 'I' for Inactive)
REMARK    1  A    between atoms: C_1  and  C_2
REMARK    2  A    between atoms: C_2  and  N_3
REMARK    3  A    between atoms: C_2  and  C_19
REMARK    4  A    between atoms: C_4  and  C_6
REMARK    5  A    between atoms: C_11  and  C_13
REMARK    6  A    between atoms: N_16  and  C_17
REMARK                            x       y       z     vdW  Elec       q    Type
REMARK                         _______ _______ _______ _____ _____    ______ ____
ROOT
ATOM      1  N   UNL     1      48.137   7.371  15.994  0.00  0.00    +0.000 N 
ATOM      2  C   UNL     1      48.623   7.090  14.708  0.00  0.00    +0.000 C 
ATOM      3  O   UNL     1      49.770   6.708  14.517  0.00  0.00    +0.000 OA
ATOM      4  H   UNL     1      47.302   7.929  16.003  0.00  0.00    +0.000 HD
ENDROOT
BRANCH   2   5
ATOM      5  C   UNL     1      47.608   7.548  13.521  0.00  0.00    +0.000 C 
ATOM      6  C   UNL     1      47.287   9.057  13.668  0.00  0.00    +0.000 C 
ATOM      7  C   UNL     1      46.411   9.366  12.468  0.00  0.00    +0.000 C 
ATOM      8  C   UNL     1      45.568   8.115  12.309  0.00  0.00    +0.000 C 
ATOM      9  N   UNL     1      46.242   7.069  13.086  0.00  0.00    +0.000 N 
ATOM     10  C   UNL     1      45.753   5.769  13.188  0.00  0.00    +0.000 C 
ATOM     11  O   UNL     1      46.295   4.936  13.909  0.00  0.00    +0.000 OA
BRANCH  10  12
ATOM     12  C   UNL     1      44.446   5.414  12.416  0.00  0.00    +0.000 C 
ATOM     13  C   UNL     1      43.585   4.320  13.060  0.00  0.00    +0.000 C 
ATOM     14  C   UNL     1      43.917   3.023  12.333  0.00  0.00    +0.000 C 
ATOM     15  N   UNL     1      44.675   3.388  11.141  0.00  0.00    +0.000 NA
ATOM     16  C   UNL     1      44.247   2.708   9.927  0.00  0.00    +0.000 C 
ATOM     17  C   UNL     1      44.705   4.847  11.019  0.00  0.00    +0.000 C 
ENDBRANCH  10  12
ENDBRANCH   2   5
BRANCH   1  19
ATOM     18  C   UNL     1      48.048   7.937  18.558  0.00  0.00    +0.000 C 
ATOM     19  C   UNL     1      48.763   7.389  17.330  0.00  0.00    +0.000 C 
BRANCH  19  20
ATOM     20  C   UNL     1      49.525   6.099  17.562  0.00  0.00    +0.000 A 
ATOM     21  C   UNL     1      50.874   6.040  17.886  0.00  0.00    +0.000 A 
ATOM     22  S   UNL     1      51.514   4.456  17.772  0.00  0.00    +0.000 S 
ATOM     23  C   UNL     1      49.994   3.820  17.341  0.00  0.00    +0.000 A 
ATOM     24  N   UNL     1      49.835   2.531  16.934  0.00  0.00    +0.000 NA
ATOM     25  C   UNL     1      48.619   2.239  16.596  0.00  0.00    +0.000 A 
ATOM     26  N   UNL     1      47.540   3.071  16.721  0.00  0.00    +0.000 N 
ATOM     27  C   UNL     1      47.636   4.286  17.358  0.00  0.00    +0.000 A 
ATOM     28  O   UNL     1      46.669   4.792  17.916  0.00  0.00    +0.000 OA
ATOM     29  C   UNL     1      48.994   4.769  17.465  0.00  0.00    +0.000 A 
ATOM     30  H   UNL     1      46.601   2.741  16.582  0.00  0.00    +0.000 HD
ENDBRANCH  19  20
ENDBRANCH   1  19
TORSDOF 4
ENDMDL
MODEL 3
REMARK VINA RESULT:    -7.155      3.015      5.652
REMARK INTER + INTRA:          -9.806
REMARK INTER:                  -8.683
REMARK INTRA:                  -1.123
REMARK UNBOUND:                -0.978
REMARK  Name = 
REMARK  6 active torsions:
REMARK  status: ('A' for Active; 'I' for Inactive)
REMARK    1  A    between atoms: C_1  and  C_2
REMARK    2  A    between atoms: C_2  and  N_3
REMARK    3  A    between atoms: C_2  and  C_19
REMARK    4  A    between atoms: C_4  and  C_6
REMARK    5  A    between atoms: C_11  and  C_13
REMARK    6  A    between atoms: N_16  and  C_17
REMARK                            x       y       z     vdW  Elec       q    Type
REMARK                         _______ _______ _______ _____ _____    ______ ____
ROOT
ATOM      1  N   UNL     1      46.676   4.545  16.127  0.00  0.00    +0.000 N 
ATOM      2  C   UNL     1      46.945   4.064  14.837  0.00  0.00    +0.000 C 
ATOM      3  O   UNL     1      47.681   3.106  14.643  0.00  0.00    +0.000 OA
ATOM      4  H   UNL     1      46.301   5.477  16.146  0.00  0.00    +0.000 HD
ENDROOT
BRANCH   2   5
ATOM      5  C   UNL     1      46.388   5.037  13.657  0.00  0.00    +0.000 C 
ATOM      6  C   UNL     1      45.515   4.213  12.676  0.00  0.00    +0.000 C 
ATOM      7  C   UNL     1      45.000   5.242  11.687  0.00  0.00    +0.000 C 
ATOM      8  C   UNL     1      46.170   6.193  11.521  0.00  0.00    +0.000 C 
ATOM      9  N   UNL     1      47.068   5.936  12.651  0.00  0.00    +0.000 N 
ATOM     10  C   UNL     1      48.268   6.619  12.835  0.00  0.00    +0.000 C 
ATOM     11  O   UNL     1      49.038   6.329  13.745  0.00  0.00    +0.000 OA
BRANCH  10  12
ATOM     12  C   UNL     1      48.648   7.724  11.802  0.00  0.00    +0.000 C 
ATOM     13  C   UNL     1      50.144   7.825  11.477  0.00  0.00    +0.000 C 
ATOM     14  C   UNL     1      50.697   8.962  12.328  0.00  0.00    +0.000 C 
ATOM     15  N   UNL     1      49.549   9.682  12.868  0.00  0.00    +0.000 NA
ATOM     16  C   UNL     1      49.651  11.131  12.772  0.00  0.00    +0.000 C 
ATOM     17  C   UNL     1      48.322   9.139  12.283  0.00  0.00    +0.000 C 
ENDBRANCH  10  12
ENDBRANCH   2   5
BRANCH   1  19
ATOM     18  C   UNL     1      47.965   2.904  17.723  0.00  0.00    +0.000 C 
ATOM     19  C   UNL     1      47.177   4.182  17.467  0.00  0.00    +0.000 C 
BRANCH  19  20
ATOM     20  C   UNL     1      47.715   5.412  18.170  0.00  0.00    +0.000 A 
ATOM     21  C   UNL     1      47.104   6.013  19.262  0.00  0.00    +0.000 A 
ATOM     22  S   UNL     1      47.768   7.549  19.629  0.00  0.00    +0.000 S 
ATOM     23  C   UNL     1      48.911   7.410  18.374  0.00  0.00    +0.000 A 
ATOM     24  N   UNL     1      49.713   8.446  18.005  0.00  0.00    +0.000 NA
ATOM     25  C   UNL     1      50.481   8.174  16.998  0.00  0.00    +0.000 A 
ATOM     26  N   UNL     1      50.596   6.951  16.395  0.00  0.00    +0.000 N 
ATOM     27  C   UNL     1      49.980   5.834  16.907  0.00  0.00    +0.000 A 
ATOM     28  O   UNL     1      50.439   4.712  16.727  0.00  0.00    +0.000 OA
ATOM     29  C   UNL     1      48.898   6.144  17.815  0.00  0.00    +0.000 A 
ATOM     30  H   UNL     1      51.313   6.763  15.717  0.00  0.00    +0.000 HD
ENDBRANCH  19  20
ENDBRANCH   1  19
TORSDOF 4
ENDMDL
MODEL 4
REMARK VINA RESULT:    -6.768      1.784      2.283
REMARK INTER + INTRA:          -9.329
REMARK INTER:                  -9.489
REMARK INTRA:                   0.160
REMARK UNBOUND:                -0.978
REMARK  Name = 
REMARK  6 active torsions:
REMARK  status: ('A' for Active; 'I' for Inactive)
REMARK    1  A    between atoms: C_1  and  C_2
REMARK    2  A    between atoms: C_2  and  N_3
REMARK    3  A    between atoms: C_2  and  C_19
REMARK    4  A    between atoms: C_4  and  C_6
REMARK    5  A    between atoms: C_11  and  C_13
REMARK    6  A    between atoms: N_16  and  C_17
REMARK                            x       y       z     vdW  Elec       q    Type
REMARK                         _______ _______ _______ _____ _____    ______ ____
ROOT
ATOM      1  N   UNL     1      46.742   6.258  12.726  0.00  0.00    +0.000 N 
ATOM      2  C   UNL     1      45.654   6.732  11.979  0.00  0.00    +0.000 C 
ATOM      3  O   UNL     1      45.429   7.928  11.848  0.00  0.00    +0.000 OA
ATOM      4  H   UNL     1      46.666   5.292  12.991  0.00  0.00    +0.000 HD
ENDROOT
BRANCH   2   5
ATOM      5  C   UNL     1      44.621   5.559  11.527  0.00  0.00    +0.000 C 
ATOM      6  C   UNL     1      44.313   4.645  12.740  0.00  0.00    +0.000 C 
ATOM      7  C   UNL     1      43.290   3.658  12.208  0.00  0.00    +0.000 C 
ATOM      8  C   UNL     1      43.742   3.409  10.782  0.00  0.00    +0.000 C 
ATOM      9  N   UNL     1      44.667   4.497  10.452  0.00  0.00    +0.000 N 
ATOM     10  C   UNL     1      45.302   4.603   9.216  0.00  0.00    +0.000 C 
ATOM     11  O   UNL     1      46.132   5.480   8.995  0.00  0.00    +0.000 OA
BRANCH  10  12
ATOM     12  C   UNL     1      44.985   3.525   8.135  0.00  0.00    +0.000 C 
ATOM     13  C   UNL     1      45.104   2.071   8.609  0.00  0.00    +0.000 C 
ATOM     14  C   UNL     1      46.473   1.578   8.154  0.00  0.00    +0.000 C 
ATOM     15  N   UNL     1      46.983   2.564   7.207  0.00  0.00    +0.000 NA
ATOM     16  C   UNL     1      47.563   1.992   6.000  0.00  0.00    +0.000 C 
ATOM     17  C   UNL     1      45.945   3.562   6.945  0.00  0.00    +0.000 C 
ENDBRANCH  10  12
ENDBRANCH   2   5
BRANCH   1  19
ATOM     18  C   UNL     1      47.769   8.426  13.797  0.00  0.00    +0.000 C 
ATOM     19  C   UNL     1      47.768   6.923  13.553  0.00  0.00    +0.000 C 
BRANCH  19  20
ATOM     20  C   UNL     1      48.073   6.081  14.776  0.00  0.00    +0.000 A 
ATOM     21  C   UNL     1      47.341   4.962  15.152  0.00  0.00    +0.000 A 
ATOM     22  S   UNL     1      47.726   4.419  16.730  0.00  0.00    +0.000 S 
ATOM     23  C   UNL     1      48.907   5.633  16.913  0.00  0.00    +0.000 A 
ATOM     24  N   UNL     1      49.532   5.865  18.100  0.00  0.00    +0.000 NA
ATOM     25  C   UNL     1      50.360   6.861  18.065  0.00  0.00    +0.000 A 
ATOM     26  N   UNL     1      50.695   7.574  16.946  0.00  0.00    +0.000 N 
ATOM     27  C   UNL     1      50.264   7.200  15.695  0.00  0.00    +0.000 A 
ATOM     28  O   UNL     1      50.911   7.469  14.690  0.00  0.00    +0.000 OA
ATOM     29  C   UNL     1      49.123   6.312  15.727  0.00  0.00    +0.000 A 
ATOM     30  H   UNL     1      51.450   8.237  16.950  0.00  0.00    +0.000 HD
ENDBRANCH  19  20
ENDBRANCH   1  19
TORSDOF 4
ENDMDL
MODEL 5
REMARK VINA RESULT:    -6.653      2.105      3.278
REMARK INTER + INTRA:          -9.187
REMARK INTER:                  -8.054
REMARK INTRA:                  -1.132
REMARK UNBOUND:                -0.978
REMARK  Name = 
REMARK  6 active torsions:
REMARK  status: ('A' for Active; 'I' for Inactive)
REMARK    1  A    between atoms: C_1  and  C_2
REMARK    2  A    between atoms: C_2  and  N_3
REMARK    3  A    between atoms: C_2  and  C_19
REMARK    4  A    between atoms: C_4  and  C_6
REMARK    5  A    between atoms: C_11  and  C_13
REMARK    6  A    between atoms: N_16  and  C_17
REMARK                            x       y       z     vdW  Elec       q    Type
REMARK                         _______ _______ _______ _____ _____    ______ ____
ROOT
ATOM      1  N   UNL     1      48.263   7.910  14.992  0.00  0.00    +0.000 N 
ATOM      2  C   UNL     1      48.321   7.304  13.729  0.00  0.00    +0.000 C 
ATOM      3  O   UNL     1      49.293   6.656  13.364  0.00  0.00    +0.000 OA
ATOM      4  H   UNL     1      47.564   8.627  15.070  0.00  0.00    +0.000 HD
ENDROOT
BRANCH   2   5
ATOM      5  C   UNL     1      47.103   7.748  12.744  0.00  0.00    +0.000 C 
ATOM      6  C   UNL     1      46.448   9.044  13.283  0.00  0.00    +0.000 C 
ATOM      7  C   UNL     1      45.398   9.388  12.242  0.00  0.00    +0.000 C 
ATOM      8  C   UNL     1      44.869   8.033  11.809  0.00  0.00    +0.000 C 
ATOM      9  N   UNL     1      45.854   7.047  12.263  0.00  0.00    +0.000 N 
ATOM     10  C   UNL     1      45.705   5.678  12.054  0.00  0.00    +0.000 C 
ATOM     11  O   UNL     1      46.505   4.869  12.514  0.00  0.00    +0.000 OA
BRANCH  10  12
ATOM     12  C   UNL     1      44.446   5.187  11.277  0.00  0.00    +0.000 C 
ATOM     13  C   UNL     1      43.576   4.166  12.022  0.00  0.00    +0.000 C 
ATOM     14  C   UNL     1      43.971   2.792  11.493  0.00  0.00    +0.000 C 
ATOM     15  N   UNL     1      44.779   3.016  10.299  0.00  0.00    +0.000 NA
ATOM     16  C   UNL     1      44.427   2.168   9.170  0.00  0.00    +0.000 C 
ATOM     17  C   UNL     1      44.785   4.445   9.983  0.00  0.00    +0.000 C 
ENDBRANCH  10  12
ENDBRANCH   2   5
BRANCH   1  19
ATOM     18  C   UNL     1      50.136   9.246  16.259  0.00  0.00    +0.000 C 
ATOM     19  C   UNL     1      49.229   8.033  16.100  0.00  0.00    +0.000 C 
BRANCH  19  20
ATOM     20  C   UNL     1      48.606   7.533  17.389  0.00  0.00    +0.000 A 
ATOM     21  C   UNL     1      48.139   8.363  18.399  0.00  0.00    +0.000 A 
ATOM     22  S   UNL     1      47.790   7.513  19.845  0.00  0.00    +0.000 S 
ATOM     23  C   UNL     1      48.207   6.025  19.129  0.00  0.00    +0.000 A 
ATOM     24  N   UNL     1      48.297   4.873  19.849  0.00  0.00    +0.000 NA
ATOM     25  C   UNL     1      48.678   3.852  19.149  0.00  0.00    +0.000 A 
ATOM     26  N   UNL     1      48.876   3.848  17.795  0.00  0.00    +0.000 N 
ATOM     27  C   UNL     1      48.553   4.934  17.015  0.00  0.00    +0.000 A 
ATOM     28  O   UNL     1      48.242   4.803  15.837  0.00  0.00    +0.000 OA
ATOM     29  C   UNL     1      48.427   6.161  17.770  0.00  0.00    +0.000 A 
ATOM     30  H   UNL     1      49.027   2.995  17.287  0.00  0.00    +0.000 HD
ENDBRANCH  19  20
ENDBRANCH   1  19
TORSDOF 4
ENDMDL
MODEL 6
REMARK VINA RESULT:    -6.643      3.258      6.055
REMARK INTER + INTRA:          -9.175
REMARK INTER:                  -7.611
REMARK INTRA:                  -1.564
REMARK UNBOUND:                -0.978
REMARK  Name = 
REMARK  6 active torsions:
REMARK  status: ('A' for Active; 'I' for Inactive)
REMARK    1  A    between atoms: C_1  and  C_2
REMARK    2  A    between atoms: C_2  and  N_3
REMARK    3  A    between atoms: C_2  and  C_19
REMARK    4  A    between atoms: C_4  and  C_6
REMARK    5  A    between atoms: C_11  and  C_13
REMARK    6  A    between atoms: N_16  and  C_17
REMARK                            x       y       z     vdW  Elec       q    Type
REMARK                         _______ _______ _______ _____ _____    ______ ____
ROOT
ATOM      1  N   UNL     1      47.112   4.749  16.055  0.00  0.00    +0.000 N 
ATOM      2  C   UNL     1      47.048   4.270  14.738  0.00  0.00    +0.000 C 
ATOM      3  O   UNL     1      47.420   3.143  14.439  0.00  0.00    +0.000 OA
ATOM      4  H   UNL     1      47.049   5.748  16.130  0.00  0.00    +0.000 HD
ENDROOT
BRANCH   2   5
ATOM      5  C   UNL     1      46.668   5.420  13.651  0.00  0.00    +0.000 C 
ATOM      6  C   UNL     1      45.879   4.784  12.478  0.00  0.00    +0.000 C 
ATOM      7  C   UNL     1      45.521   5.962  11.592  0.00  0.00    +0.000 C 
ATOM      8  C   UNL     1      46.740   6.861  11.684  0.00  0.00    +0.000 C 
ATOM      9  N   UNL     1      47.493   6.407  12.857  0.00  0.00    +0.000 N 
ATOM     10  C   UNL     1      48.691   6.992  13.261  0.00  0.00    +0.000 C 
ATOM     11  O   UNL     1      49.340   6.540  14.199  0.00  0.00    +0.000 OA
BRANCH  10  12
ATOM     12  C   UNL     1      49.230   8.201  12.437  0.00  0.00    +0.000 C 
ATOM     13  C   UNL     1      50.433   7.892  11.536  0.00  0.00    +0.000 C 
ATOM     14  C   UNL     1      51.673   8.344  12.299  0.00  0.00    +0.000 C 
ATOM     15  N   UNL     1      51.207   9.152  13.422  0.00  0.00    +0.000 NA
ATOM     16  C   UNL     1      51.945  10.391  13.615  0.00  0.00    +0.000 C 
ATOM     17  C   UNL     1      49.759   9.339  13.312  0.00  0.00    +0.000 C 
ENDBRANCH  10  12
ENDBRANCH   2   5
BRANCH   1  19
ATOM     18  C   UNL     1      47.212   2.830  17.846  0.00  0.00    +0.000 C 
ATOM     19  C   UNL     1      47.648   4.188  17.309  0.00  0.00    +0.000 C 
BRANCH  19  20
ATOM     20  C   UNL     1      49.136   4.460  17.406  0.00  0.00    +0.000 A 
ATOM     21  C   UNL     1      50.116   3.494  17.225  0.00  0.00    +0.000 A 
ATOM     22  S   UNL     1      51.670   4.030  17.706  0.00  0.00    +0.000 S 
ATOM     23  C   UNL     1      51.067   5.571  18.112  0.00  0.00    +0.000 A 
ATOM     24  N   UNL     1      51.828   6.503  18.747  0.00  0.00    +0.000 NA
ATOM     25  C   UNL     1      51.188   7.595  19.023  0.00  0.00    +0.000 A 
ATOM     26  N   UNL     1      49.906   7.881  18.639  0.00  0.00    +0.000 N 
ATOM     27  C   UNL     1      49.207   7.058  17.788  0.00  0.00    +0.000 A 
ATOM     28  O   UNL     1      48.328   7.496  17.054  0.00  0.00    +0.000 OA
ATOM     29  C   UNL     1      49.751   5.720  17.713  0.00  0.00    +0.000 A 
ATOM     30  H   UNL     1      49.514   8.799  18.753  0.00  0.00    +0.000 HD
ENDBRANCH  19  20
ENDBRANCH   1  19
TORSDOF 4
ENDMDL
MODEL 7
REMARK VINA RESULT:    -6.605      3.612      5.865
REMARK INTER + INTRA:          -9.128
REMARK INTER:                  -7.900
REMARK INTRA:                  -1.228
REMARK UNBOUND:                -0.978
REMARK  Name = 
REMARK  6 active torsions:
REMARK  status: ('A' for Active; 'I' for Inactive)
REMARK    1  A    between atoms: C_1  and  C_2
REMARK    2  A    between atoms: C_2  and  N_3
REMARK    3  A    between atoms: C_2  and  C_19
REMARK    4  A    between atoms: C_4  and  C_6
REMARK    5  A    between atoms: C_11  and  C_13
REMARK    6  A    between atoms: N_16  and  C_17
REMARK                            x       y       z     vdW  Elec       q    Type
REMARK                         _______ _______ _______ _____ _____    ______ ____
ROOT
ATOM      1  N   UNL     1      49.220   4.862  16.625  0.00  0.00    +0.000 N 
ATOM      2  C   UNL     1      48.811   6.199  16.513  0.00  0.00    +0.000 C 
ATOM      3  O   UNL     1      48.476   6.859  17.488  0.00  0.00    +0.000 OA
ATOM      4  H   UNL     1      49.200   4.354  15.759  0.00  0.00    +0.000 HD
ENDROOT
BRANCH   2   5
ATOM      5  C   UNL     1      48.603   6.683  14.973  0.00  0.00    +0.000 C 
ATOM      6  C   UNL     1      48.666   8.230  14.904  0.00  0.00    +0.000 C 
ATOM      7  C   UNL     1      48.543   8.539  13.423  0.00  0.00    +0.000 C 
ATOM      8  C   UNL     1      47.563   7.495  12.922  0.00  0.00    +0.000 C 
ATOM      9  N   UNL     1      47.509   6.457  13.956  0.00  0.00    +0.000 N 
ATOM     10  C   UNL     1      46.700   5.328  13.854  0.00  0.00    +0.000 C 
ATOM     11  O   UNL     1      46.614   4.515  14.770  0.00  0.00    +0.000 OA
BRANCH  10  12
ATOM     12  C   UNL     1      45.840   5.156  12.564  0.00  0.00    +0.000 C 
ATOM     13  C   UNL     1      44.458   5.822  12.609  0.00  0.00    +0.000 C 
ATOM     14  C   UNL     1      43.460   4.726  12.964  0.00  0.00    +0.000 C 
ATOM     15  N   UNL     1      44.161   3.454  12.820  0.00  0.00    +0.000 NA
ATOM     16  C   UNL     1      43.407   2.431  12.111  0.00  0.00    +0.000 C 
ATOM     17  C   UNL     1      45.492   3.699  12.260  0.00  0.00    +0.000 C 
ENDBRANCH  10  12
ENDBRANCH   2   5
BRANCH   1  19
ATOM     18  C   UNL     1      48.073   3.136  18.240  0.00  0.00    +0.000 C 
ATOM     19  C   UNL     1      49.288   3.917  17.756  0.00  0.00    +0.000 C 
BRANCH  19  20
ATOM     20  C   UNL     1      50.571   3.113  17.683  0.00  0.00    +0.000 A 
ATOM     21  C   UNL     1      50.648   1.814  17.199  0.00  0.00    +0.000 A 
ATOM     22  S   UNL     1      52.153   1.069  17.536  0.00  0.00    +0.000 S 
ATOM     23  C   UNL     1      52.740   2.483  18.284  0.00  0.00    +0.000 A 
ATOM     24  N   UNL     1      53.924   2.510  18.955  0.00  0.00    +0.000 NA
ATOM     25  C   UNL     1      54.183   3.655  19.504  0.00  0.00    +0.000 A 
ATOM     26  N   UNL     1      53.431   4.790  19.363  0.00  0.00    +0.000 N 
ATOM     27  C   UNL     1      52.369   4.848  18.492  0.00  0.00    +0.000 A 
ATOM     28  O   UNL     1      52.021   5.906  17.980  0.00  0.00    +0.000 OA
ATOM     29  C   UNL     1      51.872   3.546  18.111  0.00  0.00    +0.000 A 
ATOM     30  H   UNL     1      53.758   5.682  19.689  0.00  0.00    +0.000 HD
ENDBRANCH  19  20
ENDBRANCH   1  19
TORSDOF 4
ENDMDL
MODEL 8
REMARK VINA RESULT:    -6.544      2.888      4.401
REMARK INTER + INTRA:          -9.052
REMARK INTER:                  -7.962
REMARK INTRA:                  -1.090
REMARK UNBOUND:                -0.978
REMARK  Name = 
REMARK  6 active torsions:
REMARK  status: ('A' for Active; 'I' for Inactive)
REMARK    1  A    between atoms: C_1  and  C_2
REMARK    2  A    between atoms: C_2  and  N_3
REMARK    3  A    between atoms: C_2  and  C_19
REMARK    4  A    between atoms: C_4  and  C_6
REMARK    5  A    between atoms: C_11  and  C_13
REMARK    6  A    between atoms: N_16  and  C_17
REMARK                            x       y       z     vdW  Elec       q    Type
REMARK                         _______ _______ _______ _____ _____    ______ ____
ROOT
ATOM      1  N   UNL     1      48.273   7.116  15.471  0.00  0.00    +0.000 N 
ATOM      2  C   UNL     1      48.787   7.384  14.193  0.00  0.00    +0.000 C 
ATOM      3  O   UNL     1      49.990   7.468  13.983  0.00  0.00    +0.000 OA
ATOM      4  H   UNL     1      47.301   7.345  15.577  0.00  0.00    +0.000 HD
ENDROOT
BRANCH   2   5
ATOM      5  C   UNL     1      47.643   7.800  13.112  0.00  0.00    +0.000 C 
ATOM      6  C   UNL     1      47.240   9.281  13.329  0.00  0.00    +0.000 C 
ATOM      7  C   UNL     1      46.244   9.558  12.219  0.00  0.00    +0.000 C 
ATOM      8  C   UNL     1      45.473   8.257  12.099  0.00  0.00    +0.000 C 
ATOM      9  N   UNL     1      46.278   7.242  12.783  0.00  0.00    +0.000 N 
ATOM     10  C   UNL     1      45.885   5.910  12.890  0.00  0.00    +0.000 C 
ATOM     11  O   UNL     1      46.541   5.098  13.537  0.00  0.00    +0.000 OA
BRANCH  10  12
ATOM     12  C   UNL     1      44.541   5.486  12.224  0.00  0.00    +0.000 C 
ATOM     13  C   UNL     1      43.754   4.403  12.975  0.00  0.00    +0.000 C 
ATOM     14  C   UNL     1      44.074   3.081  12.287  0.00  0.00    +0.000 C 
ATOM     15  N   UNL     1      44.741   3.408  11.031  0.00  0.00    +0.000 NA
ATOM     16  C   UNL     1      44.254   2.660   9.881  0.00  0.00    +0.000 C 
ATOM     17  C   UNL     1      44.723   4.860  10.841  0.00  0.00    +0.000 C 
ENDBRANCH  10  12
ENDBRANCH   2   5
BRANCH   1  19
ATOM     18  C   UNL     1      48.319   7.609  18.051  0.00  0.00    +0.000 C 
ATOM     19  C   UNL     1      48.896   6.960  16.799  0.00  0.00    +0.000 C 
BRANCH  19  20
ATOM     20  C   UNL     1      49.369   5.532  16.985  0.00  0.00    +0.000 A 
ATOM     21  C   UNL     1      48.522   4.434  17.043  0.00  0.00    +0.000 A 
ATOM     22  S   UNL     1      49.317   3.012  17.573  0.00  0.00    +0.000 S 
ATOM     23  C   UNL     1      50.809   3.828  17.680  0.00  0.00    +0.000 A 
ATOM     24  N   UNL     1      51.913   3.251  18.230  0.00  0.00    +0.000 NA
ATOM     25  C   UNL     1      52.941   4.038  18.276  0.00  0.00    +0.000 A 
ATOM     26  N   UNL     1      53.001   5.296  17.739  0.00  0.00    +0.000 N 
ATOM     27  C   UNL     1      51.982   5.800  16.966  0.00  0.00    +0.000 A 
ATOM     28  O   UNL     1      52.194   6.639  16.098  0.00  0.00    +0.000 OA
ATOM     29  C   UNL     1      50.729   5.102  17.147  0.00  0.00    +0.000 A 
ATOM     30  H   UNL     1      53.868   5.800  17.675  0.00  0.00    +0.000 HD
ENDBRANCH  19  20
ENDBRANCH   1  19
TORSDOF 4
ENDMDL
MODEL 9
REMARK VINA RESULT:    -6.472      3.623      7.412
REMARK INTER + INTRA:          -8.964
REMARK INTER:                  -7.671
REMARK INTRA:                  -1.293
REMARK UNBOUND:                -0.978
REMARK  Name = 
REMARK  6 active torsions:
REMARK  status: ('A' for Active; 'I' for Inactive)
REMARK    1  A    between atoms: C_1  and  C_2
REMARK    2  A    between atoms: C_2  and  N_3
REMARK    3  A    between atoms: C_2  and  C_19
REMARK    4  A    between atoms: C_4  and  C_6
REMARK    5  A    between atoms: C_11  and  C_13
REMARK    6  A    between atoms: N_16  and  C_17
REMARK                            x       y       z     vdW  Elec       q    Type
REMARK                         _______ _______ _______ _____ _____    ______ ____
ROOT
ATOM      1  N   UNL     1      47.690   8.843  15.209  0.00  0.00    +0.000 N 
ATOM      2  C   UNL     1      48.143   9.493  16.367  0.00  0.00    +0.000 C 
ATOM      3  O   UNL     1      48.860  10.483  16.316  0.00  0.00    +0.000 OA
ATOM      4  H   UNL     1      47.356   7.909  15.368  0.00  0.00    +0.000 HD
ENDROOT
BRANCH   2   5
ATOM      5  C   UNL     1      47.824   8.670  17.735  0.00  0.00    +0.000 C 
ATOM      6  C   UNL     1      47.937   9.625  18.950  0.00  0.00    +0.000 C 
ATOM      7  C   UNL     1      47.540   8.763  20.134  0.00  0.00    +0.000 C 
ATOM      8  C   UNL     1      48.123   7.403  19.797  0.00  0.00    +0.000 C 
ATOM      9  N   UNL     1      48.425   7.434  18.363  0.00  0.00    +0.000 N 
ATOM     10  C   UNL     1      48.988   6.356  17.684  0.00  0.00    +0.000 C 
ATOM     11  O   UNL     1      49.303   6.437  16.501  0.00  0.00    +0.000 OA
BRANCH  10  12
ATOM     12  C   UNL     1      49.279   5.053  18.491  0.00  0.00    +0.000 C 
ATOM     13  C   UNL     1      50.732   4.884  18.953  0.00  0.00    +0.000 C 
ATOM     14  C   UNL     1      51.403   3.959  17.945  0.00  0.00    +0.000 C 
ATOM     15  N   UNL     1      50.338   3.373  17.136  0.00  0.00    +0.000 NA
ATOM     16  C   UNL     1      50.465   1.938  16.928  0.00  0.00    +0.000 C 
ATOM     17  C   UNL     1      49.042   3.777  17.682  0.00  0.00    +0.000 C 
ENDBRANCH  10  12
ENDBRANCH   2   5
BRANCH   1  19
ATOM     18  C   UNL     1      49.343   8.884  13.167  0.00  0.00    +0.000 C 
ATOM     19  C   UNL     1      47.953   9.040  13.771  0.00  0.00    +0.000 C 
BRANCH  19  20
ATOM     20  C   UNL     1      46.833   8.430  12.951  0.00  0.00    +0.000 A 
ATOM     21  C   UNL     1      46.001   9.156  12.110  0.00  0.00    +0.000 A 
ATOM     22  S   UNL     1      44.649   8.252  11.575  0.00  0.00    +0.000 S 
ATOM     23  C   UNL     1      45.180   6.868  12.413  0.00  0.00    +0.000 A 
ATOM     24  N   UNL     1      44.413   5.749  12.527  0.00  0.00    +0.000 NA
ATOM     25  C   UNL     1      44.957   4.817  13.244  0.00  0.00    +0.000 A 
ATOM     26  N   UNL     1      46.222   4.855  13.765  0.00  0.00    +0.000 N 
ATOM     27  C   UNL     1      47.101   5.866  13.455  0.00  0.00    +0.000 A 
ATOM     28  O   UNL     1      48.313   5.685  13.470  0.00  0.00    +0.000 OA
ATOM     29  C   UNL     1      46.451   7.046  12.931  0.00  0.00    +0.000 A 
ATOM     30  H   UNL     1      46.643   4.046  14.186  0.00  0.00    +0.000 HD
ENDBRANCH  19  20
ENDBRANCH   1  19
TORSDOF 4
ENDMDL
