MODEL 1
REMARK VINA RESULT:    -9.530      0.000      0.000
REMARK INTER + INTRA:         -14.582
REMARK INTER:                 -13.709
REMARK INTRA:                  -0.874
REMARK UNBOUND:                -0.874
REMARK  Name = 
REMARK  8 active torsions:
REMARK  status: ('A' for Active; 'I' for Inactive)
REMARK    1  A    between atoms: C_2  and  C_3
REMARK    2  A    between atoms: C_2  and  C_22
REMARK    3  A    between atoms: C_3  and  O_4
REMARK    4  A    between atoms: O_4  and  C_5
REMARK    5  A    between atoms: C_8  and  C_9
REMARK    6  A    between atoms: C_9  and  N_10
REMARK    7  A    between atoms: C_11  and  C_13
REMARK    8  A    between atoms: C_16  and  O_17
REMARK                            x       y       z     vdW  Elec       q    Type
REMARK                         _______ _______ _______ _____ _____    ______ ____
ROOT
ATOM      1  C   UNL     1      46.606   4.614  13.752  0.00  0.00    +0.000 A 
ATOM      2  C   UNL     1      46.227   3.363  13.265  0.00  0.00    +0.000 A 
ATOM      3  C   UNL     1      45.274   3.265  12.240  0.00  0.00    +0.000 A 
ATOM      4  C   UNL     1      44.692   4.419  11.698  0.00  0.00    +0.000 A 
ATOM      5  C   UNL     1      45.033   5.662  12.244  0.00  0.00    +0.000 A 
ATOM      6  C   UNL     1      45.976   5.753  13.269  0.00  0.00    +0.000 A 
ENDROOT
BRANCH   1   7
ATOM      7  O   UNL     1      47.602   4.632  14.696  0.00  0.00    +0.000 OA
BRANCH   7   8
ATOM      8  C   UNL     1      47.159   4.945  16.019  0.00  0.00    +0.000 C 
BRANCH   8  10
ATOM      9  O   UNL     1      46.857   2.997  17.410  0.00  0.00    +0.000 OA
ATOM     10  C   UNL     1      47.595   3.915  17.058  0.00  0.00    +0.000 C 
BRANCH  10  11
ATOM     11  C   UNL     1      48.931   4.078  17.655  0.00  0.00    +0.000 A 
ATOM     12  C   UNL     1      49.287   5.159  18.445  0.00  0.00    +0.000 A 
ATOM     13  S   UNL     1      50.879   5.048  19.059  0.00  0.00    +0.000 S 
ATOM     14  C   UNL     1      51.139   3.562  18.273  0.00  0.00    +0.000 A 
ATOM     15  N   UNL     1      52.330   2.910  18.386  0.00  0.00    +0.000 NA
ATOM     16  C   UNL     1      52.382   1.792  17.741  0.00  0.00    +0.000 A 
ATOM     17  N   UNL     1      51.359   1.273  16.991  0.00  0.00    +0.000 N 
ATOM     18  C   UNL     1      50.172   1.936  16.773  0.00  0.00    +0.000 A 
ATOM     19  O   UNL     1      49.373   1.531  15.935  0.00  0.00    +0.000 OA
ATOM     20  C   UNL     1      50.039   3.163  17.539  0.00  0.00    +0.000 A 
ATOM     21  H   UNL     1      51.485   0.422  16.460  0.00  0.00    +0.000 HD
ENDBRANCH  10  11
ENDBRANCH   8  10
ENDBRANCH   7   8
ENDBRANCH   1   7
BRANCH   4  22
ATOM     22  C   UNL     1      43.707   4.362  10.557  0.00  0.00    +0.000 C 
BRANCH  22  23
ATOM     23  N   UNL     1      44.205   3.566   9.457  0.00  0.00    +0.000 N 
ATOM     24  C   UNL     1      45.193   4.046   8.625  0.00  0.00    +0.000 C 
ATOM     25  O   UNL     1      45.692   5.157   8.766  0.00  0.00    +0.000 OA
ATOM     26  H   UNL     1      43.983   2.579   9.446  0.00  0.00    +0.000 HD
BRANCH  24  27
ATOM     27  C   UNL     1      45.597   3.079   7.501  0.00  0.00    +0.000 C 
ATOM     28  C   UNL     1      46.408   3.814   6.420  0.00  0.00    +0.000 C 
ATOM     29  C   UNL     1      46.957   2.869   5.349  0.00  0.00    +0.000 C 
ATOM     30  C   UNL     1      47.762   1.718   5.947  0.00  0.00    +0.000 C 
ATOM     31  C   UNL     1      46.942   0.962   6.989  0.00  0.00    +0.000 C 
ATOM     32  C   UNL     1      46.379   1.882   8.073  0.00  0.00    +0.000 C 
BRANCH  30  33
ATOM     33  O   UNL     1      48.971   2.212   6.518  0.00  0.00    +0.000 OA
ATOM     34  H   UNL     1      49.640   1.507   6.510  0.00  0.00    +0.000 HD
ENDBRANCH  30  33
ENDBRANCH  24  27
ENDBRANCH  22  23
ENDBRANCH   4  22
TORSDOF 8
ENDMDL
MODEL 2
REMARK VINA RESULT:    -8.423      1.538      2.174
REMARK INTER + INTRA:         -12.990
REMARK INTER:                 -12.211
REMARK INTRA:                  -0.779
REMARK UNBOUND:                -0.874
REMARK  Name = 
REMARK  8 active torsions:
REMARK  status: ('A' for Active; 'I' for Inactive)
REMARK    1  A    between atoms: C_2  and  C_3
REMARK    2  A    between atoms: C_2  and  C_22
REMARK    3  A    between atoms: C_3  and  O_4
REMARK    4  A    between atoms: O_4  and  C_5
REMARK    5  A    between atoms: C_8  and  C_9
REMARK    6  A    between atoms: C_9  and  N_10
REMARK    7  A    between atoms: C_11  and  C_13
REMARK    8  A    between atoms: C_16  and  O_17
REMARK                            x       y       z     vdW  Elec       q    Type
REMARK                         _______ _______ _______ _____ _____    ______ ____
ROOT
ATOM      1  C   UNL     1      47.209   4.840  13.888  0.00  0.00    +0.000 A 
ATOM      2  C   UNL     1      46.085   4.098  13.522  0.00  0.00    +0.000 A 
ATOM      3  C   UNL     1      45.391   4.406  12.342  0.00  0.00    +0.000 A 
ATOM      4  C   UNL     1      45.815   5.462  11.524  0.00  0.00    +0.000 A 
ATOM      5  C   UNL     1      46.902   6.239  11.940  0.00  0.00    +0.000 A 
ATOM      6  C   UNL     1      47.585   5.932  13.118  0.00  0.00    +0.000 A 
ENDROOT
BRANCH   1   7
ATOM      7  O   UNL     1      47.882   4.426  15.010  0.00  0.00    +0.000 OA
BRANCH   7   8
ATOM      8  C   UNL     1      47.083   4.374  16.195  0.00  0.00    +0.000 C 
BRANCH   8  10
ATOM      9  O   UNL     1      46.697   2.540  17.715  0.00  0.00    +0.000 OA
ATOM     10  C   UNL     1      47.514   3.275  17.162  0.00  0.00    +0.000 C 
BRANCH  10  11
ATOM     11  C   UNL     1      48.954   3.142  17.440  0.00  0.00    +0.000 A 
ATOM     12  C   UNL     1      49.724   2.083  16.985  0.00  0.00    +0.000 A 
ATOM     13  S   UNL     1      51.376   2.227  17.398  0.00  0.00    +0.000 S 
ATOM     14  C   UNL     1      51.104   3.698  18.209  0.00  0.00    +0.000 A 
ATOM     15  N   UNL     1      52.129   4.367  18.809  0.00  0.00    +0.000 NA
ATOM     16  C   UNL     1      51.775   5.470  19.379  0.00  0.00    +0.000 A 
ATOM     17  N   UNL     1      50.495   5.960  19.411  0.00  0.00    +0.000 N 
ATOM     18  C   UNL     1      49.414   5.277  18.899  0.00  0.00    +0.000 A 
ATOM     19  O   UNL     1      48.270   5.655  19.131  0.00  0.00    +0.000 OA
ATOM     20  C   UNL     1      49.773   4.068  18.181  0.00  0.00    +0.000 A 
ATOM     21  H   UNL     1      50.274   6.799  19.928  0.00  0.00    +0.000 HD
ENDBRANCH  10  11
ENDBRANCH   8  10
ENDBRANCH   7   8
ENDBRANCH   1   7
BRANCH   4  22
ATOM     22  C   UNL     1      45.132   5.790  10.220  0.00  0.00    +0.000 C 
BRANCH  22  23
ATOM     23  N   UNL     1      45.505   4.868   9.170  0.00  0.00    +0.000 N 
ATOM     24  C   UNL     1      44.811   3.693   8.979  0.00  0.00    +0.000 C 
ATOM     25  O   UNL     1      43.859   3.367   9.681  0.00  0.00    +0.000 OA
ATOM     26  H   UNL     1      46.127   5.200   8.445  0.00  0.00    +0.000 HD
BRANCH  24  27
ATOM     27  C   UNL     1      45.345   2.824   7.830  0.00  0.00    +0.000 C 
ATOM     28  C   UNL     1      46.095   3.688   6.802  0.00  0.00    +0.000 C 
ATOM     29  C   UNL     1      46.769   2.854   5.710  0.00  0.00    +0.000 C 
ATOM     30  C   UNL     1      47.681   1.773   6.284  0.00  0.00    +0.000 C 
ATOM     31  C   UNL     1      46.925   0.889   7.272  0.00  0.00    +0.000 C 
ATOM     32  C   UNL     1      46.240   1.696   8.375  0.00  0.00    +0.000 C 
BRANCH  30  33
ATOM     33  O   UNL     1      48.816   2.371   6.907  0.00  0.00    +0.000 OA
ATOM     34  H   UNL     1      48.821   2.141   7.851  0.00  0.00    +0.000 HD
ENDBRANCH  30  33
ENDBRANCH  24  27
ENDBRANCH  22  23
ENDBRANCH   4  22
TORSDOF 8
ENDMDL
MODEL 3
REMARK VINA RESULT:    -8.233      2.569      3.242
REMARK INTER + INTRA:         -12.717
REMARK INTER:                 -11.836
REMARK INTRA:                  -0.880
REMARK UNBOUND:                -0.874
REMARK  Name = 
REMARK  8 active torsions:
REMARK  status: ('A' for Active; 'I' for Inactive)
REMARK    1  A    between atoms: C_2  and  C_3
REMARK    2  A    between atoms: C_2  and  C_22
REMARK    3  A    between atoms: C_3  and  O_4
REMARK    4  A    between atoms: O_4  and  C_5
REMARK    5  A    between atoms: C_8  and  C_9
REMARK    6  A    between atoms: C_9  and  N_10
REMARK    7  A    between atoms: C_11  and  C_13
REMARK    8  A    between atoms: C_16  and  O_17
REMARK                            x       y       z     vdW  Elec       q    Type
REMARK                         _______ _______ _______ _____ _____    ______ ____
ROOT
ATOM      1  C   UNL     1      47.079   5.498  13.671  0.00  0.00    +0.000 A 
ATOM      2  C   UNL     1      46.466   4.253  13.520  0.00  0.00    +0.000 A 
ATOM      3  C   UNL     1      45.417   4.091  12.602  0.00  0.00    +0.000 A 
ATOM      4  C   UNL     1      44.973   5.174  11.832  0.00  0.00    +0.000 A 
ATOM      5  C   UNL     1      45.552   6.431  12.045  0.00  0.00    +0.000 A 
ATOM      6  C   UNL     1      46.591   6.588  12.964  0.00  0.00    +0.000 A 
ENDROOT
BRANCH   1   7
ATOM      7  O   UNL     1      48.150   5.557  14.526  0.00  0.00    +0.000 OA
BRANCH   7   8
ATOM      8  C   UNL     1      48.591   6.882  14.832  0.00  0.00    +0.000 C 
BRANCH   8  10
ATOM      9  O   UNL     1      50.721   6.465  15.888  0.00  0.00    +0.000 OA
ATOM     10  C   UNL     1      49.587   6.931  15.989  0.00  0.00    +0.000 C 
BRANCH  10  11
ATOM     11  C   UNL     1      49.130   7.533  17.253  0.00  0.00    +0.000 A 
ATOM     12  C   UNL     1      49.228   8.887  17.533  0.00  0.00    +0.000 A 
ATOM     13  S   UNL     1      48.553   9.311  19.045  0.00  0.00    +0.000 S 
ATOM     14  C   UNL     1      48.128   7.697  19.372  0.00  0.00    +0.000 A 
ATOM     15  N   UNL     1      47.503   7.360  20.535  0.00  0.00    +0.000 NA
ATOM     16  C   UNL     1      47.235   6.101  20.643  0.00  0.00    +0.000 A 
ATOM     17  N   UNL     1      47.541   5.152  19.703  0.00  0.00    +0.000 N 
ATOM     18  C   UNL     1      48.250   5.428  18.556  0.00  0.00    +0.000 A 
ATOM     19  O   UNL     1      48.676   4.520  17.850  0.00  0.00    +0.000 OA
ATOM     20  C   UNL     1      48.507   6.843  18.354  0.00  0.00    +0.000 A 
ATOM     21  H   UNL     1      47.359   4.173  19.877  0.00  0.00    +0.000 HD
ENDBRANCH  10  11
ENDBRANCH   8  10
ENDBRANCH   7   8
ENDBRANCH   1   7
BRANCH   4  22
ATOM     22  C   UNL     1      43.888   5.030  10.795  0.00  0.00    +0.000 C 
BRANCH  22  23
ATOM     23  N   UNL     1      44.232   4.049   9.789  0.00  0.00    +0.000 N 
ATOM     24  C   UNL     1      45.199   4.313   8.844  0.00  0.00    +0.000 C 
ATOM     25  O   UNL     1      45.807   5.378   8.801  0.00  0.00    +0.000 OA
ATOM     26  H   UNL     1      43.921   3.097   9.928  0.00  0.00    +0.000 HD
BRANCH  24  27
ATOM     27  C   UNL     1      45.434   3.170   7.845  0.00  0.00    +0.000 C 
ATOM     28  C   UNL     1      46.316   3.645   6.677  0.00  0.00    +0.000 C 
ATOM     29  C   UNL     1      46.698   2.508   5.725  0.00  0.00    +0.000 C 
ATOM     30  C   UNL     1      47.344   1.333   6.454  0.00  0.00    +0.000 C 
ATOM     31  C   UNL     1      46.449   0.835   7.586  0.00  0.00    +0.000 C 
ATOM     32  C   UNL     1      46.050   1.950   8.553  0.00  0.00    +0.000 C 
BRANCH  30  33
ATOM     33  O   UNL     1      48.625   1.712   6.953  0.00  0.00    +0.000 OA
ATOM     34  H   UNL     1      48.761   1.307   7.825  0.00  0.00    +0.000 HD
ENDBRANCH  30  33
ENDBRANCH  24  27
ENDBRANCH  22  23
ENDBRANCH   4  22
TORSDOF 8
ENDMDL
MODEL 4
REMARK VINA RESULT:    -7.946      2.033      2.517
REMARK INTER + INTRA:         -12.304
REMARK INTER:                 -11.322
REMARK INTRA:                  -0.982
REMARK UNBOUND:                -0.874
REMARK  Name = 
REMARK  8 active torsions:
REMARK  status: ('A' for Active; 'I' for Inactive)
REMARK    1  A    between atoms: C_2  and  C_3
REMARK    2  A    between atoms: C_2  and  C_22
REMARK    3  A    between atoms: C_3  and  O_4
REMARK    4  A    between atoms: O_4  and  C_5
REMARK    5  A    between atoms: C_8  and  C_9
REMARK    6  A    between atoms: C_9  and  N_10
REMARK    7  A    between atoms: C_11  and  C_13
REMARK    8  A    between atoms: C_16  and  O_17
REMARK                            x       y       z     vdW  Elec       q    Type
REMARK                         _______ _______ _______ _____ _____    ______ ____
ROOT
ATOM      1  C   UNL     1      47.269   5.015  14.090  0.00  0.00    +0.000 A 
ATOM      2  C   UNL     1      46.319   4.133  13.572  0.00  0.00    +0.000 A 
ATOM      3  C   UNL     1      45.658   4.436  12.372  0.00  0.00    +0.000 A 
ATOM      4  C   UNL     1      45.940   5.624  11.685  0.00  0.00    +0.000 A 
ATOM      5  C   UNL     1      46.844   6.529  12.254  0.00  0.00    +0.000 A 
ATOM      6  C   UNL     1      47.494   6.227  13.451  0.00  0.00    +0.000 A 
ENDROOT
BRANCH   1   7
ATOM      7  O   UNL     1      47.931   4.611  15.222  0.00  0.00    +0.000 OA
BRANCH   7   8
ATOM      8  C   UNL     1      47.108   3.954  16.188  0.00  0.00    +0.000 C 
BRANCH   8  10
ATOM      9  O   UNL     1      47.997   2.796  18.110  0.00  0.00    +0.000 OA
ATOM     10  C   UNL     1      47.751   3.874  17.570  0.00  0.00    +0.000 C 
BRANCH  10  11
ATOM     11  C   UNL     1      48.042   5.144  18.258  0.00  0.00    +0.000 A 
ATOM     12  C   UNL     1      47.080   5.889  18.922  0.00  0.00    +0.000 A 
ATOM     13  S   UNL     1      47.716   7.279  19.687  0.00  0.00    +0.000 S 
ATOM     14  C   UNL     1      49.289   6.931  19.139  0.00  0.00    +0.000 A 
ATOM     15  N   UNL     1      50.335   7.747  19.447  0.00  0.00    +0.000 NA
ATOM     16  C   UNL     1      51.468   7.355  18.969  0.00  0.00    +0.000 A 
ATOM     17  N   UNL     1      51.650   6.230  18.208  0.00  0.00    +0.000 N 
ATOM     18  C   UNL     1      50.612   5.424  17.795  0.00  0.00    +0.000 A 
ATOM     19  O   UNL     1      50.795   4.552  16.951  0.00  0.00    +0.000 OA
ATOM     20  C   UNL     1      49.328   5.783  18.370  0.00  0.00    +0.000 A 
ATOM     21  H   UNL     1      52.554   6.012  17.812  0.00  0.00    +0.000 HD
ENDBRANCH  10  11
ENDBRANCH   8  10
ENDBRANCH   7   8
ENDBRANCH   1   7
BRANCH   4  22
ATOM     22  C   UNL     1      45.294   5.961  10.365  0.00  0.00    +0.000 C 
BRANCH  22  23
ATOM     23  N   UNL     1      45.581   4.965   9.356  0.00  0.00    +0.000 N 
ATOM     24  C   UNL     1      44.701   3.934   9.107  0.00  0.00    +0.000 C 
ATOM     25  O   UNL     1      43.646   3.805   9.719  0.00  0.00    +0.000 OA
ATOM     26  H   UNL     1      46.316   5.162   8.691  0.00  0.00    +0.000 HD
BRANCH  24  27
ATOM     27  C   UNL     1      45.164   2.959   8.014  0.00  0.00    +0.000 C 
ATOM     28  C   UNL     1      46.001   3.695   6.952  0.00  0.00    +0.000 C 
ATOM     29  C   UNL     1      46.606   2.744   5.916  0.00  0.00    +0.000 C 
ATOM     30  C   UNL     1      47.410   1.617   6.561  0.00  0.00    +0.000 C 
ATOM     31  C   UNL     1      46.565   0.861   7.583  0.00  0.00    +0.000 C 
ATOM     32  C   UNL     1      45.946   1.786   8.632  0.00  0.00    +0.000 C 
BRANCH  30  33
ATOM     33  O   UNL     1      48.588   2.142   7.169  0.00  0.00    +0.000 OA
ATOM     34  H   UNL     1      49.356   1.930   6.613  0.00  0.00    +0.000 HD
ENDBRANCH  30  33
ENDBRANCH  24  27
ENDBRANCH  22  23
ENDBRANCH   4  22
TORSDOF 8
ENDMDL
MODEL 5
REMARK VINA RESULT:    -7.880      2.239      2.774
REMARK INTER + INTRA:         -12.208
REMARK INTER:                 -11.346
REMARK INTRA:                  -0.863
REMARK UNBOUND:                -0.874
REMARK  Name = 
REMARK  8 active torsions:
REMARK  status: ('A' for Active; 'I' for Inactive)
REMARK    1  A    between atoms: C_2  and  C_3
REMARK    2  A    between atoms: C_2  and  C_22
REMARK    3  A    between atoms: C_3  and  O_4
REMARK    4  A    between atoms: O_4  and  C_5
REMARK    5  A    between atoms: C_8  and  C_9
REMARK    6  A    between atoms: C_9  and  N_10
REMARK    7  A    between atoms: C_11  and  C_13
REMARK    8  A    between atoms: C_16  and  O_17
REMARK                            x       y       z     vdW  Elec       q    Type
REMARK                         _______ _______ _______ _____ _____    ______ ____
ROOT
ATOM      1  C   UNL     1      47.089   5.805  13.334  0.00  0.00    +0.000 A 
ATOM      2  C   UNL     1      47.158   6.434  12.090  0.00  0.00    +0.000 A 
ATOM      3  C   UNL     1      46.185   6.172  11.113  0.00  0.00    +0.000 A 
ATOM      4  C   UNL     1      45.139   5.278  11.374  0.00  0.00    +0.000 A 
ATOM      5  C   UNL     1      45.122   4.604  12.601  0.00  0.00    +0.000 A 
ATOM      6  C   UNL     1      46.096   4.862  13.567  0.00  0.00    +0.000 A 
ENDROOT
BRANCH   1   7
ATOM      7  O   UNL     1      48.028   6.174  14.264  0.00  0.00    +0.000 OA
BRANCH   7   8
ATOM      8  C   UNL     1      48.208   7.587  14.395  0.00  0.00    +0.000 C 
BRANCH   8  10
ATOM      9  O   UNL     1      48.482   8.811  16.457  0.00  0.00    +0.000 OA
ATOM     10  C   UNL     1      48.943   7.981  15.674  0.00  0.00    +0.000 C 
BRANCH  10  11
ATOM     11  C   UNL     1      50.250   7.352  15.928  0.00  0.00    +0.000 A 
ATOM     12  C   UNL     1      51.440   7.829  15.401  0.00  0.00    +0.000 A 
ATOM     13  S   UNL     1      52.807   6.943  15.921  0.00  0.00    +0.000 S 
ATOM     14  C   UNL     1      51.844   5.891  16.848  0.00  0.00    +0.000 A 
ATOM     15  N   UNL     1      52.404   4.875  17.561  0.00  0.00    +0.000 NA
ATOM     16  C   UNL     1      51.553   4.162  18.221  0.00  0.00    +0.000 A 
ATOM     17  N   UNL     1      50.198   4.368  18.227  0.00  0.00    +0.000 N 
ATOM     18  C   UNL     1      49.577   5.322  17.453  0.00  0.00    +0.000 A 
ATOM     19  O   UNL     1      48.356   5.334  17.335  0.00  0.00    +0.000 OA
ATOM     20  C   UNL     1      50.500   6.197  16.752  0.00  0.00    +0.000 A 
ATOM     21  H   UNL     1      49.580   3.735  18.717  0.00  0.00    +0.000 HD
ENDBRANCH  10  11
ENDBRANCH   8  10
ENDBRANCH   7   8
ENDBRANCH   1   7
BRANCH   4  22
ATOM     22  C   UNL     1      44.043   5.011  10.374  0.00  0.00    +0.000 C 
BRANCH  22  23
ATOM     23  N   UNL     1      44.549   4.373   9.178  0.00  0.00    +0.000 N 
ATOM     24  C   UNL     1      44.929   3.049   9.188  0.00  0.00    +0.000 C 
ATOM     25  O   UNL     1      44.865   2.352  10.195  0.00  0.00    +0.000 OA
ATOM     26  H   UNL     1      44.407   4.842   8.293  0.00  0.00    +0.000 HD
BRANCH  24  27
ATOM     27  C   UNL     1      45.453   2.532   7.840  0.00  0.00    +0.000 C 
ATOM     28  C   UNL     1      46.083   3.679   7.029  0.00  0.00    +0.000 C 
ATOM     29  C   UNL     1      46.748   3.193   5.739  0.00  0.00    +0.000 C 
ATOM     30  C   UNL     1      47.764   2.081   5.992  0.00  0.00    +0.000 C 
ATOM     31  C   UNL     1      47.127   0.926   6.759  0.00  0.00    +0.000 C 
ATOM     32  C   UNL     1      46.453   1.381   8.054  0.00  0.00    +0.000 C 
BRANCH  30  33
ATOM     33  O   UNL     1      48.889   2.598   6.699  0.00  0.00    +0.000 OA
ATOM     34  H   UNL     1      48.869   3.568   6.667  0.00  0.00    +0.000 HD
ENDBRANCH  30  33
ENDBRANCH  24  27
ENDBRANCH  22  23
ENDBRANCH   4  22
TORSDOF 8
ENDMDL
MODEL 6
REMARK VINA RESULT:    -7.160      3.456      4.880
REMARK INTER + INTRA:         -11.173
REMARK INTER:                  -9.573
REMARK INTRA:                  -1.600
REMARK UNBOUND:                -0.874
REMARK  Name = 
REMARK  8 active torsions:
REMARK  status: ('A' for Active; 'I' for Inactive)
REMARK    1  A    between atoms: C_2  and  C_3
REMARK    2  A    between atoms: C_2  and  C_22
REMARK    3  A    between atoms: C_3  and  O_4
REMARK    4  A    between atoms: O_4  and  C_5
REMARK    5  A    between atoms: C_8  and  C_9
REMARK    6  A    between atoms: C_9  and  N_10
REMARK    7  A    between atoms: C_11  and  C_13
REMARK    8  A    between atoms: C_16  and  O_17
REMARK                            x       y       z     vdW  Elec       q    Type
REMARK                         _______ _______ _______ _____ _____    ______ ____
ROOT
ATOM      1  C   UNL     1      49.142   7.882  16.453  0.00  0.00    +0.000 A 
ATOM      2  C   UNL     1      48.279   8.873  15.984  0.00  0.00    +0.000 A 
ATOM      3  C   UNL     1      47.910   8.905  14.631  0.00  0.00    +0.000 A 
ATOM      4  C   UNL     1      48.406   7.946  13.737  0.00  0.00    +0.000 A 
ATOM      5  C   UNL     1      49.324   7.001  14.209  0.00  0.00    +0.000 A 
ATOM      6  C   UNL     1      49.693   6.977  15.555  0.00  0.00    +0.000 A 
ENDROOT
BRANCH   1   7
ATOM      7  O   UNL     1      49.389   7.868  17.802  0.00  0.00    +0.000 OA
BRANCH   7   8
ATOM      8  C   UNL     1      48.224   7.718  18.617  0.00  0.00    +0.000 C 
BRANCH   8  10
ATOM      9  O   UNL     1      48.059   6.276  20.546  0.00  0.00    +0.000 OA
ATOM     10  C   UNL     1      48.155   6.365  19.322  0.00  0.00    +0.000 C 
BRANCH  10  11
ATOM     11  C   UNL     1      48.241   5.158  18.484  0.00  0.00    +0.000 A 
ATOM     12  C   UNL     1      47.179   4.668  17.740  0.00  0.00    +0.000 A 
ATOM     13  S   UNL     1      47.587   3.295  16.808  0.00  0.00    +0.000 S 
ATOM     14  C   UNL     1      49.187   3.307  17.386  0.00  0.00    +0.000 A 
ATOM     15  N   UNL     1      50.088   2.371  16.975  0.00  0.00    +0.000 NA
ATOM     16  C   UNL     1      51.263   2.508  17.491  0.00  0.00    +0.000 A 
ATOM     17  N   UNL     1      51.618   3.487  18.383  0.00  0.00    +0.000 N 
ATOM     18  C   UNL     1      50.722   4.399  18.896  0.00  0.00    +0.000 A 
ATOM     19  O   UNL     1      51.035   5.120  19.838  0.00  0.00    +0.000 OA
ATOM     20  C   UNL     1      49.406   4.331  18.288  0.00  0.00    +0.000 A 
ATOM     21  H   UNL     1      52.539   3.502  18.797  0.00  0.00    +0.000 HD
ENDBRANCH  10  11
ENDBRANCH   8  10
ENDBRANCH   7   8
ENDBRANCH   1   7
BRANCH   4  22
ATOM     22  C   UNL     1      47.992   7.910  12.288  0.00  0.00    +0.000 C 
BRANCH  22  23
ATOM     23  N   UNL     1      46.950   6.934  12.051  0.00  0.00    +0.000 N 
ATOM     24  C   UNL     1      45.641   7.324  11.874  0.00  0.00    +0.000 C 
ATOM     25  O   UNL     1      45.291   8.499  11.913  0.00  0.00    +0.000 OA
ATOM     26  H   UNL     1      47.228   5.997  11.793  0.00  0.00    +0.000 HD
BRANCH  24  27
ATOM     27  C   UNL     1      44.662   6.163  11.645  0.00  0.00    +0.000 C 
ATOM     28  C   UNL     1      45.286   5.105  10.718  0.00  0.00    +0.000 C 
ATOM     29  C   UNL     1      44.408   3.859  10.570  0.00  0.00    +0.000 C 
ATOM     30  C   UNL     1      44.033   3.249  11.918  0.00  0.00    +0.000 C 
ATOM     31  C   UNL     1      43.375   4.289  12.822  0.00  0.00    +0.000 C 
ATOM     32  C   UNL     1      44.229   5.546  12.988  0.00  0.00    +0.000 C 
BRANCH  30  33
ATOM     33  O   UNL     1      45.188   2.695  12.543  0.00  0.00    +0.000 OA
ATOM     34  H   UNL     1      45.904   2.630  11.891  0.00  0.00    +0.000 HD
ENDBRANCH  30  33
ENDBRANCH  24  27
ENDBRANCH  22  23
ENDBRANCH   4  22
TORSDOF 8
ENDMDL
MODEL 7
REMARK VINA RESULT:    -7.149      3.825      5.545
REMARK INTER + INTRA:         -11.157
REMARK INTER:                  -9.532
REMARK INTRA:                  -1.625
REMARK UNBOUND:                -0.874
REMARK  Name = 
REMARK  8 active torsions:
REMARK  status: ('A' for Active; 'I' for Inactive)
REMARK    1  A    between atoms: C_2  and  C_3
REMARK    2  A    between atoms: C_2  and  C_22
REMARK    3  A    between atoms: C_3  and  O_4
REMARK    4  A    between atoms: O_4  and  C_5
REMARK    5  A    between atoms: C_8  and  C_9
REMARK    6  A    between atoms: C_9  and  N_10
REMARK    7  A    between atoms: C_11  and  C_13
REMARK    8  A    between atoms: C_16  and  O_17
REMARK                            x       y       z     vdW  Elec       q    Type
REMARK                         _______ _______ _______ _____ _____    ______ ____
ROOT
ATOM      1  C   UNL     1      49.911   7.604  17.138  0.00  0.00    +0.000 A 
ATOM      2  C   UNL     1      49.199   8.803  17.195  0.00  0.00    +0.000 A 
ATOM      3  C   UNL     1      48.409   9.207  16.107  0.00  0.00    +0.000 A 
ATOM      4  C   UNL     1      48.330   8.414  14.955  0.00  0.00    +0.000 A 
ATOM      5  C   UNL     1      49.104   7.249  14.886  0.00  0.00    +0.000 A 
ATOM      6  C   UNL     1      49.893   6.856  15.969  0.00  0.00    +0.000 A 
ENDROOT
BRANCH   1   7
ATOM      7  O   UNL     1      50.593   7.239  18.271  0.00  0.00    +0.000 OA
BRANCH   7   8
ATOM      8  C   UNL     1      49.762   6.981  19.406  0.00  0.00    +0.000 C 
BRANCH   8  10
ATOM      9  O   UNL     1      49.664   5.259  21.094  0.00  0.00    +0.000 OA
ATOM     10  C   UNL     1      49.873   5.546  19.916  0.00  0.00    +0.000 C 
BRANCH  10  11
ATOM     11  C   UNL     1      50.273   4.511  18.949  0.00  0.00    +0.000 A 
ATOM     12  C   UNL     1      51.571   4.039  18.829  0.00  0.00    +0.000 A 
ATOM     13  S   UNL     1      51.728   2.789  17.674  0.00  0.00    +0.000 S 
ATOM     14  C   UNL     1      50.072   2.856  17.292  0.00  0.00    +0.000 A 
ATOM     15  N   UNL     1      49.536   2.027  16.352  0.00  0.00    +0.000 NA
ATOM     16  C   UNL     1      48.267   2.186  16.172  0.00  0.00    +0.000 A 
ATOM     17  N   UNL     1      47.490   3.097  16.838  0.00  0.00    +0.000 N 
ATOM     18  C   UNL     1      48.000   4.015  17.729  0.00  0.00    +0.000 A 
ATOM     19  O   UNL     1      47.306   4.938  18.142  0.00  0.00    +0.000 OA
ATOM     20  C   UNL     1      49.410   3.826  18.020  0.00  0.00    +0.000 A 
ATOM     21  H   UNL     1      46.513   3.213  16.606  0.00  0.00    +0.000 HD
ENDBRANCH  10  11
ENDBRANCH   8  10
ENDBRANCH   7   8
ENDBRANCH   1   7
BRANCH   4  22
ATOM     22  C   UNL     1      47.450   8.782  13.787  0.00  0.00    +0.000 C 
BRANCH  22  23
ATOM     23  N   UNL     1      46.596   7.683  13.390  0.00  0.00    +0.000 N 
ATOM     24  C   UNL     1      46.831   6.989  12.223  0.00  0.00    +0.000 C 
ATOM     25  O   UNL     1      47.757   7.263  11.467  0.00  0.00    +0.000 OA
ATOM     26  H   UNL     1      45.973   7.291  14.083  0.00  0.00    +0.000 HD
BRANCH  24  27
ATOM     27  C   UNL     1      45.825   5.862  11.946  0.00  0.00    +0.000 C 
ATOM     28  C   UNL     1      45.534   5.069  13.232  0.00  0.00    +0.000 C 
ATOM     29  C   UNL     1      44.431   4.024  13.043  0.00  0.00    +0.000 C 
ATOM     30  C   UNL     1      43.150   4.627  12.472  0.00  0.00    +0.000 C 
ATOM     31  C   UNL     1      43.433   5.377  11.173  0.00  0.00    +0.000 C 
ATOM     32  C   UNL     1      44.533   6.429  11.330  0.00  0.00    +0.000 C 
BRANCH  30  33
ATOM     33  O   UNL     1      42.545   5.490  13.432  0.00  0.00    +0.000 OA
ATOM     34  H   UNL     1      41.583   5.359  13.418  0.00  0.00    +0.000 HD
ENDBRANCH  30  33
ENDBRANCH  24  27
ENDBRANCH  22  23
ENDBRANCH   4  22
TORSDOF 8
ENDMDL
MODEL 8
REMARK VINA RESULT:    -7.136      2.889      9.413
REMARK INTER + INTRA:         -11.139
REMARK INTER:                  -9.904
REMARK INTRA:                  -1.235
REMARK UNBOUND:                -0.874
REMARK  Name = 
REMARK  8 active torsions:
REMARK  status: ('A' for Active; 'I' for Inactive)
REMARK    1  A    between atoms: C_2  and  C_3
REMARK    2  A    between atoms: C_2  and  C_22
REMARK    3  A    between atoms: C_3  and  O_4
REMARK    4  A    between atoms: O_4  and  C_5
REMARK    5  A    between atoms: C_8  and  C_9
REMARK    6  A    between atoms: C_9  and  N_10
REMARK    7  A    between atoms: C_11  and  C_13
REMARK    8  A    between atoms: C_16  and  O_17
REMARK                            x       y       z     vdW  Elec       q    Type
REMARK                         _______ _______ _______ _____ _____    ______ ____
ROOT
ATOM      1  C   UNL     1      47.217   5.491  13.329  0.00  0.00    +0.000 A 
ATOM      2  C   UNL     1      46.938   4.124  13.308  0.00  0.00    +0.000 A 
ATOM      3  C   UNL     1      47.127   3.347  14.462  0.00  0.00    +0.000 A 
ATOM      4  C   UNL     1      47.600   3.935  15.643  0.00  0.00    +0.000 A 
ATOM      5  C   UNL     1      47.940   5.292  15.629  0.00  0.00    +0.000 A 
ATOM      6  C   UNL     1      47.757   6.058  14.476  0.00  0.00    +0.000 A 
ENDROOT
BRANCH   1   7
ATOM      7  O   UNL     1      46.930   6.196  12.188  0.00  0.00    +0.000 OA
BRANCH   7   8
ATOM      8  C   UNL     1      45.849   7.122  12.321  0.00  0.00    +0.000 C 
BRANCH   8  10
ATOM      9  O   UNL     1      43.867   7.569  11.018  0.00  0.00    +0.000 OA
ATOM     10  C   UNL     1      44.617   6.727  11.510  0.00  0.00    +0.000 C 
BRANCH  10  11
ATOM     11  C   UNL     1      44.335   5.289  11.362  0.00  0.00    +0.000 A 
ATOM     12  C   UNL     1      43.606   4.556  12.286  0.00  0.00    +0.000 A 
ATOM     13  S   UNL     1      43.375   2.928  11.819  0.00  0.00    +0.000 S 
ATOM     14  C   UNL     1      44.256   3.155  10.382  0.00  0.00    +0.000 A 
ATOM     15  N   UNL     1      44.443   2.128   9.505  0.00  0.00    +0.000 NA
ATOM     16  C   UNL     1      45.124   2.448   8.456  0.00  0.00    +0.000 A 
ATOM     17  N   UNL     1      45.640   3.694   8.208  0.00  0.00    +0.000 N 
ATOM     18  C   UNL     1      45.556   4.737   9.103  0.00  0.00    +0.000 A 
ATOM     19  O   UNL     1      46.205   5.763   8.930  0.00  0.00    +0.000 OA
ATOM     20  C   UNL     1      44.734   4.446  10.264  0.00  0.00    +0.000 A 
ATOM     21  H   UNL     1      46.218   3.863   7.396  0.00  0.00    +0.000 HD
ENDBRANCH  10  11
ENDBRANCH   8  10
ENDBRANCH   7   8
ENDBRANCH   1   7
BRANCH   4  22
ATOM     22  C   UNL     1      47.763   3.149  16.920  0.00  0.00    +0.000 C 
BRANCH  22  23
ATOM     23  N   UNL     1      48.998   3.476  17.599  0.00  0.00    +0.000 N 
ATOM     24  C   UNL     1      50.160   2.788  17.326  0.00  0.00    +0.000 C 
ATOM     25  O   UNL     1      50.209   1.873  16.511  0.00  0.00    +0.000 OA
ATOM     26  H   UNL     1      49.046   4.354  18.100  0.00  0.00    +0.000 HD
BRANCH  24  27
ATOM     27  C   UNL     1      51.376   3.254  18.141  0.00  0.00    +0.000 C 
ATOM     28  C   UNL     1      52.604   2.381  17.828  0.00  0.00    +0.000 C 
ATOM     29  C   UNL     1      53.878   2.891  18.506  0.00  0.00    +0.000 C 
ATOM     30  C   UNL     1      54.157   4.359  18.191  0.00  0.00    +0.000 C 
ATOM     31  C   UNL     1      52.954   5.230  18.542  0.00  0.00    +0.000 C 
ATOM     32  C   UNL     1      51.664   4.744  17.879  0.00  0.00    +0.000 C 
BRANCH  30  33
ATOM     33  O   UNL     1      54.503   4.507  16.816  0.00  0.00    +0.000 OA
ATOM     34  H   UNL     1      54.645   3.629  16.426  0.00  0.00    +0.000 HD
ENDBRANCH  30  33
ENDBRANCH  24  27
ENDBRANCH  22  23
ENDBRANCH   4  22
TORSDOF 8
ENDMDL
MODEL 9
REMARK VINA RESULT:    -7.002      4.095     10.102
REMARK INTER + INTRA:         -10.946
REMARK INTER:                  -9.990
REMARK INTRA:                  -0.955
REMARK UNBOUND:                -0.874
REMARK  Name = 
REMARK  8 active torsions:
REMARK  status: ('A' for Active; 'I' for Inactive)
REMARK    1  A    between atoms: C_2  and  C_3
REMARK    2  A    between atoms: C_2  and  C_22
REMARK    3  A    between atoms: C_3  and  O_4
REMARK    4  A    between atoms: O_4  and  C_5
REMARK    5  A    between atoms: C_8  and  C_9
REMARK    6  A    between atoms: C_9  and  N_10
REMARK    7  A    between atoms: C_11  and  C_13
REMARK    8  A    between atoms: C_16  and  O_17
REMARK                            x       y       z     vdW  Elec       q    Type
REMARK                         _______ _______ _______ _____ _____    ______ ____
ROOT
ATOM      1  C   UNL     1      48.654   3.218  16.880  0.00  0.00    +0.000 A 
ATOM      2  C   UNL     1      49.093   4.438  17.397  0.00  0.00    +0.000 A 
ATOM      3  C   UNL     1      50.418   4.582  17.836  0.00  0.00    +0.000 A 
ATOM      4  C   UNL     1      51.311   3.504  17.763  0.00  0.00    +0.000 A 
ATOM      5  C   UNL     1      50.837   2.269  17.307  0.00  0.00    +0.000 A 
ATOM      6  C   UNL     1      49.516   2.129  16.877  0.00  0.00    +0.000 A 
ENDROOT
BRANCH   1   7
ATOM      7  O   UNL     1      47.371   3.180  16.396  0.00  0.00    +0.000 OA
BRANCH   7   8
ATOM      8  C   UNL     1      46.956   4.372  15.723  0.00  0.00    +0.000 C 
BRANCH   8  10
ATOM      9  O   UNL     1      47.148   3.153  13.649  0.00  0.00    +0.000 OA
ATOM     10  C   UNL     1      46.793   4.185  14.217  0.00  0.00    +0.000 C 
BRANCH  10  11
ATOM     11  C   UNL     1      46.219   5.305  13.452  0.00  0.00    +0.000 A 
ATOM     12  C   UNL     1      46.879   6.507  13.250  0.00  0.00    +0.000 A 
ATOM     13  S   UNL     1      46.003   7.596  12.266  0.00  0.00    +0.000 S 
ATOM     14  C   UNL     1      44.714   6.499  12.099  0.00  0.00    +0.000 A 
ATOM     15  N   UNL     1      43.613   6.819  11.362  0.00  0.00    +0.000 NA
ATOM     16  C   UNL     1      42.720   5.887  11.319  0.00  0.00    +0.000 A 
ATOM     17  N   UNL     1      42.822   4.673  11.947  0.00  0.00    +0.000 N 
ATOM     18  C   UNL     1      43.872   4.340  12.774  0.00  0.00    +0.000 A 
ATOM     19  O   UNL     1      43.821   3.332  13.472  0.00  0.00    +0.000 OA
ATOM     20  C   UNL     1      44.937   5.326  12.794  0.00  0.00    +0.000 A 
ATOM     21  H   UNL     1      42.059   4.011  11.924  0.00  0.00    +0.000 HD
ENDBRANCH  10  11
ENDBRANCH   8  10
ENDBRANCH   7   8
ENDBRANCH   1   7
BRANCH   4  22
ATOM     22  C   UNL     1      52.757   3.632  18.171  0.00  0.00    +0.000 C 
BRANCH  22  23
ATOM     23  N   UNL     1      53.436   2.355  18.150  0.00  0.00    +0.000 N 
ATOM     24  C   UNL     1      54.627   2.196  17.475  0.00  0.00    +0.000 C 
ATOM     25  O   UNL     1      55.165   3.112  16.862  0.00  0.00    +0.000 OA
ATOM     26  H   UNL     1      53.146   1.652  18.817  0.00  0.00    +0.000 HD
BRANCH  24  27
ATOM     27  C   UNL     1      55.208   0.776  17.544  0.00  0.00    +0.000 C 
ATOM     28  C   UNL     1      55.136   0.231  18.982  0.00  0.00    +0.000 C 
ATOM     29  C   UNL     1      55.571  -1.233  19.080  0.00  0.00    +0.000 C 
ATOM     30  C   UNL     1      54.802  -2.134  18.116  0.00  0.00    +0.000 C 
ATOM     31  C   UNL     1      54.908  -1.617  16.684  0.00  0.00    +0.000 C 
ATOM     32  C   UNL     1      54.481  -0.154  16.555  0.00  0.00    +0.000 C 
BRANCH  30  33
ATOM     33  O   UNL     1      53.437  -2.228  18.519  0.00  0.00    +0.000 OA
ATOM     34  H   UNL     1      53.397  -2.465  19.460  0.00  0.00    +0.000 HD
ENDBRANCH  30  33
ENDBRANCH  24  27
ENDBRANCH  22  23
ENDBRANCH   4  22
TORSDOF 8
ENDMDL
