MODEL 1
REMARK VINA RESULT:    -8.467      0.000      0.000
REMARK INTER + INTRA:         -13.835
REMARK INTER:                 -12.426
REMARK INTRA:                  -1.409
REMARK UNBOUND:                -1.409
REMARK  Name = 
REMARK  9 active torsions:
REMARK  status: ('A' for Active; 'I' for Inactive)
REMARK    1  A    between atoms: C_1  and  O_2
REMARK    2  A    between atoms: O_2  and  C_3
REMARK    3  A    between atoms: C_10  and  C_11
REMARK    4  A    between atoms: N_13  and  C_14
REMARK    5  A    between atoms: C_14  and  C_15
REMARK    6  A    between atoms: C_18  and  N_19
REMARK    7  A    between atoms: N_19  and  C_20
REMARK    8  A    between atoms: C_20  and  C_21
REMARK    9  A    between atoms: C_21  and  C_22
REMARK                            x       y       z     vdW  Elec       q    Type
REMARK                         _______ _______ _______ _____ _____    ______ ____
ROOT
ATOM      1  C   UNL     1      47.105   8.286  13.389  0.00  0.00    +0.000 C 
ENDROOT
BRANCH   1   2
ATOM      2  C   UNL     1      46.254   7.472  12.450  0.00  0.00    +0.000 A 
ATOM      3  C   UNL     1      46.814   6.435  11.696  0.00  0.00    +0.000 A 
ATOM      4  C   UNL     1      46.007   5.629  10.886  0.00  0.00    +0.000 A 
ATOM      5  C   UNL     1      44.622   5.818  10.832  0.00  0.00    +0.000 A 
ATOM      6  C   UNL     1      44.088   6.931  11.490  0.00  0.00    +0.000 A 
ATOM      7  C   UNL     1      44.889   7.744  12.300  0.00  0.00    +0.000 A 
BRANCH   5   8
ATOM      8  N   UNL     1      43.746   4.991  10.120  0.00  0.00    +0.000 N 
ATOM      9  H   UNL     1      43.232   5.537   9.429  0.00  0.00    +0.000 HD
BRANCH   8  10
ATOM     10  C   UNL     1      44.278   3.745   9.557  0.00  0.00    +0.000 C 
BRANCH  10  11
ATOM     11  C   UNL     1      44.741   3.942   8.104  0.00  0.00    +0.000 C 
BRANCH  11  12
ATOM     12  C   UNL     1      45.847   3.000   7.712  0.00  0.00    +0.000 A 
ATOM     13  C   UNL     1      45.856   1.680   8.171  0.00  0.00    +0.000 A 
ATOM     14  C   UNL     1      46.893   0.848   7.776  0.00  0.00    +0.000 A 
ATOM     15  N   UNL     1      47.904   1.240   6.974  0.00  0.00    +0.000 NA
ATOM     16  C   UNL     1      47.875   2.518   6.542  0.00  0.00    +0.000 A 
ATOM     17  C   UNL     1      46.884   3.426   6.882  0.00  0.00    +0.000 A 
ENDBRANCH  11  12
ENDBRANCH  10  11
ENDBRANCH   8  10
ENDBRANCH   5   8
ENDBRANCH   1   2
BRANCH   1  20
ATOM     18  C   UNL     1      48.789   7.016  14.644  0.00  0.00    +0.000 C 
ATOM     19  O   UNL     1      49.636   7.218  13.776  0.00  0.00    +0.000 OA
ATOM     20  N   UNL     1      47.520   7.510  14.527  0.00  0.00    +0.000 N 
ATOM     21  H   UNL     1      46.807   7.236  15.188  0.00  0.00    +0.000 HD
BRANCH  18  29
ATOM     22  C   UNL     1      47.286   4.336  16.188  0.00  0.00    +0.000 A 
ATOM     23  N   UNL     1      46.869   3.363  17.020  0.00  0.00    +0.000 NA
ATOM     24  C   UNL     1      47.567   3.152  18.138  0.00  0.00    +0.000 A 
ATOM     25  N   UNL     1      48.659   3.799  18.537  0.00  0.00    +0.000 NA
ATOM     26  C   UNL     1      49.038   4.764  17.683  0.00  0.00    +0.000 A 
ATOM     27  S   UNL     1      50.421   5.689  18.023  0.00  0.00    +0.000 S 
ATOM     28  C   UNL     1      50.214   6.609  16.609  0.00  0.00    +0.000 A 
ATOM     29  C   UNL     1      49.102   6.242  15.858  0.00  0.00    +0.000 A 
ATOM     30  C   UNL     1      48.416   5.117  16.489  0.00  0.00    +0.000 A 
BRANCH  22  32
ATOM     31  C   UNL     1      47.088   3.607  13.966  0.00  0.00    +0.000 C 
ATOM     32  O   UNL     1      46.630   4.492  14.986  0.00  0.00    +0.000 OA
ENDBRANCH  22  32
ENDBRANCH  18  29
ENDBRANCH   1  20
TORSDOF 8
ENDMDL
MODEL 2
REMARK VINA RESULT:    -7.850      1.640      1.993
REMARK INTER + INTRA:         -12.930
REMARK INTER:                 -11.857
REMARK INTRA:                  -1.073
REMARK UNBOUND:                -1.409
REMARK  Name = 
REMARK  9 active torsions:
REMARK  status: ('A' for Active; 'I' for Inactive)
REMARK    1  A    between atoms: C_1  and  O_2
REMARK    2  A    between atoms: O_2  and  C_3
REMARK    3  A    between atoms: C_10  and  C_11
REMARK    4  A    between atoms: N_13  and  C_14
REMARK    5  A    between atoms: C_14  and  C_15
REMARK    6  A    between atoms: C_18  and  N_19
REMARK    7  A    between atoms: N_19  and  C_20
REMARK    8  A    between atoms: C_20  and  C_21
REMARK    9  A    between atoms: C_21  and  C_22
REMARK                            x       y       z     vdW  Elec       q    Type
REMARK                         _______ _______ _______ _____ _____    ______ ____
ROOT
ATOM      1  C   UNL     1      47.956   7.224  13.336  0.00  0.00    +0.000 C 
ENDROOT
BRANCH   1   2
ATOM      2  C   UNL     1      46.809   6.429  12.771  0.00  0.00    +0.000 A 
ATOM      3  C   UNL     1      45.936   7.000  11.838  0.00  0.00    +0.000 A 
ATOM      4  C   UNL     1      44.920   6.235  11.254  0.00  0.00    +0.000 A 
ATOM      5  C   UNL     1      44.771   4.878  11.563  0.00  0.00    +0.000 A 
ATOM      6  C   UNL     1      45.565   4.350  12.586  0.00  0.00    +0.000 A 
ATOM      7  C   UNL     1      46.582   5.109  13.176  0.00  0.00    +0.000 A 
BRANCH   5   8
ATOM      8  N   UNL     1      43.841   4.033  10.948  0.00  0.00    +0.000 N 
ATOM      9  H   UNL     1      43.094   4.582  10.525  0.00  0.00    +0.000 HD
BRANCH   8  10
ATOM     10  C   UNL     1      44.346   2.995  10.043  0.00  0.00    +0.000 C 
BRANCH  10  11
ATOM     11  C   UNL     1      44.746   3.589   8.682  0.00  0.00    +0.000 C 
BRANCH  11  12
ATOM     12  C   UNL     1      45.857   2.822   8.017  0.00  0.00    +0.000 A 
ATOM     13  C   UNL     1      46.007   1.449   8.234  0.00  0.00    +0.000 A 
ATOM     14  C   UNL     1      47.042   0.786   7.592  0.00  0.00    +0.000 A 
ATOM     15  N   UNL     1      47.922   1.389   6.768  0.00  0.00    +0.000 NA
ATOM     16  C   UNL     1      47.759   2.714   6.571  0.00  0.00    +0.000 A 
ATOM     17  C   UNL     1      46.758   3.466   7.168  0.00  0.00    +0.000 A 
ENDBRANCH  11  12
ENDBRANCH  10  11
ENDBRANCH   8  10
ENDBRANCH   5   8
ENDBRANCH   1   2
BRANCH   1  20
ATOM     18  C   UNL     1      48.964   6.954  15.558  0.00  0.00    +0.000 C 
ATOM     19  O   UNL     1      50.030   6.589  15.066  0.00  0.00    +0.000 OA
ATOM     20  N   UNL     1      47.896   7.286  14.772  0.00  0.00    +0.000 N 
ATOM     21  H   UNL     1      46.996   7.468  15.193  0.00  0.00    +0.000 HD
BRANCH  18  29
ATOM     22  C   UNL     1      48.895   4.647  18.107  0.00  0.00    +0.000 A 
ATOM     23  N   UNL     1      48.753   3.965  19.260  0.00  0.00    +0.000 NA
ATOM     24  C   UNL     1      48.473   4.658  20.367  0.00  0.00    +0.000 A 
ATOM     25  N   UNL     1      48.323   5.976  20.472  0.00  0.00    +0.000 NA
ATOM     26  C   UNL     1      48.467   6.616  19.301  0.00  0.00    +0.000 A 
ATOM     27  S   UNL     1      48.319   8.307  19.245  0.00  0.00    +0.000 S 
ATOM     28  C   UNL     1      48.586   8.324  17.567  0.00  0.00    +0.000 A 
ATOM     29  C   UNL     1      48.788   7.063  17.017  0.00  0.00    +0.000 A 
ATOM     30  C   UNL     1      48.744   6.044  18.063  0.00  0.00    +0.000 A 
BRANCH  22  32
ATOM     31  C   UNL     1      48.441   2.839  16.681  0.00  0.00    +0.000 C 
ATOM     32  O   UNL     1      49.282   3.950  16.982  0.00  0.00    +0.000 OA
ENDBRANCH  22  32
ENDBRANCH  18  29
ENDBRANCH   1  20
TORSDOF 8
ENDMDL
MODEL 3
REMARK VINA RESULT:    -7.681      2.479      3.207
REMARK INTER + INTRA:         -12.681
REMARK INTER:                 -11.513
REMARK INTRA:                  -1.169
REMARK UNBOUND:                -1.409
REMARK  Name = 
REMARK  9 active torsions:
REMARK  status: ('A' for Active; 'I' for Inactive)
REMARK    1  A    between atoms: C_1  and  O_2
REMARK    2  A    between atoms: O_2  and  C_3
REMARK    3  A    between atoms: C_10  and  C_11
REMARK    4  A    between atoms: N_13  and  C_14
REMARK    5  A    between atoms: C_14  and  C_15
REMARK    6  A    between atoms: C_18  and  N_19
REMARK    7  A    between atoms: N_19  and  C_20
REMARK    8  A    between atoms: C_20  and  C_21
REMARK    9  A    between atoms: C_21  and  C_22
REMARK                            x       y       z     vdW  Elec       q    Type
REMARK                         _______ _______ _______ _____ _____    ______ ____
ROOT
ATOM      1  C   UNL     1      48.395   6.315  14.048  0.00  0.00    +0.000 C 
ENDROOT
BRANCH   1   2
ATOM      2  C   UNL     1      47.199   5.899  13.233  0.00  0.00    +0.000 A 
ATOM      3  C   UNL     1      46.850   6.595  12.070  0.00  0.00    +0.000 A 
ATOM      4  C   UNL     1      45.788   6.158  11.272  0.00  0.00    +0.000 A 
ATOM      5  C   UNL     1      45.069   5.003  11.597  0.00  0.00    +0.000 A 
ATOM      6  C   UNL     1      45.342   4.386  12.823  0.00  0.00    +0.000 A 
ATOM      7  C   UNL     1      46.402   4.819  13.628  0.00  0.00    +0.000 A 
BRANCH   5   8
ATOM      8  N   UNL     1      44.059   4.457  10.797  0.00  0.00    +0.000 N 
ATOM      9  H   UNL     1      43.580   5.196  10.283  0.00  0.00    +0.000 HD
BRANCH   8  10
ATOM     10  C   UNL     1      44.402   3.318   9.936  0.00  0.00    +0.000 C 
BRANCH  10  11
ATOM     11  C   UNL     1      44.839   3.787   8.539  0.00  0.00    +0.000 C 
BRANCH  11  12
ATOM     12  C   UNL     1      45.882   2.892   7.925  0.00  0.00    +0.000 A 
ATOM     13  C   UNL     1      45.954   1.539   8.268  0.00  0.00    +0.000 A 
ATOM     14  C   UNL     1      46.928   0.755   7.669  0.00  0.00    +0.000 A 
ATOM     15  N   UNL     1      47.820   1.222   6.772  0.00  0.00    +0.000 NA
ATOM     16  C   UNL     1      47.732   2.531   6.454  0.00  0.00    +0.000 A 
ATOM     17  C   UNL     1      46.796   3.397   6.998  0.00  0.00    +0.000 A 
ENDBRANCH  11  12
ENDBRANCH  10  11
ENDBRANCH   8  10
ENDBRANCH   5   8
ENDBRANCH   1   2
BRANCH   1  20
ATOM     18  C   UNL     1      49.027   6.212  16.418  0.00  0.00    +0.000 C 
ATOM     19  O   UNL     1      50.201   5.990  16.129  0.00  0.00    +0.000 OA
ATOM     20  N   UNL     1      48.078   6.386  15.449  0.00  0.00    +0.000 N 
ATOM     21  H   UNL     1      47.102   6.449  15.703  0.00  0.00    +0.000 HD
BRANCH  18  29
ATOM     22  C   UNL     1      47.790   8.795  18.322  0.00  0.00    +0.000 A 
ATOM     23  N   UNL     1      47.367   9.626  19.293  0.00  0.00    +0.000 NA
ATOM     24  C   UNL     1      47.225   9.131  20.525  0.00  0.00    +0.000 A 
ATOM     25  N   UNL     1      47.450   7.879  20.917  0.00  0.00    +0.000 NA
ATOM     26  C   UNL     1      47.874   7.085  19.922  0.00  0.00    +0.000 A 
ATOM     27  S   UNL     1      48.201   5.449  20.235  0.00  0.00    +0.000 S 
ATOM     28  C   UNL     1      48.664   5.181  18.622  0.00  0.00    +0.000 A 
ATOM     29  C   UNL     1      48.586   6.314  17.820  0.00  0.00    +0.000 A 
ATOM     30  C   UNL     1      48.085   7.447  18.594  0.00  0.00    +0.000 A 
BRANCH  22  32
ATOM     31  C   UNL     1      49.070   9.925  16.712  0.00  0.00    +0.000 C 
ATOM     32  O   UNL     1      47.842   9.274  17.031  0.00  0.00    +0.000 OA
ENDBRANCH  22  32
ENDBRANCH  18  29
ENDBRANCH   1  20
TORSDOF 8
ENDMDL
MODEL 4
REMARK VINA RESULT:    -7.307      2.020      2.628
REMARK INTER + INTRA:         -12.133
REMARK INTER:                 -11.018
REMARK INTRA:                  -1.114
REMARK UNBOUND:                -1.409
REMARK  Name = 
REMARK  9 active torsions:
REMARK  status: ('A' for Active; 'I' for Inactive)
REMARK    1  A    between atoms: C_1  and  O_2
REMARK    2  A    between atoms: O_2  and  C_3
REMARK    3  A    between atoms: C_10  and  C_11
REMARK    4  A    between atoms: N_13  and  C_14
REMARK    5  A    between atoms: C_14  and  C_15
REMARK    6  A    between atoms: C_18  and  N_19
REMARK    7  A    between atoms: N_19  and  C_20
REMARK    8  A    between atoms: C_20  and  C_21
REMARK    9  A    between atoms: C_21  and  C_22
REMARK                            x       y       z     vdW  Elec       q    Type
REMARK                         _______ _______ _______ _____ _____    ______ ____
ROOT
ATOM      1  C   UNL     1      48.095   7.135  14.993  0.00  0.00    +0.000 C 
ENDROOT
BRANCH   1   2
ATOM      2  C   UNL     1      47.279   6.426  13.944  0.00  0.00    +0.000 A 
ATOM      3  C   UNL     1      46.950   7.065  12.744  0.00  0.00    +0.000 A 
ATOM      4  C   UNL     1      46.262   6.377  11.738  0.00  0.00    +0.000 A 
ATOM      5  C   UNL     1      45.914   5.030  11.894  0.00  0.00    +0.000 A 
ATOM      6  C   UNL     1      46.136   4.438  13.142  0.00  0.00    +0.000 A 
ATOM      7  C   UNL     1      46.822   5.120  14.153  0.00  0.00    +0.000 A 
BRANCH   5   8
ATOM      8  N   UNL     1      45.312   4.257  10.895  0.00  0.00    +0.000 N 
ATOM      9  H   UNL     1      44.380   3.967  11.190  0.00  0.00    +0.000 HD
BRANCH   8  10
ATOM     10  C   UNL     1      45.322   4.775   9.522  0.00  0.00    +0.000 C 
BRANCH  10  11
ATOM     11  C   UNL     1      44.773   3.736   8.531  0.00  0.00    +0.000 C 
BRANCH  11  12
ATOM     12  C   UNL     1      45.853   2.883   7.922  0.00  0.00    +0.000 A 
ATOM     13  C   UNL     1      46.780   3.433   7.032  0.00  0.00    +0.000 A 
ATOM     14  C   UNL     1      47.762   2.608   6.504  0.00  0.00    +0.000 A 
ATOM     15  N   UNL     1      47.875   1.297   6.795  0.00  0.00    +0.000 NA
ATOM     16  C   UNL     1      46.971   0.786   7.657  0.00  0.00    +0.000 A 
ATOM     17  C   UNL     1      45.952   1.528   8.237  0.00  0.00    +0.000 A 
ENDBRANCH  11  12
ENDBRANCH  10  11
ENDBRANCH   8  10
ENDBRANCH   5   8
ENDBRANCH   1   2
BRANCH   1  20
ATOM     18  C   UNL     1      49.474   6.229  16.811  0.00  0.00    +0.000 C 
ATOM     19  O   UNL     1      48.850   6.876  17.650  0.00  0.00    +0.000 OA
ATOM     20  N   UNL     1      49.161   6.302  15.482  0.00  0.00    +0.000 N 
ATOM     21  H   UNL     1      49.756   5.858  14.797  0.00  0.00    +0.000 HD
BRANCH  18  29
ATOM     22  C   UNL     1      49.825   2.809  16.901  0.00  0.00    +0.000 A 
ATOM     23  N   UNL     1      50.199   1.531  17.102  0.00  0.00    +0.000 NA
ATOM     24  C   UNL     1      51.409   1.306  17.621  0.00  0.00    +0.000 A 
ATOM     25  N   UNL     1      52.316   2.216  17.966  0.00  0.00    +0.000 NA
ATOM     26  C   UNL     1      51.902   3.476  17.755  0.00  0.00    +0.000 A 
ATOM     27  S   UNL     1      52.935   4.771  18.128  0.00  0.00    +0.000 S 
ATOM     28  C   UNL     1      51.767   5.906  17.642  0.00  0.00    +0.000 A 
ATOM     29  C   UNL     1      50.580   5.335  17.195  0.00  0.00    +0.000 A 
ATOM     30  C   UNL     1      50.675   3.878  17.238  0.00  0.00    +0.000 A 
BRANCH  22  32
ATOM     31  C   UNL     1      47.519   3.151  17.173  0.00  0.00    +0.000 C 
ATOM     32  O   UNL     1      48.621   3.045  16.274  0.00  0.00    +0.000 OA
ENDBRANCH  22  32
ENDBRANCH  18  29
ENDBRANCH   1  20
TORSDOF 8
ENDMDL
MODEL 5
REMARK VINA RESULT:    -6.824      1.877      2.475
REMARK INTER + INTRA:         -11.424
REMARK INTER:                  -9.814
REMARK INTRA:                  -1.610
REMARK UNBOUND:                -1.409
REMARK  Name = 
REMARK  9 active torsions:
REMARK  status: ('A' for Active; 'I' for Inactive)
REMARK    1  A    between atoms: C_1  and  O_2
REMARK    2  A    between atoms: O_2  and  C_3
REMARK    3  A    between atoms: C_10  and  C_11
REMARK    4  A    between atoms: N_13  and  C_14
REMARK    5  A    between atoms: C_14  and  C_15
REMARK    6  A    between atoms: C_18  and  N_19
REMARK    7  A    between atoms: N_19  and  C_20
REMARK    8  A    between atoms: C_20  and  C_21
REMARK    9  A    between atoms: C_21  and  C_22
REMARK                            x       y       z     vdW  Elec       q    Type
REMARK                         _______ _______ _______ _____ _____    ______ ____
ROOT
ATOM      1  C   UNL     1      48.318   7.595  13.156  0.00  0.00    +0.000 C 
ENDROOT
BRANCH   1   2
ATOM      2  C   UNL     1      47.170   6.623  13.074  0.00  0.00    +0.000 A 
ATOM      3  C   UNL     1      47.390   5.247  13.195  0.00  0.00    +0.000 A 
ATOM      4  C   UNL     1      46.314   4.353  13.199  0.00  0.00    +0.000 A 
ATOM      5  C   UNL     1      44.995   4.812  13.115  0.00  0.00    +0.000 A 
ATOM      6  C   UNL     1      44.791   6.174  12.870  0.00  0.00    +0.000 A 
ATOM      7  C   UNL     1      45.862   7.074  12.862  0.00  0.00    +0.000 A 
BRANCH   5   8
ATOM      8  N   UNL     1      43.870   3.984  13.209  0.00  0.00    +0.000 N 
ATOM      9  H   UNL     1      43.049   4.535  13.458  0.00  0.00    +0.000 HD
BRANCH   8  10
ATOM     10  C   UNL     1      43.601   3.059  12.101  0.00  0.00    +0.000 C 
BRANCH  10  11
ATOM     11  C   UNL     1      43.420   3.815  10.775  0.00  0.00    +0.000 C 
BRANCH  11  12
ATOM     12  C   UNL     1      44.437   3.421   9.738  0.00  0.00    +0.000 A 
ATOM     13  C   UNL     1      44.728   2.075   9.497  0.00  0.00    +0.000 A 
ATOM     14  C   UNL     1      45.667   1.764   8.526  0.00  0.00    +0.000 A 
ATOM     15  N   UNL     1      46.326   2.687   7.797  0.00  0.00    +0.000 NA
ATOM     16  C   UNL     1      46.030   3.980   8.044  0.00  0.00    +0.000 A 
ATOM     17  C   UNL     1      45.108   4.393   8.994  0.00  0.00    +0.000 A 
ENDBRANCH  11  12
ENDBRANCH  10  11
ENDBRANCH   8  10
ENDBRANCH   5   8
ENDBRANCH   1   2
BRANCH   1  20
ATOM     18  C   UNL     1      48.927   8.063  15.488  0.00  0.00    +0.000 C 
ATOM     19  O   UNL     1      48.052   8.923  15.578  0.00  0.00    +0.000 OA
ATOM     20  N   UNL     1      49.118   7.364  14.329  0.00  0.00    +0.000 N 
ATOM     21  H   UNL     1      49.914   6.749  14.235  0.00  0.00    +0.000 HD
BRANCH  18  29
ATOM     22  C   UNL     1      49.406   5.215  17.355  0.00  0.00    +0.000 A 
ATOM     23  N   UNL     1      49.730   4.284  18.272  0.00  0.00    +0.000 NA
ATOM     24  C   UNL     1      50.599   4.621  19.228  0.00  0.00    +0.000 A 
ATOM     25  N   UNL     1      51.206   5.795  19.383  0.00  0.00    +0.000 NA
ATOM     26  C   UNL     1      50.853   6.695  18.453  0.00  0.00    +0.000 A 
ATOM     27  S   UNL     1      51.537   8.249  18.486  0.00  0.00    +0.000 S 
ATOM     28  C   UNL     1      50.636   8.729  17.128  0.00  0.00    +0.000 A 
ATOM     29  C   UNL     1      49.803   7.735  16.626  0.00  0.00    +0.000 A 
ATOM     30  C   UNL     1      49.956   6.508  17.405  0.00  0.00    +0.000 A 
BRANCH  22  32
ATOM     31  C   UNL     1      47.354   4.265  16.727  0.00  0.00    +0.000 C 
ATOM     32  O   UNL     1      48.589   4.844  16.310  0.00  0.00    +0.000 OA
ENDBRANCH  22  32
ENDBRANCH  18  29
ENDBRANCH   1  20
TORSDOF 8
ENDMDL
MODEL 6
REMARK VINA RESULT:    -6.751      1.424      2.154
REMARK INTER + INTRA:         -11.317
REMARK INTER:                 -10.314
REMARK INTRA:                  -1.003
REMARK UNBOUND:                -1.409
REMARK  Name = 
REMARK  9 active torsions:
REMARK  status: ('A' for Active; 'I' for Inactive)
REMARK    1  A    between atoms: C_1  and  O_2
REMARK    2  A    between atoms: O_2  and  C_3
REMARK    3  A    between atoms: C_10  and  C_11
REMARK    4  A    between atoms: N_13  and  C_14
REMARK    5  A    between atoms: C_14  and  C_15
REMARK    6  A    between atoms: C_18  and  N_19
REMARK    7  A    between atoms: N_19  and  C_20
REMARK    8  A    between atoms: C_20  and  C_21
REMARK    9  A    between atoms: C_21  and  C_22
REMARK                            x       y       z     vdW  Elec       q    Type
REMARK                         _______ _______ _______ _____ _____    ______ ____
ROOT
ATOM      1  C   UNL     1      47.252   8.659  12.947  0.00  0.00    +0.000 C 
ENDROOT
BRANCH   1   2
ATOM      2  C   UNL     1      46.380   7.623  12.287  0.00  0.00    +0.000 A 
ATOM      3  C   UNL     1      44.986   7.738  12.320  0.00  0.00    +0.000 A 
ATOM      4  C   UNL     1      44.181   6.820  11.637  0.00  0.00    +0.000 A 
ATOM      5  C   UNL     1      44.746   5.786  10.882  0.00  0.00    +0.000 A 
ATOM      6  C   UNL     1      46.132   5.606  10.956  0.00  0.00    +0.000 A 
ATOM      7  C   UNL     1      46.944   6.519  11.639  0.00  0.00    +0.000 A 
BRANCH   5   8
ATOM      8  N   UNL     1      44.006   4.892  10.100  0.00  0.00    +0.000 N 
ATOM      9  H   UNL     1      43.774   5.320   9.204  0.00  0.00    +0.000 HD
BRANCH   8  10
ATOM     10  C   UNL     1      44.518   3.525   9.946  0.00  0.00    +0.000 C 
BRANCH  10  11
ATOM     11  C   UNL     1      44.373   3.036   8.496  0.00  0.00    +0.000 C 
BRANCH  11  12
ATOM     12  C   UNL     1      45.659   2.491   7.935  0.00  0.00    +0.000 A 
ATOM     13  C   UNL     1      46.548   3.323   7.249  0.00  0.00    +0.000 A 
ATOM     14  C   UNL     1      47.723   2.774   6.758  0.00  0.00    +0.000 A 
ATOM     15  N   UNL     1      48.060   1.476   6.897  0.00  0.00    +0.000 NA
ATOM     16  C   UNL     1      47.188   0.690   7.563  0.00  0.00    +0.000 A 
ATOM     17  C   UNL     1      45.988   1.144   8.090  0.00  0.00    +0.000 A 
ENDBRANCH  11  12
ENDBRANCH  10  11
ENDBRANCH   8  10
ENDBRANCH   5   8
ENDBRANCH   1   2
BRANCH   1  20
ATOM     18  C   UNL     1      48.716   8.317  14.887  0.00  0.00    +0.000 C 
ATOM     19  O   UNL     1      48.041   9.081  15.573  0.00  0.00    +0.000 OA
ATOM     20  N   UNL     1      48.391   8.057  13.585  0.00  0.00    +0.000 N 
ATOM     21  H   UNL     1      49.022   7.522  13.004  0.00  0.00    +0.000 HD
BRANCH  18  29
ATOM     22  C   UNL     1      49.163   5.378  16.614  0.00  0.00    +0.000 A 
ATOM     23  N   UNL     1      49.603   4.340  17.351  0.00  0.00    +0.000 NA
ATOM     24  C   UNL     1      50.903   4.293  17.655  0.00  0.00    +0.000 A 
ATOM     25  N   UNL     1      51.841   5.168  17.302  0.00  0.00    +0.000 NA
ATOM     26  C   UNL     1      51.360   6.189  16.575  0.00  0.00    +0.000 A 
ATOM     27  S   UNL     1      52.418   7.399  16.026  0.00  0.00    +0.000 S 
ATOM     28  C   UNL     1      51.144   8.244  15.283  0.00  0.00    +0.000 A 
ATOM     29  C   UNL     1      49.902   7.637  15.436  0.00  0.00    +0.000 A 
ATOM     30  C   UNL     1      50.039   6.390  16.186  0.00  0.00    +0.000 A 
BRANCH  22  32
ATOM     31  C   UNL     1      47.365   4.095  15.821  0.00  0.00    +0.000 C 
ATOM     32  O   UNL     1      47.845   5.379  16.213  0.00  0.00    +0.000 OA
ENDBRANCH  22  32
ENDBRANCH  18  29
ENDBRANCH   1  20
TORSDOF 8
ENDMDL
MODEL 7
REMARK VINA RESULT:    -6.370      3.594      7.738
REMARK INTER + INTRA:         -10.758
REMARK INTER:                  -9.196
REMARK INTRA:                  -1.562
REMARK UNBOUND:                -1.409
REMARK  Name = 
REMARK  9 active torsions:
REMARK  status: ('A' for Active; 'I' for Inactive)
REMARK    1  A    between atoms: C_1  and  O_2
REMARK    2  A    between atoms: O_2  and  C_3
REMARK    3  A    between atoms: C_10  and  C_11
REMARK    4  A    between atoms: N_13  and  C_14
REMARK    5  A    between atoms: C_14  and  C_15
REMARK    6  A    between atoms: C_18  and  N_19
REMARK    7  A    between atoms: N_19  and  C_20
REMARK    8  A    between atoms: C_20  and  C_21
REMARK    9  A    between atoms: C_21  and  C_22
REMARK                            x       y       z     vdW  Elec       q    Type
REMARK                         _______ _______ _______ _____ _____    ______ ____
ROOT
ATOM      1  C   UNL     1      47.982   8.870  13.881  0.00  0.00    +0.000 C 
ENDROOT
BRANCH   1   2
ATOM      2  C   UNL     1      48.570   8.283  15.138  0.00  0.00    +0.000 A 
ATOM      3  C   UNL     1      49.510   7.249  15.071  0.00  0.00    +0.000 A 
ATOM      4  C   UNL     1      50.114   6.762  16.235  0.00  0.00    +0.000 A 
ATOM      5  C   UNL     1      49.818   7.313  17.486  0.00  0.00    +0.000 A 
ATOM      6  C   UNL     1      48.789   8.257  17.557  0.00  0.00    +0.000 A 
ATOM      7  C   UNL     1      48.178   8.749  16.398  0.00  0.00    +0.000 A 
BRANCH   5   8
ATOM      8  N   UNL     1      50.453   6.940  18.676  0.00  0.00    +0.000 N 
ATOM      9  H   UNL     1      50.575   7.753  19.278  0.00  0.00    +0.000 HD
BRANCH   8  10
ATOM     10  C   UNL     1      49.921   5.783  19.408  0.00  0.00    +0.000 C 
BRANCH  10  11
ATOM     11  C   UNL     1      50.841   4.560  19.260  0.00  0.00    +0.000 C 
BRANCH  11  12
ATOM     12  C   UNL     1      50.345   3.581  18.230  0.00  0.00    +0.000 A 
ATOM     13  C   UNL     1      51.213   2.646  17.658  0.00  0.00    +0.000 A 
ATOM     14  C   UNL     1      50.707   1.760  16.719  0.00  0.00    +0.000 A 
ATOM     15  N   UNL     1      49.420   1.749  16.317  0.00  0.00    +0.000 NA
ATOM     16  C   UNL     1      48.599   2.658  16.882  0.00  0.00    +0.000 A 
ATOM     17  C   UNL     1      49.009   3.586  17.828  0.00  0.00    +0.000 A 
ENDBRANCH  11  12
ENDBRANCH  10  11
ENDBRANCH   8  10
ENDBRANCH   5   8
ENDBRANCH   1   2
BRANCH   1  20
ATOM     18  C   UNL     1      46.771   7.305  12.429  0.00  0.00    +0.000 C 
ATOM     19  O   UNL     1      47.785   7.079  11.772  0.00  0.00    +0.000 OA
ATOM     20  N   UNL     1      46.788   8.173  13.485  0.00  0.00    +0.000 N 
ATOM     21  H   UNL     1      45.923   8.436  13.937  0.00  0.00    +0.000 HD
BRANCH  18  29
ATOM     22  C   UNL     1      45.647   4.071  12.749  0.00  0.00    +0.000 A 
ATOM     23  N   UNL     1      44.992   2.895  12.695  0.00  0.00    +0.000 NA
ATOM     24  C   UNL     1      43.765   2.885  12.167  0.00  0.00    +0.000 A 
ATOM     25  N   UNL     1      43.092   3.925  11.681  0.00  0.00    +0.000 NA
ATOM     26  C   UNL     1      43.782   5.075  11.749  0.00  0.00    +0.000 A 
ATOM     27  S   UNL     1      43.075   6.512  11.185  0.00  0.00    +0.000 S 
ATOM     28  C   UNL     1      44.469   7.406  11.566  0.00  0.00    +0.000 A 
ATOM     29  C   UNL     1      45.492   6.643  12.120  0.00  0.00    +0.000 A 
ATOM     30  C   UNL     1      45.067   5.252  12.255  0.00  0.00    +0.000 A 
BRANCH  22  32
ATOM     31  C   UNL     1      46.803   4.570  14.730  0.00  0.00    +0.000 C 
ATOM     32  O   UNL     1      46.870   4.106  13.383  0.00  0.00    +0.000 OA
ENDBRANCH  22  32
ENDBRANCH  18  29
ENDBRANCH   1  20
TORSDOF 8
ENDMDL
