MODEL 1
REMARK VINA RESULT:    -8.380      0.000      0.000
REMARK INTER + INTRA:         -12.597
REMARK INTER:                 -11.809
REMARK INTRA:                  -0.788
REMARK UNBOUND:                -0.788
REMARK  Name = 
REMARK  8 active torsions:
REMARK  status: ('A' for Active; 'I' for Inactive)
REMARK    1  A    between atoms: C_1  and  C_2
REMARK    2  A    between atoms: C_2  and  C_3
REMARK    3  A    between atoms: C_2  and  C_19
REMARK    4  A    between atoms: C_3  and  N_4
REMARK    5  A    between atoms: N_7  and  C_8
REMARK    6  A    between atoms: C_8  and  C_9
REMARK    7  A    between atoms: C_9  and  C_10
REMARK    8  A    between atoms: C_19  and  C_21
REMARK                            x       y       z     vdW  Elec       q    Type
REMARK                         _______ _______ _______ _____ _____    ______ ____
ROOT
ATOM      1  C   UNL     1      47.180   5.035  15.090  0.00  0.00    +0.000 C 
ENDROOT
BRANCH   1   2
ATOM      2  N   UNL     1      47.380   4.814  13.642  0.00  0.00    +0.000 NA
ATOM      3  C   UNL     1      47.277   6.099  12.908  0.00  0.00    +0.000 C 
ATOM      4  C   UNL     1      45.826   6.603  12.688  0.00  0.00    +0.000 C 
ATOM      5  N   UNL     1      44.914   5.600  12.079  0.00  0.00    +0.000 NA
ATOM      6  C   UNL     1      44.999   4.370  12.893  0.00  0.00    +0.000 C 
ATOM      7  C   UNL     1      46.438   3.838  13.057  0.00  0.00    +0.000 C 
BRANCH   5   8
ATOM      8  C   UNL     1      45.279   5.377  10.665  0.00  0.00    +0.000 C 
BRANCH   8   9
ATOM      9  C   UNL     1      44.394   4.346   9.944  0.00  0.00    +0.000 C 
BRANCH   9  10
ATOM     10  C   UNL     1      45.209   3.496   8.998  0.00  0.00    +0.000 A 
ATOM     11  C   UNL     1      45.235   2.105   9.147  0.00  0.00    +0.000 A 
ATOM     12  C   UNL     1      46.011   1.330   8.287  0.00  0.00    +0.000 A 
ATOM     13  N   UNL     1      46.770   1.907   7.285  0.00  0.00    +0.000 N 
ATOM     14  O   UNL     1      47.478   1.192   6.513  0.00  0.00    +0.000 OA
ATOM     15  C   UNL     1      46.743   3.285   7.150  0.00  0.00    +0.000 A 
ATOM     16  C   UNL     1      45.974   4.088   7.992  0.00  0.00    +0.000 A 
ENDBRANCH   9  10
ENDBRANCH   8   9
ENDBRANCH   5   8
ENDBRANCH   1   2
BRANCH   1  18
ATOM     17  C   UNL     1      48.426   6.993  16.136  0.00  0.00    +0.000 C 
ATOM     18  C   UNL     1      48.448   5.490  15.841  0.00  0.00    +0.000 C 
BRANCH  18  19
ATOM     19  C   UNL     1      48.620   4.670  17.128  0.00  0.00    +0.000 C 
ATOM     20  O   UNL     1      47.635   4.251  17.732  0.00  0.00    +0.000 OA
BRANCH  19  21
ATOM     21  C   UNL     1      49.985   4.392  17.608  0.00  0.00    +0.000 A 
ATOM     22  C   UNL     1      50.754   5.330  18.282  0.00  0.00    +0.000 A 
ATOM     23  S   UNL     1      52.244   4.718  18.841  0.00  0.00    +0.000 S 
ATOM     24  C   UNL     1      51.915   3.183  18.192  0.00  0.00    +0.000 A 
ATOM     25  N   UNL     1      52.770   2.145  18.396  0.00  0.00    +0.000 NA
ATOM     26  C   UNL     1      52.381   1.029  17.884  0.00  0.00    +0.000 A 
ATOM     27  N   UNL     1      51.236   0.861  17.151  0.00  0.00    +0.000 N 
ATOM     28  C   UNL     1      50.405   1.907  16.809  0.00  0.00    +0.000 A 
ATOM     29  O   UNL     1      49.524   1.742  15.975  0.00  0.00    +0.000 OA
ATOM     30  C   UNL     1      50.727   3.156  17.481  0.00  0.00    +0.000 A 
ATOM     31  H   UNL     1      51.026  -0.020  16.708  0.00  0.00    +0.000 HD
ENDBRANCH  19  21
ENDBRANCH  18  19
ENDBRANCH   1  18
TORSDOF 7
ENDMDL
MODEL 2
REMARK VINA RESULT:    -7.701      3.129      4.064
REMARK INTER + INTRA:         -11.641
REMARK INTER:                 -10.711
REMARK INTRA:                  -0.930
REMARK UNBOUND:                -0.788
REMARK  Name = 
REMARK  8 active torsions:
REMARK  status: ('A' for Active; 'I' for Inactive)
REMARK    1  A    between atoms: C_1  and  C_2
REMARK    2  A    between atoms: C_2  and  C_3
REMARK    3  A    between atoms: C_2  and  C_19
REMARK    4  A    between atoms: C_3  and  N_4
REMARK    5  A    between atoms: N_7  and  C_8
REMARK    6  A    between atoms: C_8  and  C_9
REMARK    7  A    between atoms: C_9  and  C_10
REMARK    8  A    between atoms: C_19  and  C_21
REMARK                            x       y       z     vdW  Elec       q    Type
REMARK                         _______ _______ _______ _____ _____    ______ ____
ROOT
ATOM      1  C   UNL     1      46.878   7.187  13.263  0.00  0.00    +0.000 C 
ENDROOT
BRANCH   1   2
ATOM      2  N   UNL     1      46.951   5.932  12.486  0.00  0.00    +0.000 NA
ATOM      3  C   UNL     1      46.355   6.125  11.142  0.00  0.00    +0.000 C 
ATOM      4  C   UNL     1      44.803   6.118  11.117  0.00  0.00    +0.000 C 
ATOM      5  N   UNL     1      44.185   4.938  11.777  0.00  0.00    +0.000 NA
ATOM      6  C   UNL     1      44.757   4.839  13.136  0.00  0.00    +0.000 C 
ATOM      7  C   UNL     1      46.299   4.785  13.151  0.00  0.00    +0.000 C 
BRANCH   5   8
ATOM      8  C   UNL     1      44.417   3.725  10.967  0.00  0.00    +0.000 C 
BRANCH   8   9
ATOM      9  C   UNL     1      44.172   3.920   9.461  0.00  0.00    +0.000 C 
BRANCH   9  10
ATOM     10  C   UNL     1      45.251   3.252   8.642  0.00  0.00    +0.000 A 
ATOM     11  C   UNL     1      45.459   1.872   8.744  0.00  0.00    +0.000 A 
ATOM     12  C   UNL     1      46.476   1.268   8.005  0.00  0.00    +0.000 A 
ATOM     13  N   UNL     1      47.296   2.006   7.172  0.00  0.00    +0.000 N 
ATOM     14  O   UNL     1      48.222   1.447   6.511  0.00  0.00    +0.000 OA
ATOM     15  C   UNL     1      47.087   3.373   7.084  0.00  0.00    +0.000 A 
ATOM     16  C   UNL     1      46.076   4.006   7.807  0.00  0.00    +0.000 A 
ENDBRANCH   9  10
ENDBRANCH   8   9
ENDBRANCH   5   8
ENDBRANCH   1   2
BRANCH   1  18
ATOM     17  C   UNL     1      47.257   9.655  12.769  0.00  0.00    +0.000 C 
ATOM     18  C   UNL     1      47.892   8.263  12.824  0.00  0.00    +0.000 C 
BRANCH  18  19
ATOM     19  C   UNL     1      49.116   8.242  13.752  0.00  0.00    +0.000 C 
ATOM     20  O   UNL     1      50.205   7.856  13.333  0.00  0.00    +0.000 OA
BRANCH  19  21
ATOM     21  C   UNL     1      48.952   8.703  15.142  0.00  0.00    +0.000 A 
ATOM     22  C   UNL     1      49.016  10.040  15.506  0.00  0.00    +0.000 A 
ATOM     23  S   UNL     1      48.668  10.317  17.152  0.00  0.00    +0.000 S 
ATOM     24  C   UNL     1      48.431   8.658  17.434  0.00  0.00    +0.000 A 
ATOM     25  N   UNL     1      48.018   8.213  18.651  0.00  0.00    +0.000 NA
ATOM     26  C   UNL     1      47.839   6.939  18.716  0.00  0.00    +0.000 A 
ATOM     27  N   UNL     1      48.074   6.062  17.690  0.00  0.00    +0.000 N 
ATOM     28  C   UNL     1      48.614   6.449  16.481  0.00  0.00    +0.000 A 
ATOM     29  O   UNL     1      49.007   5.605  15.687  0.00  0.00    +0.000 OA
ATOM     30  C   UNL     1      48.700   7.892  16.313  0.00  0.00    +0.000 A 
ATOM     31  H   UNL     1      47.992   5.066  17.827  0.00  0.00    +0.000 HD
ENDBRANCH  19  21
ENDBRANCH  18  19
ENDBRANCH   1  18
TORSDOF 7
ENDMDL
MODEL 3
REMARK VINA RESULT:    -7.643      4.834      5.823
REMARK INTER + INTRA:         -11.559
REMARK INTER:                 -10.412
REMARK INTRA:                  -1.146
REMARK UNBOUND:                -0.788
REMARK  Name = 
REMARK  8 active torsions:
REMARK  status: ('A' for Active; 'I' for Inactive)
REMARK    1  A    between atoms: C_1  and  C_2
REMARK    2  A    between atoms: C_2  and  C_3
REMARK    3  A    between atoms: C_2  and  C_19
REMARK    4  A    between atoms: C_3  and  N_4
REMARK    5  A    between atoms: N_7  and  C_8
REMARK    6  A    between atoms: C_8  and  C_9
REMARK    7  A    between atoms: C_9  and  C_10
REMARK    8  A    between atoms: C_19  and  C_21
REMARK                            x       y       z     vdW  Elec       q    Type
REMARK                         _______ _______ _______ _____ _____    ______ ____
ROOT
ATOM      1  C   UNL     1      46.523   7.244  13.246  0.00  0.00    +0.000 C 
ENDROOT
BRANCH   1   2
ATOM      2  N   UNL     1      46.810   5.988  12.522  0.00  0.00    +0.000 NA
ATOM      3  C   UNL     1      46.242   6.044  11.153  0.00  0.00    +0.000 C 
ATOM      4  C   UNL     1      44.710   5.803  11.080  0.00  0.00    +0.000 C 
ATOM      5  N   UNL     1      44.250   4.568  11.767  0.00  0.00    +0.000 NA
ATOM      6  C   UNL     1      44.780   4.602  13.146  0.00  0.00    +0.000 C 
ATOM      7  C   UNL     1      46.311   4.781  13.212  0.00  0.00    +0.000 C 
BRANCH   5   8
ATOM      8  C   UNL     1      44.689   3.376  11.014  0.00  0.00    +0.000 C 
BRANCH   8   9
ATOM      9  C   UNL     1      44.193   3.335   9.558  0.00  0.00    +0.000 C 
BRANCH   9  10
ATOM     10  C   UNL     1      45.295   2.906   8.618  0.00  0.00    +0.000 A 
ATOM     11  C   UNL     1      45.721   1.574   8.596  0.00  0.00    +0.000 A 
ATOM     12  C   UNL     1      46.757   1.192   7.745  0.00  0.00    +0.000 A 
ATOM     13  N   UNL     1      47.385   2.107   6.920  0.00  0.00    +0.000 N 
ATOM     14  O   UNL     1      48.331   1.750   6.155  0.00  0.00    +0.000 OA
ATOM     15  C   UNL     1      46.960   3.424   6.954  0.00  0.00    +0.000 A 
ATOM     16  C   UNL     1      45.924   3.837   7.792  0.00  0.00    +0.000 A 
ENDBRANCH   9  10
ENDBRANCH   8   9
ENDBRANCH   5   8
ENDBRANCH   1   2
BRANCH   1  18
ATOM     17  C   UNL     1      45.500   9.396  12.348  0.00  0.00    +0.000 C 
ATOM     18  C   UNL     1      46.756   8.522  12.413  0.00  0.00    +0.000 C 
BRANCH  18  19
ATOM     19  C   UNL     1      47.954   9.303  12.973  0.00  0.00    +0.000 C 
ATOM     20  O   UNL     1      48.068   9.478  14.185  0.00  0.00    +0.000 OA
BRANCH  19  21
ATOM     21  C   UNL     1      48.957   9.825  12.029  0.00  0.00    +0.000 A 
ATOM     22  C   UNL     1      48.933  11.125  11.544  0.00  0.00    +0.000 A 
ATOM     23  S   UNL     1      50.275  11.515  10.568  0.00  0.00    +0.000 S 
ATOM     24  C   UNL     1      50.928   9.957  10.754  0.00  0.00    +0.000 A 
ATOM     25  N   UNL     1      52.143   9.646  10.228  0.00  0.00    +0.000 NA
ATOM     26  C   UNL     1      52.537   8.445  10.477  0.00  0.00    +0.000 A 
ATOM     27  N   UNL     1      51.811   7.512  11.169  0.00  0.00    +0.000 N 
ATOM     28  C   UNL     1      50.524   7.738  11.609  0.00  0.00    +0.000 A 
ATOM     29  O   UNL     1      49.845   6.807  12.021  0.00  0.00    +0.000 OA
ATOM     30  C   UNL     1      50.093   9.121  11.475  0.00  0.00    +0.000 A 
ATOM     31  H   UNL     1      52.139   6.562  11.261  0.00  0.00    +0.000 HD
ENDBRANCH  19  21
ENDBRANCH  18  19
ENDBRANCH   1  18
TORSDOF 7
ENDMDL
MODEL 4
REMARK VINA RESULT:    -7.581      1.969      2.773
REMARK INTER + INTRA:         -11.472
REMARK INTER:                 -10.518
REMARK INTRA:                  -0.953
REMARK UNBOUND:                -0.788
REMARK  Name = 
REMARK  8 active torsions:
REMARK  status: ('A' for Active; 'I' for Inactive)
REMARK    1  A    between atoms: C_1  and  C_2
REMARK    2  A    between atoms: C_2  and  C_3
REMARK    3  A    between atoms: C_2  and  C_19
REMARK    4  A    between atoms: C_3  and  N_4
REMARK    5  A    between atoms: N_7  and  C_8
REMARK    6  A    between atoms: C_8  and  C_9
REMARK    7  A    between atoms: C_9  and  C_10
REMARK    8  A    between atoms: C_19  and  C_21
REMARK                            x       y       z     vdW  Elec       q    Type
REMARK                         _______ _______ _______ _____ _____    ______ ____
ROOT
ATOM      1  C   UNL     1      47.027   7.153  13.165  0.00  0.00    +0.000 C 
ENDROOT
BRANCH   1   2
ATOM      2  N   UNL     1      47.038   5.900  12.382  0.00  0.00    +0.000 NA
ATOM      3  C   UNL     1      46.373   6.108  11.072  0.00  0.00    +0.000 C 
ATOM      4  C   UNL     1      44.822   6.125  11.131  0.00  0.00    +0.000 C 
ATOM      5  N   UNL     1      44.221   4.954  11.821  0.00  0.00    +0.000 NA
ATOM      6  C   UNL     1      44.865   4.841  13.146  0.00  0.00    +0.000 C 
ATOM      7  C   UNL     1      46.404   4.762  13.079  0.00  0.00    +0.000 C 
BRANCH   5   8
ATOM      8  C   UNL     1      44.390   3.739  10.997  0.00  0.00    +0.000 C 
BRANCH   8   9
ATOM      9  C   UNL     1      44.155   3.965   9.493  0.00  0.00    +0.000 C 
BRANCH   9  10
ATOM     10  C   UNL     1      45.222   3.284   8.668  0.00  0.00    +0.000 A 
ATOM     11  C   UNL     1      45.438   1.908   8.794  0.00  0.00    +0.000 A 
ATOM     12  C   UNL     1      46.442   1.293   8.048  0.00  0.00    +0.000 A 
ATOM     13  N   UNL     1      47.243   2.017   7.184  0.00  0.00    +0.000 N 
ATOM     14  O   UNL     1      48.159   1.448   6.516  0.00  0.00    +0.000 OA
ATOM     15  C   UNL     1      47.026   3.380   7.072  0.00  0.00    +0.000 A 
ATOM     16  C   UNL     1      46.027   4.024   7.801  0.00  0.00    +0.000 A 
ENDBRANCH   9  10
ENDBRANCH   8   9
ENDBRANCH   5   8
ENDBRANCH   1   2
BRANCH   1  18
ATOM     17  C   UNL     1      48.574   9.076  12.539  0.00  0.00    +0.000 C 
ATOM     18  C   UNL     1      48.419   7.791  13.357  0.00  0.00    +0.000 C 
BRANCH  18  19
ATOM     19  C   UNL     1      48.682   8.041  14.849  0.00  0.00    +0.000 C 
ATOM     20  O   UNL     1      47.931   8.767  15.497  0.00  0.00    +0.000 OA
BRANCH  19  21
ATOM     21  C   UNL     1      49.842   7.385  15.479  0.00  0.00    +0.000 A 
ATOM     22  C   UNL     1      51.135   7.876  15.373  0.00  0.00    +0.000 A 
ATOM     23  S   UNL     1      52.273   7.006  16.298  0.00  0.00    +0.000 S 
ATOM     24  C   UNL     1      51.076   5.939  16.861  0.00  0.00    +0.000 A 
ATOM     25  N   UNL     1      51.377   4.982  17.779  0.00  0.00    +0.000 NA
ATOM     26  C   UNL     1      50.370   4.269  18.150  0.00  0.00    +0.000 A 
ATOM     27  N   UNL     1      49.098   4.396  17.658  0.00  0.00    +0.000 N 
ATOM     28  C   UNL     1      48.772   5.263  16.636  0.00  0.00    +0.000 A 
ATOM     29  O   UNL     1      47.681   5.180  16.087  0.00  0.00    +0.000 OA
ATOM     30  C   UNL     1      49.842   6.184  16.285  0.00  0.00    +0.000 A 
ATOM     31  H   UNL     1      48.369   3.754  17.928  0.00  0.00    +0.000 HD
ENDBRANCH  19  21
ENDBRANCH  18  19
ENDBRANCH   1  18
TORSDOF 7
ENDMDL
MODEL 5
REMARK VINA RESULT:    -7.489      4.237      5.157
REMARK INTER + INTRA:         -11.341
REMARK INTER:                 -10.147
REMARK INTRA:                  -1.195
REMARK UNBOUND:                -0.788
REMARK  Name = 
REMARK  8 active torsions:
REMARK  status: ('A' for Active; 'I' for Inactive)
REMARK    1  A    between atoms: C_1  and  C_2
REMARK    2  A    between atoms: C_2  and  C_3
REMARK    3  A    between atoms: C_2  and  C_19
REMARK    4  A    between atoms: C_3  and  N_4
REMARK    5  A    between atoms: N_7  and  C_8
REMARK    6  A    between atoms: C_8  and  C_9
REMARK    7  A    between atoms: C_9  and  C_10
REMARK    8  A    between atoms: C_19  and  C_21
REMARK                            x       y       z     vdW  Elec       q    Type
REMARK                         _______ _______ _______ _____ _____    ______ ____
ROOT
ATOM      1  C   UNL     1      46.278   7.549  12.910  0.00  0.00    +0.000 C 
ENDROOT
BRANCH   1   2
ATOM      2  N   UNL     1      46.688   6.320  12.200  0.00  0.00    +0.000 NA
ATOM      3  C   UNL     1      45.963   6.206  10.911  0.00  0.00    +0.000 C 
ATOM      4  C   UNL     1      44.496   5.713  11.036  0.00  0.00    +0.000 C 
ATOM      5  N   UNL     1      44.335   4.459  11.818  0.00  0.00    +0.000 NA
ATOM      6  C   UNL     1      45.009   4.656  13.118  0.00  0.00    +0.000 C 
ATOM      7  C   UNL     1      46.485   5.087  12.987  0.00  0.00    +0.000 C 
BRANCH   5   8
ATOM      8  C   UNL     1      44.880   3.315  11.057  0.00  0.00    +0.000 C 
BRANCH   8   9
ATOM      9  C   UNL     1      44.287   3.161   9.647  0.00  0.00    +0.000 C 
BRANCH   9  10
ATOM     10  C   UNL     1      45.348   2.755   8.651  0.00  0.00    +0.000 A 
ATOM     11  C   UNL     1      45.761   1.421   8.567  0.00  0.00    +0.000 A 
ATOM     12  C   UNL     1      46.760   1.060   7.664  0.00  0.00    +0.000 A 
ATOM     13  N   UNL     1      47.365   1.998   6.847  0.00  0.00    +0.000 N 
ATOM     14  O   UNL     1      48.278   1.659   6.035  0.00  0.00    +0.000 OA
ATOM     15  C   UNL     1      46.953   3.317   6.942  0.00  0.00    +0.000 A 
ATOM     16  C   UNL     1      45.954   3.709   7.833  0.00  0.00    +0.000 A 
ENDBRANCH   9  10
ENDBRANCH   8   9
ENDBRANCH   5   8
ENDBRANCH   1   2
BRANCH   1  18
ATOM     17  C   UNL     1      44.914   9.561  12.152  0.00  0.00    +0.000 C 
ATOM     18  C   UNL     1      46.243   8.810  12.022  0.00  0.00    +0.000 C 
BRANCH  18  19
ATOM     19  C   UNL     1      47.435   9.720  12.353  0.00  0.00    +0.000 C 
ATOM     20  O   UNL     1      47.265  10.926  12.526  0.00  0.00    +0.000 OA
BRANCH  19  21
ATOM     21  C   UNL     1      48.773   9.114  12.466  0.00  0.00    +0.000 A 
ATOM     22  C   UNL     1      49.522   8.727  11.364  0.00  0.00    +0.000 A 
ATOM     23  S   UNL     1      51.084   8.172  11.761  0.00  0.00    +0.000 S 
ATOM     24  C   UNL     1      50.807   8.420  13.419  0.00  0.00    +0.000 A 
ATOM     25  N   UNL     1      51.800   8.216  14.327  0.00  0.00    +0.000 NA
ATOM     26  C   UNL     1      51.468   8.480  15.543  0.00  0.00    +0.000 A 
ATOM     27  N   UNL     1      50.223   8.890  15.943  0.00  0.00    +0.000 N 
ATOM     28  C   UNL     1      49.152   8.987  15.080  0.00  0.00    +0.000 A 
ATOM     29  O   UNL     1      48.021   9.140  15.521  0.00  0.00    +0.000 OA
ATOM     30  C   UNL     1      49.512   8.836  13.678  0.00  0.00    +0.000 A 
ATOM     31  H   UNL     1      50.001   9.003  16.920  0.00  0.00    +0.000 HD
ENDBRANCH  19  21
ENDBRANCH  18  19
ENDBRANCH   1  18
TORSDOF 7
ENDMDL
MODEL 6
REMARK VINA RESULT:    -7.416      2.046      2.743
REMARK INTER + INTRA:         -11.238
REMARK INTER:                 -10.280
REMARK INTRA:                  -0.958
REMARK UNBOUND:                -0.788
REMARK  Name = 
REMARK  8 active torsions:
REMARK  status: ('A' for Active; 'I' for Inactive)
REMARK    1  A    between atoms: C_1  and  C_2
REMARK    2  A    between atoms: C_2  and  C_3
REMARK    3  A    between atoms: C_2  and  C_19
REMARK    4  A    between atoms: C_3  and  N_4
REMARK    5  A    between atoms: N_7  and  C_8
REMARK    6  A    between atoms: C_8  and  C_9
REMARK    7  A    between atoms: C_9  and  C_10
REMARK    8  A    between atoms: C_19  and  C_21
REMARK                            x       y       z     vdW  Elec       q    Type
REMARK                         _______ _______ _______ _____ _____    ______ ____
ROOT
ATOM      1  C   UNL     1      47.245   6.752  13.571  0.00  0.00    +0.000 C 
ENDROOT
BRANCH   1   2
ATOM      2  N   UNL     1      47.114   5.540  12.735  0.00  0.00    +0.000 NA
ATOM      3  C   UNL     1      46.588   5.895  11.395  0.00  0.00    +0.000 C 
ATOM      4  C   UNL     1      45.059   6.159  11.351  0.00  0.00    +0.000 C 
ATOM      5  N   UNL     1      44.233   5.076  11.947  0.00  0.00    +0.000 NA
ATOM      6  C   UNL     1      44.752   4.817  13.305  0.00  0.00    +0.000 C 
ATOM      7  C   UNL     1      46.261   4.495  13.337  0.00  0.00    +0.000 C 
BRANCH   5   8
ATOM      8  C   UNL     1      44.267   3.879  11.082  0.00  0.00    +0.000 C 
BRANCH   8   9
ATOM      9  C   UNL     1      44.159   4.188   9.579  0.00  0.00    +0.000 C 
BRANCH   9  10
ATOM     10  C   UNL     1      45.199   3.427   8.790  0.00  0.00    +0.000 A 
ATOM     11  C   UNL     1      46.039   4.103   7.898  0.00  0.00    +0.000 A 
ATOM     12  C   UNL     1      46.977   3.390   7.154  0.00  0.00    +0.000 A 
ATOM     13  N   UNL     1      47.096   2.017   7.271  0.00  0.00    +0.000 N 
ATOM     14  O   UNL     1      47.948   1.377   6.584  0.00  0.00    +0.000 OA
ATOM     15  C   UNL     1      46.256   1.356   8.152  0.00  0.00    +0.000 A 
ATOM     16  C   UNL     1      45.308   2.042   8.913  0.00  0.00    +0.000 A 
ENDBRANCH   9  10
ENDBRANCH   8   9
ENDBRANCH   5   8
ENDBRANCH   1   2
BRANCH   1  18
ATOM     17  C   UNL     1      49.294   8.240  13.309  0.00  0.00    +0.000 C 
ATOM     18  C   UNL     1      48.684   7.042  14.044  0.00  0.00    +0.000 C 
BRANCH  18  19
ATOM     19  C   UNL     1      48.706   7.248  15.565  0.00  0.00    +0.000 C 
ATOM     20  O   UNL     1      48.417   8.342  16.047  0.00  0.00    +0.000 OA
BRANCH  19  21
ATOM     21  C   UNL     1      49.070   6.108  16.425  0.00  0.00    +0.000 A 
ATOM     22  C   UNL     1      48.136   5.215  16.929  0.00  0.00    +0.000 A 
ATOM     23  S   UNL     1      48.828   3.915  17.788  0.00  0.00    +0.000 S 
ATOM     24  C   UNL     1      50.398   4.509  17.523  0.00  0.00    +0.000 A 
ATOM     25  N   UNL     1      51.486   3.804  17.935  0.00  0.00    +0.000 NA
ATOM     26  C   UNL     1      52.615   4.347  17.634  0.00  0.00    +0.000 A 
ATOM     27  N   UNL     1      52.758   5.551  16.996  0.00  0.00    +0.000 N 
ATOM     28  C   UNL     1      51.690   6.361  16.674  0.00  0.00    +0.000 A 
ATOM     29  O   UNL     1      51.882   7.514  16.310  0.00  0.00    +0.000 OA
ATOM     30  C   UNL     1      50.394   5.727  16.866  0.00  0.00    +0.000 A 
ATOM     31  H   UNL     1      53.669   5.963  16.861  0.00  0.00    +0.000 HD
ENDBRANCH  19  21
ENDBRANCH  18  19
ENDBRANCH   1  18
TORSDOF 7
ENDMDL
MODEL 7
REMARK VINA RESULT:    -6.637      2.563      3.335
REMARK INTER + INTRA:         -10.142
REMARK INTER:                  -9.237
REMARK INTRA:                  -0.905
REMARK UNBOUND:                -0.788
REMARK  Name = 
REMARK  8 active torsions:
REMARK  status: ('A' for Active; 'I' for Inactive)
REMARK    1  A    between atoms: C_1  and  C_2
REMARK    2  A    between atoms: C_2  and  C_3
REMARK    3  A    between atoms: C_2  and  C_19
REMARK    4  A    between atoms: C_3  and  N_4
REMARK    5  A    between atoms: N_7  and  C_8
REMARK    6  A    between atoms: C_8  and  C_9
REMARK    7  A    between atoms: C_9  and  C_10
REMARK    8  A    between atoms: C_19  and  C_21
REMARK                            x       y       z     vdW  Elec       q    Type
REMARK                         _______ _______ _______ _____ _____    ______ ____
ROOT
ATOM      1  C   UNL     1      48.016   7.340  14.246  0.00  0.00    +0.000 C 
ENDROOT
BRANCH   1   2
ATOM      2  N   UNL     1      47.707   6.944  12.855  0.00  0.00    +0.000 NA
ATOM      3  C   UNL     1      46.777   7.922  12.239  0.00  0.00    +0.000 C 
ATOM      4  C   UNL     1      45.295   7.766  12.673  0.00  0.00    +0.000 C 
ATOM      5  N   UNL     1      44.754   6.390  12.522  0.00  0.00    +0.000 NA
ATOM      6  C   UNL     1      45.676   5.470  13.218  0.00  0.00    +0.000 C 
ATOM      7  C   UNL     1      47.138   5.586  12.739  0.00  0.00    +0.000 C 
BRANCH   5   8
ATOM      8  C   UNL     1      44.591   6.065  11.090  0.00  0.00    +0.000 C 
BRANCH   8   9
ATOM      9  C   UNL     1      43.925   4.703  10.828  0.00  0.00    +0.000 C 
BRANCH   9  10
ATOM     10  C   UNL     1      44.704   3.902   9.812  0.00  0.00    +0.000 A 
ATOM     11  C   UNL     1      45.444   4.555   8.819  0.00  0.00    +0.000 A 
ATOM     12  C   UNL     1      46.138   3.808   7.869  0.00  0.00    +0.000 A 
ATOM     13  N   UNL     1      46.108   2.426   7.877  0.00  0.00    +0.000 N 
ATOM     14  O   UNL     1      46.737   1.757   7.003  0.00  0.00    +0.000 OA
ATOM     15  C   UNL     1      45.368   1.789   8.859  0.00  0.00    +0.000 A 
ATOM     16  C   UNL     1      44.665   2.508   9.827  0.00  0.00    +0.000 A 
ENDBRANCH   9  10
ENDBRANCH   8   9
ENDBRANCH   5   8
ENDBRANCH   1   2
BRANCH   1  18
ATOM     17  C   UNL     1      50.326   7.961  13.375  0.00  0.00    +0.000 C 
ATOM     18  C   UNL     1      49.525   7.416  14.560  0.00  0.00    +0.000 C 
BRANCH  18  19
ATOM     19  C   UNL     1      49.756   8.255  15.826  0.00  0.00    +0.000 C 
ATOM     20  O   UNL     1      50.479   9.249  15.787  0.00  0.00    +0.000 OA
BRANCH  19  21
ATOM     21  C   UNL     1      49.087   7.846  17.073  0.00  0.00    +0.000 A 
ATOM     22  C   UNL     1      48.241   8.683  17.786  0.00  0.00    +0.000 A 
ATOM     23  S   UNL     1      47.497   7.928  19.121  0.00  0.00    +0.000 S 
ATOM     24  C   UNL     1      48.289   6.460  18.797  0.00  0.00    +0.000 A 
ATOM     25  N   UNL     1      48.022   5.349  19.535  0.00  0.00    +0.000 NA
ATOM     26  C   UNL     1      48.661   4.296  19.158  0.00  0.00    +0.000 A 
ATOM     27  N   UNL     1      49.574   4.258  18.137  0.00  0.00    +0.000 N 
ATOM     28  C   UNL     1      49.973   5.383  17.445  0.00  0.00    +0.000 A 
ATOM     29  O   UNL     1      50.943   5.333  16.701  0.00  0.00    +0.000 OA
ATOM     30  C   UNL     1      49.178   6.565  17.740  0.00  0.00    +0.000 A 
ATOM     31  H   UNL     1      50.102   3.421  17.942  0.00  0.00    +0.000 HD
ENDBRANCH  19  21
ENDBRANCH  18  19
ENDBRANCH   1  18
TORSDOF 7
ENDMDL
MODEL 8
REMARK VINA RESULT:    -6.621      2.837      3.638
REMARK INTER + INTRA:         -10.119
REMARK INTER:                  -8.944
REMARK INTRA:                  -1.175
REMARK UNBOUND:                -0.788
REMARK  Name = 
REMARK  8 active torsions:
REMARK  status: ('A' for Active; 'I' for Inactive)
REMARK    1  A    between atoms: C_1  and  C_2
REMARK    2  A    between atoms: C_2  and  C_3
REMARK    3  A    between atoms: C_2  and  C_19
REMARK    4  A    between atoms: C_3  and  N_4
REMARK    5  A    between atoms: N_7  and  C_8
REMARK    6  A    between atoms: C_8  and  C_9
REMARK    7  A    between atoms: C_9  and  C_10
REMARK    8  A    between atoms: C_19  and  C_21
REMARK                            x       y       z     vdW  Elec       q    Type
REMARK                         _______ _______ _______ _____ _____    ______ ____
ROOT
ATOM      1  C   UNL     1      49.838   7.588  14.999  0.00  0.00    +0.000 C 
ENDROOT
BRANCH   1   2
ATOM      2  N   UNL     1      49.065   6.685  14.120  0.00  0.00    +0.000 NA
ATOM      3  C   UNL     1      49.393   6.949  12.698  0.00  0.00    +0.000 C 
ATOM      4  C   UNL     1      48.709   8.208  12.101  0.00  0.00    +0.000 C 
ATOM      5  N   UNL     1      47.236   8.256  12.297  0.00  0.00    +0.000 NA
ATOM      6  C   UNL     1      46.972   8.064  13.738  0.00  0.00    +0.000 C 
ATOM      7  C   UNL     1      47.604   6.779  14.313  0.00  0.00    +0.000 C 
BRANCH   5   8
ATOM      8  C   UNL     1      46.579   7.236  11.453  0.00  0.00    +0.000 C 
BRANCH   8   9
ATOM      9  C   UNL     1      45.042   7.281  11.498  0.00  0.00    +0.000 C 
BRANCH   9  10
ATOM     10  C   UNL     1      44.458   5.888  11.548  0.00  0.00    +0.000 A 
ATOM     11  C   UNL     1      43.826   5.432  12.710  0.00  0.00    +0.000 A 
ATOM     12  C   UNL     1      43.313   4.137  12.757  0.00  0.00    +0.000 A 
ATOM     13  N   UNL     1      43.423   3.280  11.678  0.00  0.00    +0.000 N 
ATOM     14  O   UNL     1      42.960   2.101  11.735  0.00  0.00    +0.000 OA
ATOM     15  C   UNL     1      44.056   3.738  10.535  0.00  0.00    +0.000 A 
ATOM     16  C   UNL     1      44.576   5.030  10.455  0.00  0.00    +0.000 A 
ENDBRANCH   9  10
ENDBRANCH   8   9
ENDBRANCH   5   8
ENDBRANCH   1   2
BRANCH   1  18
ATOM     17  C   UNL     1      52.050   7.780  16.243  0.00  0.00    +0.000 C 
ATOM     18  C   UNL     1      50.869   6.871  15.894  0.00  0.00    +0.000 C 
BRANCH  18  19
ATOM     19  C   UNL     1      50.184   6.334  17.159  0.00  0.00    +0.000 C 
ATOM     20  O   UNL     1      49.938   7.088  18.099  0.00  0.00    +0.000 OA
BRANCH  19  21
ATOM     21  C   UNL     1      49.824   4.906  17.213  0.00  0.00    +0.000 A 
ATOM     22  C   UNL     1      48.534   4.444  16.992  0.00  0.00    +0.000 A 
ATOM     23  S   UNL     1      48.410   2.743  16.985  0.00  0.00    +0.000 S 
ATOM     24  C   UNL     1      50.073   2.569  17.286  0.00  0.00    +0.000 A 
ATOM     25  N   UNL     1      50.648   1.337  17.314  0.00  0.00    +0.000 NA
ATOM     26  C   UNL     1      51.921   1.351  17.511  0.00  0.00    +0.000 A 
ATOM     27  N   UNL     1      52.668   2.479  17.725  0.00  0.00    +0.000 N 
ATOM     28  C   UNL     1      52.112   3.737  17.835  0.00  0.00    +0.000 A 
ATOM     29  O   UNL     1      52.787   4.672  18.243  0.00  0.00    +0.000 OA
ATOM     30  C   UNL     1      50.702   3.787  17.479  0.00  0.00    +0.000 A 
ATOM     31  H   UNL     1      53.648   2.419  17.955  0.00  0.00    +0.000 HD
ENDBRANCH  19  21
ENDBRANCH  18  19
ENDBRANCH   1  18
TORSDOF 7
ENDMDL
MODEL 9
REMARK VINA RESULT:    -6.309      3.414      4.454
REMARK INTER + INTRA:          -9.680
REMARK INTER:                  -8.241
REMARK INTRA:                  -1.439
REMARK UNBOUND:                -0.788
REMARK  Name = 
REMARK  8 active torsions:
REMARK  status: ('A' for Active; 'I' for Inactive)
REMARK    1  A    between atoms: C_1  and  C_2
REMARK    2  A    between atoms: C_2  and  C_3
REMARK    3  A    between atoms: C_2  and  C_19
REMARK    4  A    between atoms: C_3  and  N_4
REMARK    5  A    between atoms: N_7  and  C_8
REMARK    6  A    between atoms: C_8  and  C_9
REMARK    7  A    between atoms: C_9  and  C_10
REMARK    8  A    between atoms: C_19  and  C_21
REMARK                            x       y       z     vdW  Elec       q    Type
REMARK                         _______ _______ _______ _____ _____    ______ ____
ROOT
ATOM      1  C   UNL     1      50.511   7.737  15.241  0.00  0.00    +0.000 C 
ENDROOT
BRANCH   1   2
ATOM      2  N   UNL     1      49.597   6.963  14.375  0.00  0.00    +0.000 NA
ATOM      3  C   UNL     1      49.760   7.375  12.960  0.00  0.00    +0.000 C 
ATOM      4  C   UNL     1      49.065   8.714  12.593  0.00  0.00    +0.000 C 
ATOM      5  N   UNL     1      47.631   8.786  12.978  0.00  0.00    +0.000 NA
ATOM      6  C   UNL     1      47.537   8.441  14.411  0.00  0.00    +0.000 C 
ATOM      7  C   UNL     1      48.176   7.081  14.760  0.00  0.00    +0.000 C 
BRANCH   5   8
ATOM      8  C   UNL     1      46.831   7.889  12.119  0.00  0.00    +0.000 C 
BRANCH   8   9
ATOM      9  C   UNL     1      45.323   7.914  12.419  0.00  0.00    +0.000 C 
BRANCH   9  10
ATOM     10  C   UNL     1      44.702   6.553  12.209  0.00  0.00    +0.000 A 
ATOM     11  C   UNL     1      45.262   5.424  12.818  0.00  0.00    +0.000 A 
ATOM     12  C   UNL     1      44.699   4.167  12.597  0.00  0.00    +0.000 A 
ATOM     13  N   UNL     1      43.596   4.006  11.779  0.00  0.00    +0.000 N 
ATOM     14  O   UNL     1      43.098   2.857  11.580  0.00  0.00    +0.000 OA
ATOM     15  C   UNL     1      43.054   5.129  11.176  0.00  0.00    +0.000 A 
ATOM     16  C   UNL     1      43.592   6.400  11.379  0.00  0.00    +0.000 A 
ENDBRANCH   9  10
ENDBRANCH   8   9
ENDBRANCH   5   8
ENDBRANCH   1   2
BRANCH   1  18
ATOM     17  C   UNL     1      53.004   7.389  15.617  0.00  0.00    +0.000 C 
ATOM     18  C   UNL     1      51.594   6.887  15.938  0.00  0.00    +0.000 C 
BRANCH  18  19
ATOM     19  C   UNL     1      51.342   6.854  17.452  0.00  0.00    +0.000 C 
ATOM     20  O   UNL     1      52.267   7.046  18.239  0.00  0.00    +0.000 OA
BRANCH  19  21
ATOM     21  C   UNL     1      49.973   6.597  17.933  0.00  0.00    +0.000 A 
ATOM     22  C   UNL     1      49.217   7.548  18.602  0.00  0.00    +0.000 A 
ATOM     23  S   UNL     1      47.624   7.042  18.937  0.00  0.00    +0.000 S 
ATOM     24  C   UNL     1      47.895   5.531  18.208  0.00  0.00    +0.000 A 
ATOM     25  N   UNL     1      46.884   4.631  18.079  0.00  0.00    +0.000 NA
ATOM     26  C   UNL     1      47.216   3.544  17.471  0.00  0.00    +0.000 A 
ATOM     27  N   UNL     1      48.476   3.256  17.017  0.00  0.00    +0.000 N 
ATOM     28  C   UNL     1      49.560   4.079  17.238  0.00  0.00    +0.000 A 
ATOM     29  O   UNL     1      50.693   3.676  17.009  0.00  0.00    +0.000 OA
ATOM     30  C   UNL     1      49.207   5.377  17.793  0.00  0.00    +0.000 A 
ATOM     31  H   UNL     1      48.693   2.354  16.622  0.00  0.00    +0.000 HD
ENDBRANCH  19  21
ENDBRANCH  18  19
ENDBRANCH   1  18
TORSDOF 7
ENDMDL
