MODEL 1
REMARK VINA RESULT:    -7.423      0.000      0.000
REMARK INTER + INTRA:         -10.257
REMARK INTER:                  -9.593
REMARK INTRA:                  -0.664
REMARK UNBOUND:                -0.664
REMARK  Name = 
REMARK  6 active torsions:
REMARK  status: ('A' for Active; 'I' for Inactive)
REMARK    1  A    between atoms: C_1  and  O_2
REMARK    2  A    between atoms: O_2  and  C_3
REMARK    3  A    between atoms: C_6  and  C_7
REMARK    4  A    between atoms: C_10  and  N_11
REMARK    5  A    between atoms: N_11  and  C_12
REMARK    6  A    between atoms: C_12  and  C_13
REMARK                            x       y       z     vdW  Elec       q    Type
REMARK                         _______ _______ _______ _____ _____    ______ ____
ROOT
ATOM      1  C   UNL     1      45.959   3.848   7.928  0.00  0.00    +0.000 A 
ATOM      2  C   UNL     1      45.396   2.610   8.115  0.00  0.00    +0.000 A 
ATOM      3  C   UNL     1      44.557   2.443   9.214  0.00  0.00    +0.000 A 
ATOM      4  C   UNL     1      44.309   3.512  10.101  0.00  0.00    +0.000 A 
ATOM      5  C   UNL     1      44.968   4.730   9.861  0.00  0.00    +0.000 A 
ATOM      6  N   UNL     1      45.750   4.874   8.765  0.00  0.00    +0.000 NA
ENDROOT
BRANCH   4   7
ATOM      7  C   UNL     1      43.444   3.302  11.297  0.00  0.00    +0.000 C 
ATOM      8  N   UNL     1      43.510   2.102  11.961  0.00  0.00    +0.000 N 
ATOM      9  O   UNL     1      42.699   4.186  11.718  0.00  0.00    +0.000 OA
ATOM     10  H   UNL     1      44.079   1.308  11.711  0.00  0.00    +0.000 HD
ATOM     11  H   UNL     1      42.902   1.990  12.765  0.00  0.00    +0.000 HD
ENDBRANCH   4   7
BRANCH   1  13
ATOM     12  C   UNL     1      46.750   2.921   5.945  0.00  0.00    +0.000 C 
ATOM     13  O   UNL     1      46.797   4.024   6.852  0.00  0.00    +0.000 OA
ENDBRANCH   1  13
BRANCH   5  14
ATOM     14  N   UNL     1      44.846   5.900  10.664  0.00  0.00    +0.000 N 
ATOM     15  H   UNL     1      44.157   5.729  11.402  0.00  0.00    +0.000 HD
BRANCH  14  16
ATOM     16  C   UNL     1      46.179   6.275  11.165  0.00  0.00    +0.000 C 
BRANCH  16  17
ATOM     17  C   UNL     1      46.521   5.868  12.562  0.00  0.00    +0.000 A 
ATOM     18  C   UNL     1      45.721   4.948  13.225  0.00  0.00    +0.000 A 
ATOM     19  N   UNL     1      46.032   4.371  14.402  0.00  0.00    +0.000 NA
ATOM     20  C   UNL     1      47.215   4.727  14.917  0.00  0.00    +0.000 A 
ATOM     21  N   UNL     1      48.084   5.594  14.370  0.00  0.00    +0.000 NA
ATOM     22  C   UNL     1      47.714   6.140  13.189  0.00  0.00    +0.000 A 
ENDBRANCH  16  17
ENDBRANCH  14  16
ENDBRANCH   5  14
TORSDOF 5
ENDMDL
MODEL 2
REMARK VINA RESULT:    -7.313      2.386      5.712
REMARK INTER + INTRA:         -10.114
REMARK INTER:                  -9.526
REMARK INTRA:                  -0.588
REMARK UNBOUND:                -0.664
REMARK  Name = 
REMARK  6 active torsions:
REMARK  status: ('A' for Active; 'I' for Inactive)
REMARK    1  A    between atoms: C_1  and  O_2
REMARK    2  A    between atoms: O_2  and  C_3
REMARK    3  A    between atoms: C_6  and  C_7
REMARK    4  A    between atoms: C_10  and  N_11
REMARK    5  A    between atoms: N_11  and  C_12
REMARK    6  A    between atoms: C_12  and  C_13
REMARK                            x       y       z     vdW  Elec       q    Type
REMARK                         _______ _______ _______ _____ _____    ______ ____
ROOT
ATOM      1  C   UNL     1      46.306   3.860  13.413  0.00  0.00    +0.000 A 
ATOM      2  C   UNL     1      46.036   5.133  13.850  0.00  0.00    +0.000 A 
ATOM      3  C   UNL     1      44.980   5.811  13.244  0.00  0.00    +0.000 A 
ATOM      4  C   UNL     1      44.230   5.205  12.215  0.00  0.00    +0.000 A 
ATOM      5  C   UNL     1      44.611   3.918  11.796  0.00  0.00    +0.000 A 
ATOM      6  N   UNL     1      45.618   3.270  12.426  0.00  0.00    +0.000 NA
ENDROOT
BRANCH   4   7
ATOM      7  C   UNL     1      43.133   5.964  11.548  0.00  0.00    +0.000 C 
ATOM      8  N   UNL     1      43.404   7.208  11.035  0.00  0.00    +0.000 N 
ATOM      9  O   UNL     1      42.006   5.489  11.420  0.00  0.00    +0.000 OA
ATOM     10  H   UNL     1      44.284   7.697  11.078  0.00  0.00    +0.000 HD
ATOM     11  H   UNL     1      42.633   7.699  10.595  0.00  0.00    +0.000 HD
ENDBRANCH   4   7
BRANCH   1  13
ATOM     12  C   UNL     1      47.488   3.491  15.383  0.00  0.00    +0.000 C 
ATOM     13  O   UNL     1      47.352   3.183  13.995  0.00  0.00    +0.000 OA
ENDBRANCH   1  13
BRANCH   5  14
ATOM     14  N   UNL     1      43.977   3.172  10.761  0.00  0.00    +0.000 N 
ATOM     15  H   UNL     1      42.967   3.152  10.933  0.00  0.00    +0.000 HD
BRANCH  14  16
ATOM     16  C   UNL     1      44.350   3.751   9.460  0.00  0.00    +0.000 C 
BRANCH  16  17
ATOM     17  C   UNL     1      45.245   2.936   8.582  0.00  0.00    +0.000 A 
ATOM     18  C   UNL     1      46.104   3.573   7.698  0.00  0.00    +0.000 A 
ATOM     19  N   UNL     1      47.080   2.957   7.001  0.00  0.00    +0.000 NA
ATOM     20  C   UNL     1      47.200   1.644   7.227  0.00  0.00    +0.000 A 
ATOM     21  N   UNL     1      46.442   0.915   8.064  0.00  0.00    +0.000 NA
ATOM     22  C   UNL     1      45.480   1.590   8.734  0.00  0.00    +0.000 A 
ENDBRANCH  16  17
ENDBRANCH  14  16
ENDBRANCH   5  14
TORSDOF 5
ENDMDL
MODEL 3
REMARK VINA RESULT:    -7.229      2.185      5.270
REMARK INTER + INTRA:         -10.005
REMARK INTER:                  -9.179
REMARK INTRA:                  -0.827
REMARK UNBOUND:                -0.664
REMARK  Name = 
REMARK  6 active torsions:
REMARK  status: ('A' for Active; 'I' for Inactive)
REMARK    1  A    between atoms: C_1  and  O_2
REMARK    2  A    between atoms: O_2  and  C_3
REMARK    3  A    between atoms: C_6  and  C_7
REMARK    4  A    between atoms: C_10  and  N_11
REMARK    5  A    between atoms: N_11  and  C_12
REMARK    6  A    between atoms: C_12  and  C_13
REMARK                            x       y       z     vdW  Elec       q    Type
REMARK                         _______ _______ _______ _____ _____    ______ ____
ROOT
ATOM      1  C   UNL     1      46.672   6.468  12.045  0.00  0.00    +0.000 A 
ATOM      2  C   UNL     1      46.320   5.809  13.195  0.00  0.00    +0.000 A 
ATOM      3  C   UNL     1      45.408   4.762  13.085  0.00  0.00    +0.000 A 
ATOM      4  C   UNL     1      44.866   4.407  11.832  0.00  0.00    +0.000 A 
ATOM      5  C   UNL     1      45.245   5.170  10.714  0.00  0.00    +0.000 A 
ATOM      6  N   UNL     1      46.160   6.160  10.845  0.00  0.00    +0.000 NA
ENDROOT
BRANCH   4   7
ATOM      7  C   UNL     1      43.857   3.313  11.740  0.00  0.00    +0.000 C 
ATOM      8  N   UNL     1      43.802   2.375  12.741  0.00  0.00    +0.000 N 
ATOM      9  O   UNL     1      43.057   3.251  10.808  0.00  0.00    +0.000 OA
ATOM     10  H   UNL     1      44.403   2.324  13.549  0.00  0.00    +0.000 HD
ATOM     11  H   UNL     1      43.110   1.641  12.643  0.00  0.00    +0.000 HD
ENDBRANCH   4   7
BRANCH   1  13
ATOM     12  C   UNL     1      48.860   7.075  12.555  0.00  0.00    +0.000 C 
ATOM     13  O   UNL     1      47.564   7.511  12.141  0.00  0.00    +0.000 OA
ENDBRANCH   1  13
BRANCH   5  14
ATOM     14  N   UNL     1      44.780   4.961   9.384  0.00  0.00    +0.000 N 
ATOM     15  H   UNL     1      44.194   5.754   9.105  0.00  0.00    +0.000 HD
BRANCH  14  16
ATOM     16  C   UNL     1      45.939   4.736   8.504  0.00  0.00    +0.000 C 
BRANCH  16  17
ATOM     17  C   UNL     1      46.174   3.338   8.030  0.00  0.00    +0.000 A 
ATOM     18  C   UNL     1      47.153   3.092   7.078  0.00  0.00    +0.000 A 
ATOM     19  N   UNL     1      47.579   1.864   6.717  0.00  0.00    +0.000 NA
ATOM     20  C   UNL     1      47.001   0.847   7.366  0.00  0.00    +0.000 A 
ATOM     21  N   UNL     1      46.054   0.953   8.314  0.00  0.00    +0.000 NA
ATOM     22  C   UNL     1      45.668   2.209   8.631  0.00  0.00    +0.000 A 
ENDBRANCH  16  17
ENDBRANCH  14  16
ENDBRANCH   5  14
TORSDOF 5
ENDMDL
MODEL 4
REMARK VINA RESULT:    -6.704      2.206      5.489
REMARK INTER + INTRA:          -9.327
REMARK INTER:                  -8.454
REMARK INTRA:                  -0.873
REMARK UNBOUND:                -0.664
REMARK  Name = 
REMARK  6 active torsions:
REMARK  status: ('A' for Active; 'I' for Inactive)
REMARK    1  A    between atoms: C_1  and  O_2
REMARK    2  A    between atoms: O_2  and  C_3
REMARK    3  A    between atoms: C_6  and  C_7
REMARK    4  A    between atoms: C_10  and  N_11
REMARK    5  A    between atoms: N_11  and  C_12
REMARK    6  A    between atoms: C_12  and  C_13
REMARK                            x       y       z     vdW  Elec       q    Type
REMARK                         _______ _______ _______ _____ _____    ______ ____
ROOT
ATOM      1  C   UNL     1      45.049   7.690  11.794  0.00  0.00    +0.000 A 
ATOM      2  C   UNL     1      46.111   7.694  12.663  0.00  0.00    +0.000 A 
ATOM      3  C   UNL     1      46.502   6.474  13.209  0.00  0.00    +0.000 A 
ATOM      4  C   UNL     1      45.818   5.285  12.880  0.00  0.00    +0.000 A 
ATOM      5  C   UNL     1      44.710   5.382  12.020  0.00  0.00    +0.000 A 
ATOM      6  N   UNL     1      44.375   6.576  11.477  0.00  0.00    +0.000 NA
ENDROOT
BRANCH   4   7
ATOM      7  C   UNL     1      46.223   3.995  13.509  0.00  0.00    +0.000 C 
ATOM      8  N   UNL     1      46.818   4.018  14.746  0.00  0.00    +0.000 N 
ATOM      9  O   UNL     1      46.007   2.915  12.961  0.00  0.00    +0.000 OA
ATOM     10  H   UNL     1      47.044   4.837  15.288  0.00  0.00    +0.000 HD
ATOM     11  H   UNL     1      47.087   3.124  15.141  0.00  0.00    +0.000 HD
ENDBRANCH   4   7
BRANCH   1  13
ATOM     12  C   UNL     1      44.990   9.998  12.088  0.00  0.00    +0.000 C 
ATOM     13  O   UNL     1      44.646   8.890  11.255  0.00  0.00    +0.000 OA
ENDBRANCH   1  13
BRANCH   5  14
ATOM     14  N   UNL     1      43.899   4.288  11.602  0.00  0.00    +0.000 N 
ATOM     15  H   UNL     1      43.013   4.312  12.115  0.00  0.00    +0.000 HD
BRANCH  14  16
ATOM     16  C   UNL     1      43.744   4.343  10.139  0.00  0.00    +0.000 C 
BRANCH  16  17
ATOM     17  C   UNL     1      44.853   3.773   9.314  0.00  0.00    +0.000 A 
ATOM     18  C   UNL     1      45.049   2.399   9.282  0.00  0.00    +0.000 A 
ATOM     19  N   UNL     1      45.886   1.765   8.437  0.00  0.00    +0.000 NA
ATOM     20  C   UNL     1      46.534   2.556   7.575  0.00  0.00    +0.000 A 
ATOM     21  N   UNL     1      46.423   3.893   7.496  0.00  0.00    +0.000 NA
ATOM     22  C   UNL     1      45.569   4.472   8.370  0.00  0.00    +0.000 A 
ENDBRANCH  16  17
ENDBRANCH  14  16
ENDBRANCH   5  14
TORSDOF 5
ENDMDL
MODEL 5
REMARK VINA RESULT:    -6.660      1.897      2.531
REMARK INTER + INTRA:          -9.270
REMARK INTER:                  -8.598
REMARK INTRA:                  -0.671
REMARK UNBOUND:                -0.664
REMARK  Name = 
REMARK  6 active torsions:
REMARK  status: ('A' for Active; 'I' for Inactive)
REMARK    1  A    between atoms: C_1  and  O_2
REMARK    2  A    between atoms: O_2  and  C_3
REMARK    3  A    between atoms: C_6  and  C_7
REMARK    4  A    between atoms: C_10  and  N_11
REMARK    5  A    between atoms: N_11  and  C_12
REMARK    6  A    between atoms: C_12  and  C_13
REMARK                            x       y       z     vdW  Elec       q    Type
REMARK                         _______ _______ _______ _____ _____    ______ ____
ROOT
ATOM      1  C   UNL     1      45.799   3.876   8.053  0.00  0.00    +0.000 A 
ATOM      2  C   UNL     1      45.235   2.663   8.358  0.00  0.00    +0.000 A 
ATOM      3  C   UNL     1      44.499   2.572   9.537  0.00  0.00    +0.000 A 
ATOM      4  C   UNL     1      44.353   3.690  10.384  0.00  0.00    +0.000 A 
ATOM      5  C   UNL     1      45.009   4.880  10.018  0.00  0.00    +0.000 A 
ATOM      6  N   UNL     1      45.687   4.949   8.849  0.00  0.00    +0.000 NA
ENDROOT
BRANCH   4   7
ATOM      7  C   UNL     1      43.600   3.561  11.664  0.00  0.00    +0.000 C 
ATOM      8  N   UNL     1      43.840   2.475  12.468  0.00  0.00    +0.000 N 
ATOM      9  O   UNL     1      42.797   4.418  12.028  0.00  0.00    +0.000 OA
ATOM     10  H   UNL     1      44.472   1.713  12.276  0.00  0.00    +0.000 HD
ATOM     11  H   UNL     1      43.305   2.415  13.328  0.00  0.00    +0.000 HD
ENDBRANCH   4   7
BRANCH   1  13
ATOM     12  C   UNL     1      47.341   2.820   6.667  0.00  0.00    +0.000 C 
ATOM     13  O   UNL     1      46.536   3.978   6.896  0.00  0.00    +0.000 OA
ENDBRANCH   1  13
BRANCH   5  14
ATOM     14  N   UNL     1      44.982   6.092  10.765  0.00  0.00    +0.000 N 
ATOM     15  H   UNL     1      44.061   6.197  11.202  0.00  0.00    +0.000 HD
BRANCH  14  16
ATOM     16  C   UNL     1      46.100   6.086  11.723  0.00  0.00    +0.000 C 
BRANCH  16  17
ATOM     17  C   UNL     1      46.804   7.384  11.959  0.00  0.00    +0.000 A 
ATOM     18  C   UNL     1      48.165   7.482  11.711  0.00  0.00    +0.000 A 
ATOM     19  N   UNL     1      48.862   8.636  11.706  0.00  0.00    +0.000 NA
ATOM     20  C   UNL     1      48.140   9.738  11.944  0.00  0.00    +0.000 A 
ATOM     21  N   UNL     1      46.819   9.778  12.186  0.00  0.00    +0.000 NA
ATOM     22  C   UNL     1      46.177   8.588  12.177  0.00  0.00    +0.000 A 
ENDBRANCH  16  17
ENDBRANCH  14  16
ENDBRANCH   5  14
TORSDOF 5
ENDMDL
MODEL 6
REMARK VINA RESULT:    -6.197      2.159      5.802
REMARK INTER + INTRA:          -8.672
REMARK INTER:                  -7.914
REMARK INTRA:                  -0.759
REMARK UNBOUND:                -0.664
REMARK  Name = 
REMARK  6 active torsions:
REMARK  status: ('A' for Active; 'I' for Inactive)
REMARK    1  A    between atoms: C_1  and  O_2
REMARK    2  A    between atoms: O_2  and  C_3
REMARK    3  A    between atoms: C_6  and  C_7
REMARK    4  A    between atoms: C_10  and  N_11
REMARK    5  A    between atoms: N_11  and  C_12
REMARK    6  A    between atoms: C_12  and  C_13
REMARK                            x       y       z     vdW  Elec       q    Type
REMARK                         _______ _______ _______ _____ _____    ______ ____
ROOT
ATOM      1  C   UNL     1      44.286   4.183  12.491  0.00  0.00    +0.000 A 
ATOM      2  C   UNL     1      44.857   4.846  13.547  0.00  0.00    +0.000 A 
ATOM      3  C   UNL     1      45.805   5.824  13.258  0.00  0.00    +0.000 A 
ATOM      4  C   UNL     1      46.164   6.108  11.924  0.00  0.00    +0.000 A 
ATOM      5  C   UNL     1      45.566   5.343  10.907  0.00  0.00    +0.000 A 
ATOM      6  N   UNL     1      44.621   4.423  11.216  0.00  0.00    +0.000 NA
ENDROOT
BRANCH   4   7
ATOM      7  C   UNL     1      47.214   7.127  11.635  0.00  0.00    +0.000 C 
ATOM      8  N   UNL     1      47.243   8.279  12.381  0.00  0.00    +0.000 N 
ATOM      9  O   UNL     1      48.068   6.944  10.770  0.00  0.00    +0.000 OA
ATOM     10  H   UNL     1      46.599   8.537  13.112  0.00  0.00    +0.000 HD
ATOM     11  H   UNL     1      47.965   8.953  12.153  0.00  0.00    +0.000 HD
ENDBRANCH   4   7
BRANCH   1  13
ATOM     12  C   UNL     1      43.337   2.186  11.764  0.00  0.00    +0.000 C 
ATOM     13  O   UNL     1      43.355   3.207  12.763  0.00  0.00    +0.000 OA
ENDBRANCH   1  13
BRANCH   5  14
ATOM     14  N   UNL     1      45.827   5.484   9.514  0.00  0.00    +0.000 N 
ATOM     15  H   UNL     1      46.834   5.387   9.350  0.00  0.00    +0.000 HD
BRANCH  14  16
ATOM     16  C   UNL     1      45.005   4.513   8.774  0.00  0.00    +0.000 C 
BRANCH  16  17
ATOM     17  C   UNL     1      45.716   3.358   8.143  0.00  0.00    +0.000 A 
ATOM     18  C   UNL     1      46.749   3.594   7.247  0.00  0.00    +0.000 A 
ATOM     19  N   UNL     1      47.577   2.646   6.766  0.00  0.00    +0.000 NA
ATOM     20  C   UNL     1      47.360   1.410   7.232  0.00  0.00    +0.000 A 
ATOM     21  N   UNL     1      46.405   1.054   8.108  0.00  0.00    +0.000 NA
ATOM     22  C   UNL     1      45.606   2.050   8.553  0.00  0.00    +0.000 A 
ENDBRANCH  16  17
ENDBRANCH  14  16
ENDBRANCH   5  14
TORSDOF 5
ENDMDL
MODEL 7
REMARK VINA RESULT:    -6.087      3.181      5.207
REMARK INTER + INTRA:          -8.530
REMARK INTER:                  -7.824
REMARK INTRA:                  -0.706
REMARK UNBOUND:                -0.664
REMARK  Name = 
REMARK  6 active torsions:
REMARK  status: ('A' for Active; 'I' for Inactive)
REMARK    1  A    between atoms: C_1  and  O_2
REMARK    2  A    between atoms: O_2  and  C_3
REMARK    3  A    between atoms: C_6  and  C_7
REMARK    4  A    between atoms: C_10  and  N_11
REMARK    5  A    between atoms: N_11  and  C_12
REMARK    6  A    between atoms: C_12  and  C_13
REMARK                            x       y       z     vdW  Elec       q    Type
REMARK                         _______ _______ _______ _____ _____    ______ ____
ROOT
ATOM      1  C   UNL     1      47.887   6.515  12.967  0.00  0.00    +0.000 A 
ATOM      2  C   UNL     1      47.029   6.681  11.910  0.00  0.00    +0.000 A 
ATOM      3  C   UNL     1      46.000   5.753  11.763  0.00  0.00    +0.000 A 
ATOM      4  C   UNL     1      45.862   4.681  12.670  0.00  0.00    +0.000 A 
ATOM      5  C   UNL     1      46.819   4.560  13.693  0.00  0.00    +0.000 A 
ATOM      6  N   UNL     1      47.786   5.497  13.832  0.00  0.00    +0.000 NA
ENDROOT
BRANCH   4   7
ATOM      7  C   UNL     1      44.783   3.672  12.471  0.00  0.00    +0.000 C 
ATOM      8  N   UNL     1      44.814   2.879  11.351  0.00  0.00    +0.000 N 
ATOM      9  O   UNL     1      43.887   3.514  13.299  0.00  0.00    +0.000 OA
ATOM     10  H   UNL     1      45.494   2.916  10.607  0.00  0.00    +0.000 HD
ATOM     11  H   UNL     1      44.061   2.209  11.243  0.00  0.00    +0.000 HD
ENDBRANCH   4   7
BRANCH   1  13
ATOM     12  C   UNL     1      49.559   7.295  14.386  0.00  0.00    +0.000 C 
ATOM     13  O   UNL     1      48.914   7.419  13.117  0.00  0.00    +0.000 OA
ENDBRANCH   1  13
BRANCH   5  14
ATOM     14  N   UNL     1      46.839   3.531  14.678  0.00  0.00    +0.000 N 
ATOM     15  H   UNL     1      47.462   2.781  14.365  0.00  0.00    +0.000 HD
BRANCH  14  16
ATOM     16  C   UNL     1      47.217   4.120  15.974  0.00  0.00    +0.000 C 
BRANCH  16  17
ATOM     17  C   UNL     1      48.441   3.576  16.639  0.00  0.00    +0.000 A 
ATOM     18  C   UNL     1      48.875   2.293  16.335  0.00  0.00    +0.000 A 
ATOM     19  N   UNL     1      50.055   1.772  16.724  0.00  0.00    +0.000 NA
ATOM     20  C   UNL     1      50.836   2.595  17.434  0.00  0.00    +0.000 A 
ATOM     21  N   UNL     1      50.538   3.858  17.782  0.00  0.00    +0.000 NA
ATOM     22  C   UNL     1      49.340   4.324  17.362  0.00  0.00    +0.000 A 
ENDBRANCH  16  17
ENDBRANCH  14  16
ENDBRANCH   5  14
TORSDOF 5
ENDMDL
MODEL 8
REMARK VINA RESULT:    -5.740      1.902      2.812
REMARK INTER + INTRA:          -8.081
REMARK INTER:                  -7.322
REMARK INTRA:                  -0.759
REMARK UNBOUND:                -0.664
REMARK  Name = 
REMARK  6 active torsions:
REMARK  status: ('A' for Active; 'I' for Inactive)
REMARK    1  A    between atoms: C_1  and  O_2
REMARK    2  A    between atoms: O_2  and  C_3
REMARK    3  A    between atoms: C_6  and  C_7
REMARK    4  A    between atoms: C_10  and  N_11
REMARK    5  A    between atoms: N_11  and  C_12
REMARK    6  A    between atoms: C_12  and  C_13
REMARK                            x       y       z     vdW  Elec       q    Type
REMARK                         _______ _______ _______ _____ _____    ______ ____
ROOT
ATOM      1  C   UNL     1      45.282   2.653   9.422  0.00  0.00    +0.000 A 
ATOM      2  C   UNL     1      44.528   3.475   8.625  0.00  0.00    +0.000 A 
ATOM      3  C   UNL     1      43.776   4.467   9.250  0.00  0.00    +0.000 A 
ATOM      4  C   UNL     1      43.791   4.606  10.653  0.00  0.00    +0.000 A 
ATOM      5  C   UNL     1      44.552   3.686  11.395  0.00  0.00    +0.000 A 
ATOM      6  N   UNL     1      45.301   2.754  10.759  0.00  0.00    +0.000 NA
ENDROOT
BRANCH   4   7
ATOM      7  C   UNL     1      42.944   5.644  11.308  0.00  0.00    +0.000 C 
ATOM      8  N   UNL     1      43.026   6.941  10.867  0.00  0.00    +0.000 N 
ATOM      9  O   UNL     1      42.156   5.359  12.209  0.00  0.00    +0.000 OA
ATOM     10  H   UNL     1      43.631   7.292  10.141  0.00  0.00    +0.000 HD
ATOM     11  H   UNL     1      42.442   7.623  11.340  0.00  0.00    +0.000 HD
ENDBRANCH   4   7
BRANCH   1  13
ATOM     12  C   UNL     1      46.618   2.103   7.598  0.00  0.00    +0.000 C 
ATOM     13  O   UNL     1      46.022   1.662   8.819  0.00  0.00    +0.000 OA
ENDBRANCH   1  13
BRANCH   5  14
ATOM     14  N   UNL     1      44.663   3.670  12.816  0.00  0.00    +0.000 N 
ATOM     15  H   UNL     1      44.453   2.727  13.157  0.00  0.00    +0.000 HD
BRANCH  14  16
ATOM     16  C   UNL     1      45.998   4.160  13.195  0.00  0.00    +0.000 C 
BRANCH  16  17
ATOM     17  C   UNL     1      46.263   5.621  13.022  0.00  0.00    +0.000 A 
ATOM     18  C   UNL     1      47.400   6.037  12.342  0.00  0.00    +0.000 A 
ATOM     19  N   UNL     1      47.644   7.307  11.965  0.00  0.00    +0.000 NA
ATOM     20  C   UNL     1      46.685   8.188  12.271  0.00  0.00    +0.000 A 
ATOM     21  N   UNL     1      45.537   7.911  12.913  0.00  0.00    +0.000 NA
ATOM     22  C   UNL     1      45.350   6.619  13.266  0.00  0.00    +0.000 A 
ENDBRANCH  16  17
ENDBRANCH  14  16
ENDBRANCH   5  14
TORSDOF 5
ENDMDL
MODEL 9
REMARK VINA RESULT:    -5.701      2.909      4.872
REMARK INTER + INTRA:          -8.031
REMARK INTER:                  -7.390
REMARK INTRA:                  -0.641
REMARK UNBOUND:                -0.664
REMARK  Name = 
REMARK  6 active torsions:
REMARK  status: ('A' for Active; 'I' for Inactive)
REMARK    1  A    between atoms: C_1  and  O_2
REMARK    2  A    between atoms: O_2  and  C_3
REMARK    3  A    between atoms: C_6  and  C_7
REMARK    4  A    between atoms: C_10  and  N_11
REMARK    5  A    between atoms: N_11  and  C_12
REMARK    6  A    between atoms: C_12  and  C_13
REMARK                            x       y       z     vdW  Elec       q    Type
REMARK                         _______ _______ _______ _____ _____    ______ ____
ROOT
ATOM      1  C   UNL     1      45.000   4.529  11.702  0.00  0.00    +0.000 A 
ATOM      2  C   UNL     1      44.417   5.576  11.034  0.00  0.00    +0.000 A 
ATOM      3  C   UNL     1      44.732   6.866  11.455  0.00  0.00    +0.000 A 
ATOM      4  C   UNL     1      45.613   7.075  12.537  0.00  0.00    +0.000 A 
ATOM      5  C   UNL     1      46.124   5.943  13.196  0.00  0.00    +0.000 A 
ATOM      6  N   UNL     1      45.828   4.703  12.742  0.00  0.00    +0.000 NA
ENDROOT
BRANCH   4   7
ATOM      7  C   UNL     1      45.903   8.462  13.003  0.00  0.00    +0.000 C 
ATOM      8  N   UNL     1      44.917   9.412  12.913  0.00  0.00    +0.000 N 
ATOM      9  O   UNL     1      46.990   8.763  13.492  0.00  0.00    +0.000 OA
ATOM     10  H   UNL     1      43.991   9.283  12.533  0.00  0.00    +0.000 HD
ATOM     11  H   UNL     1      45.150  10.346  13.232  0.00  0.00    +0.000 HD
ENDBRANCH   4   7
BRANCH   1  13
ATOM     12  C   UNL     1      43.382   2.858  11.720  0.00  0.00    +0.000 C 
ATOM     13  O   UNL     1      44.690   3.250  11.302  0.00  0.00    +0.000 OA
ENDBRANCH   1  13
BRANCH   5  14
ATOM     14  N   UNL     1      47.006   5.974  14.314  0.00  0.00    +0.000 N 
ATOM     15  H   UNL     1      46.693   6.698  14.967  0.00  0.00    +0.000 HD
BRANCH  14  16
ATOM     16  C   UNL     1      47.077   4.627  14.903  0.00  0.00    +0.000 C 
BRANCH  16  17
ATOM     17  C   UNL     1      47.667   4.512  16.272  0.00  0.00    +0.000 A 
ATOM     18  C   UNL     1      47.471   3.352  17.008  0.00  0.00    +0.000 A 
ATOM     19  N   UNL     1      48.104   3.061  18.162  0.00  0.00    +0.000 NA
ATOM     20  C   UNL     1      48.988   3.978  18.574  0.00  0.00    +0.000 A 
ATOM     21  N   UNL     1      49.277   5.131  17.948  0.00  0.00    +0.000 NA
ATOM     22  C   UNL     1      48.609   5.366  16.796  0.00  0.00    +0.000 A 
ENDBRANCH  16  17
ENDBRANCH  14  16
ENDBRANCH   5  14
TORSDOF 5
ENDMDL
