MODEL 1
REMARK VINA RESULT:    -8.523      0.000      0.000
REMARK INTER + INTRA:         -10.845
REMARK INTER:                 -10.516
REMARK INTRA:                  -0.328
REMARK UNBOUND:                -0.328
REMARK  Name = 
REMARK  4 active torsions:
REMARK  status: ('A' for Active; 'I' for Inactive)
REMARK    1  A    between atoms: C_2  and  C_4
REMARK    2  A    between atoms: C_8  and  C_9
REMARK    3  A    between atoms: C_9  and  N_10
REMARK    4  A    between atoms: C_13  and  C_14
REMARK                            x       y       z     vdW  Elec       q    Type
REMARK                         _______ _______ _______ _____ _____    ______ ____
ROOT
ATOM      1  N   UNL     1      45.260   2.823  11.938  0.00  0.00    +0.000 N 
ATOM      2  C   UNL     1      45.890   3.903  12.569  0.00  0.00    +0.000 A 
ATOM      3  C   UNL     1      46.462   3.677  13.822  0.00  0.00    +0.000 A 
ATOM      4  C   UNL     1      47.086   4.718  14.525  0.00  0.00    +0.000 A 
ATOM      5  C   UNL     1      47.148   5.958  13.880  0.00  0.00    +0.000 A 
ATOM      6  C   UNL     1      46.579   6.095  12.624  0.00  0.00    +0.000 A 
ATOM      7  N   UNL     1      45.951   5.102  11.967  0.00  0.00    +0.000 NA
ATOM      8  H   UNL     1      45.977   2.194  11.586  0.00  0.00    +0.000 HD
ENDROOT
BRANCH   4   9
ATOM      9  C   UNL     1      47.639   4.517  15.883  0.00  0.00    +0.000 A 
ATOM     10  C   UNL     1      47.537   3.293  16.561  0.00  0.00    +0.000 A 
ATOM     11  C   UNL     1      48.066   3.138  17.843  0.00  0.00    +0.000 A 
ATOM     12  C   UNL     1      48.701   4.217  18.427  0.00  0.00    +0.000 A 
ATOM     13  N   UNL     1      48.827   5.418  17.827  0.00  0.00    +0.000 NA
ATOM     14  C   UNL     1      48.292   5.534  16.585  0.00  0.00    +0.000 A 
ENDBRANCH   4   9
BRANCH   1  15
ATOM     15  C   UNL     1      44.303   3.204  10.912  0.00  0.00    +0.000 C 
BRANCH  15  20
ATOM     16  C   UNL     1      46.332   2.098   7.873  0.00  0.00    +0.000 A 
ATOM     17  C   UNL     1      46.352   3.306   7.188  0.00  0.00    +0.000 A 
ATOM     18  N   UNL     1      45.717   4.422   7.615  0.00  0.00    +0.000 NA
ATOM     19  C   UNL     1      45.059   4.330   8.793  0.00  0.00    +0.000 A 
ATOM     20  C   UNL     1      44.991   3.174   9.571  0.00  0.00    +0.000 A 
ATOM     21  C   UNL     1      45.646   2.034   9.090  0.00  0.00    +0.000 A 
BRANCH  16  23
ATOM     22  N   UNL     1      46.679  -0.300   7.684  0.00  0.00    +0.000 N 
ATOM     23  C   UNL     1      47.072   0.953   7.304  0.00  0.00    +0.000 C 
ATOM     24  O   UNL     1      47.977   1.114   6.496  0.00  0.00    +0.000 OA
ATOM     25  H   UNL     1      47.125  -1.070   7.200  0.00  0.00    +0.000 HD
ATOM     26  H   UNL     1      45.788  -0.479   8.126  0.00  0.00    +0.000 HD
ENDBRANCH  16  23
ENDBRANCH  15  20
ENDBRANCH   1  15
TORSDOF 4
ENDMDL
MODEL 2
REMARK VINA RESULT:    -8.492      2.465      3.635
REMARK INTER + INTRA:         -10.805
REMARK INTER:                 -10.145
REMARK INTRA:                  -0.661
REMARK UNBOUND:                -0.328
REMARK  Name = 
REMARK  4 active torsions:
REMARK  status: ('A' for Active; 'I' for Inactive)
REMARK    1  A    between atoms: C_2  and  C_4
REMARK    2  A    between atoms: C_8  and  C_9
REMARK    3  A    between atoms: C_9  and  N_10
REMARK    4  A    between atoms: C_13  and  C_14
REMARK                            x       y       z     vdW  Elec       q    Type
REMARK                         _______ _______ _______ _____ _____    ______ ____
ROOT
ATOM      1  N   UNL     1      44.873   5.571   9.830  0.00  0.00    +0.000 N 
ATOM      2  C   UNL     1      45.465   5.493  11.097  0.00  0.00    +0.000 A 
ATOM      3  C   UNL     1      46.587   6.289  11.338  0.00  0.00    +0.000 A 
ATOM      4  C   UNL     1      47.248   6.243  12.573  0.00  0.00    +0.000 A 
ATOM      5  C   UNL     1      46.691   5.409  13.549  0.00  0.00    +0.000 A 
ATOM      6  C   UNL     1      45.560   4.671  13.241  0.00  0.00    +0.000 A 
ATOM      7  N   UNL     1      44.949   4.691  12.042  0.00  0.00    +0.000 NA
ATOM      8  H   UNL     1      44.363   6.449   9.768  0.00  0.00    +0.000 HD
ENDROOT
BRANCH   4   9
ATOM      9  C   UNL     1      48.478   7.026  12.827  0.00  0.00    +0.000 A 
ATOM     10  C   UNL     1      49.157   7.708  11.805  0.00  0.00    +0.000 A 
ATOM     11  C   UNL     1      50.316   8.435  12.077  0.00  0.00    +0.000 A 
ATOM     12  C   UNL     1      50.777   8.475  13.380  0.00  0.00    +0.000 A 
ATOM     13  N   UNL     1      50.170   7.839  14.401  0.00  0.00    +0.000 NA
ATOM     14  C   UNL     1      49.051   7.134  14.098  0.00  0.00    +0.000 A 
ENDBRANCH   4   9
BRANCH   1  15
ATOM     15  C   UNL     1      44.050   4.424   9.482  0.00  0.00    +0.000 C 
BRANCH  15  20
ATOM     16  C   UNL     1      46.514   2.581   7.222  0.00  0.00    +0.000 A 
ATOM     17  C   UNL     1      46.354   1.302   7.742  0.00  0.00    +0.000 A 
ATOM     18  N   UNL     1      45.552   1.014   8.794  0.00  0.00    +0.000 NA
ATOM     19  C   UNL     1      44.860   2.047   9.327  0.00  0.00    +0.000 A 
ATOM     20  C   UNL     1      44.930   3.364   8.871  0.00  0.00    +0.000 A 
ATOM     21  C   UNL     1      45.783   3.627   7.793  0.00  0.00    +0.000 A 
BRANCH  16  23
ATOM     22  N   UNL     1      48.753   2.573   6.279  0.00  0.00    +0.000 N 
ATOM     23  C   UNL     1      47.416   2.762   6.067  0.00  0.00    +0.000 C 
ATOM     24  O   UNL     1      46.985   3.037   4.955  0.00  0.00    +0.000 OA
ATOM     25  H   UNL     1      49.340   2.595   5.453  0.00  0.00    +0.000 HD
ATOM     26  H   UNL     1      49.112   2.096   7.094  0.00  0.00    +0.000 HD
ENDBRANCH  16  23
ENDBRANCH  15  20
ENDBRANCH   1  15
TORSDOF 4
ENDMDL
MODEL 3
REMARK VINA RESULT:    -7.791      2.123      3.410
REMARK INTER + INTRA:          -9.941
REMARK INTER:                  -9.430
REMARK INTRA:                  -0.511
REMARK UNBOUND:                -0.328
REMARK  Name = 
REMARK  4 active torsions:
REMARK  status: ('A' for Active; 'I' for Inactive)
REMARK    1  A    between atoms: C_2  and  C_4
REMARK    2  A    between atoms: C_8  and  C_9
REMARK    3  A    between atoms: C_9  and  N_10
REMARK    4  A    between atoms: C_13  and  C_14
REMARK                            x       y       z     vdW  Elec       q    Type
REMARK                         _______ _______ _______ _____ _____    ______ ____
ROOT
ATOM      1  N   UNL     1      44.316   4.971  11.025  0.00  0.00    +0.000 N 
ATOM      2  C   UNL     1      45.326   5.088  11.989  0.00  0.00    +0.000 A 
ATOM      3  C   UNL     1      45.834   6.363  12.244  0.00  0.00    +0.000 A 
ATOM      4  C   UNL     1      46.864   6.552  13.176  0.00  0.00    +0.000 A 
ATOM      5  C   UNL     1      47.303   5.414  13.862  0.00  0.00    +0.000 A 
ATOM      6  C   UNL     1      46.730   4.187  13.570  0.00  0.00    +0.000 A 
ATOM      7  N   UNL     1      45.765   4.004  12.650  0.00  0.00    +0.000 NA
ATOM      8  H   UNL     1      43.450   5.324  11.423  0.00  0.00    +0.000 HD
ENDROOT
BRANCH   4   9
ATOM      9  C   UNL     1      47.464   7.884  13.413  0.00  0.00    +0.000 A 
ATOM     10  C   UNL     1      47.372   8.925  12.476  0.00  0.00    +0.000 A 
ATOM     11  C   UNL     1      47.952  10.169  12.729  0.00  0.00    +0.000 A 
ATOM     12  C   UNL     1      48.612  10.355  13.928  0.00  0.00    +0.000 A 
ATOM     13  N   UNL     1      48.737   9.393  14.864  0.00  0.00    +0.000 NA
ATOM     14  C   UNL     1      48.169   8.194  14.580  0.00  0.00    +0.000 A 
ENDBRANCH   4   9
BRANCH   1  15
ATOM     15  C   UNL     1      44.170   3.636  10.469  0.00  0.00    +0.000 C 
BRANCH  15  20
ATOM     16  C   UNL     1      46.463   2.231   7.760  0.00  0.00    +0.000 A 
ATOM     17  C   UNL     1      46.852   3.431   7.177  0.00  0.00    +0.000 A 
ATOM     18  N   UNL     1      46.386   4.641   7.565  0.00  0.00    +0.000 NA
ATOM     19  C   UNL     1      45.516   4.649   8.601  0.00  0.00    +0.000 A 
ATOM     20  C   UNL     1      45.075   3.507   9.271  0.00  0.00    +0.000 A 
ATOM     21  C   UNL     1      45.565   2.272   8.831  0.00  0.00    +0.000 A 
BRANCH  16  23
ATOM     22  N   UNL     1      46.599  -0.194   7.788  0.00  0.00    +0.000 N 
ATOM     23  C   UNL     1      47.050   0.977   7.247  0.00  0.00    +0.000 C 
ATOM     24  O   UNL     1      47.882   0.979   6.349  0.00  0.00    +0.000 OA
ATOM     25  H   UNL     1      46.933  -1.043   7.347  0.00  0.00    +0.000 HD
ATOM     26  H   UNL     1      45.745  -0.251   8.324  0.00  0.00    +0.000 HD
ENDBRANCH  16  23
ENDBRANCH  15  20
ENDBRANCH   1  15
TORSDOF 4
ENDMDL
MODEL 4
REMARK VINA RESULT:    -7.502      2.808      7.873
REMARK INTER + INTRA:          -9.584
REMARK INTER:                  -9.076
REMARK INTRA:                  -0.508
REMARK UNBOUND:                -0.328
REMARK  Name = 
REMARK  4 active torsions:
REMARK  status: ('A' for Active; 'I' for Inactive)
REMARK    1  A    between atoms: C_2  and  C_4
REMARK    2  A    between atoms: C_8  and  C_9
REMARK    3  A    between atoms: C_9  and  N_10
REMARK    4  A    between atoms: C_13  and  C_14
REMARK                            x       y       z     vdW  Elec       q    Type
REMARK                         _______ _______ _______ _____ _____    ______ ____
ROOT
ATOM      1  N   UNL     1      45.071   2.865  12.383  0.00  0.00    +0.000 N 
ATOM      2  C   UNL     1      44.818   3.339  11.090  0.00  0.00    +0.000 A 
ATOM      3  C   UNL     1      45.565   2.797  10.043  0.00  0.00    +0.000 A 
ATOM      4  C   UNL     1      45.385   3.242   8.725  0.00  0.00    +0.000 A 
ATOM      5  C   UNL     1      44.390   4.205   8.522  0.00  0.00    +0.000 A 
ATOM      6  C   UNL     1      43.672   4.674   9.610  0.00  0.00    +0.000 A 
ATOM      7  N   UNL     1      43.872   4.269  10.878  0.00  0.00    +0.000 NA
ATOM      8  H   UNL     1      44.667   1.936  12.469  0.00  0.00    +0.000 HD
ENDROOT
BRANCH   4   9
ATOM      9  C   UNL     1      46.213   2.730   7.611  0.00  0.00    +0.000 A 
ATOM     10  C   UNL     1      46.381   3.441   6.412  0.00  0.00    +0.000 A 
ATOM     11  C   UNL     1      47.166   2.928   5.379  0.00  0.00    +0.000 A 
ATOM     12  C   UNL     1      47.783   1.706   5.567  0.00  0.00    +0.000 A 
ATOM     13  N   UNL     1      47.656   0.976   6.693  0.00  0.00    +0.000 NA
ATOM     14  C   UNL     1      46.878   1.502   7.672  0.00  0.00    +0.000 A 
ENDBRANCH   4   9
BRANCH   1  15
ATOM     15  C   UNL     1      44.640   3.760  13.444  0.00  0.00    +0.000 C 
BRANCH  15  20
ATOM     16  C   UNL     1      46.761   6.932  13.323  0.00  0.00    +0.000 A 
ATOM     17  C   UNL     1      47.842   6.486  14.072  0.00  0.00    +0.000 A 
ATOM     18  N   UNL     1      47.903   5.263  14.649  0.00  0.00    +0.000 NA
ATOM     19  C   UNL     1      46.848   4.442  14.439  0.00  0.00    +0.000 A 
ATOM     20  C   UNL     1      45.722   4.781  13.687  0.00  0.00    +0.000 A 
ATOM     21  C   UNL     1      45.686   6.060  13.121  0.00  0.00    +0.000 A 
BRANCH  16  23
ATOM     22  N   UNL     1      45.865   9.183  13.138  0.00  0.00    +0.000 N 
ATOM     23  C   UNL     1      46.820   8.289  12.742  0.00  0.00    +0.000 C 
ATOM     24  O   UNL     1      47.707   8.614  11.963  0.00  0.00    +0.000 OA
ATOM     25  H   UNL     1      45.988  10.135  12.813  0.00  0.00    +0.000 HD
ATOM     26  H   UNL     1      45.294   9.040  13.959  0.00  0.00    +0.000 HD
ENDBRANCH  16  23
ENDBRANCH  15  20
ENDBRANCH   1  15
TORSDOF 4
ENDMDL
MODEL 5
REMARK VINA RESULT:    -7.491      2.624      3.953
REMARK INTER + INTRA:          -9.571
REMARK INTER:                  -9.038
REMARK INTRA:                  -0.533
REMARK UNBOUND:                -0.328
REMARK  Name = 
REMARK  4 active torsions:
REMARK  status: ('A' for Active; 'I' for Inactive)
REMARK    1  A    between atoms: C_2  and  C_4
REMARK    2  A    between atoms: C_8  and  C_9
REMARK    3  A    between atoms: C_9  and  N_10
REMARK    4  A    between atoms: C_13  and  C_14
REMARK                            x       y       z     vdW  Elec       q    Type
REMARK                         _______ _______ _______ _____ _____    ______ ____
ROOT
ATOM      1  N   UNL     1      44.586   6.429  10.927  0.00  0.00    +0.000 N 
ATOM      2  C   UNL     1      45.538   6.166  11.920  0.00  0.00    +0.000 A 
ATOM      3  C   UNL     1      46.751   6.854  11.853  0.00  0.00    +0.000 A 
ATOM      4  C   UNL     1      47.762   6.621  12.796  0.00  0.00    +0.000 A 
ATOM      5  C   UNL     1      47.464   5.716  13.821  0.00  0.00    +0.000 A 
ATOM      6  C   UNL     1      46.226   5.093  13.833  0.00  0.00    +0.000 A 
ATOM      7  N   UNL     1      45.271   5.293  12.905  0.00  0.00    +0.000 NA
ATOM      8  H   UNL     1      44.172   7.339  11.113  0.00  0.00    +0.000 HD
ENDROOT
BRANCH   4   9
ATOM      9  C   UNL     1      49.079   7.288  12.706  0.00  0.00    +0.000 A 
ATOM     10  C   UNL     1      49.673   7.612  11.476  0.00  0.00    +0.000 A 
ATOM     11  C   UNL     1      50.919   8.239  11.425  0.00  0.00    +0.000 A 
ATOM     12  C   UNL     1      51.552   8.541  12.616  0.00  0.00    +0.000 A 
ATOM     13  N   UNL     1      51.034   8.252  13.826  0.00  0.00    +0.000 NA
ATOM     14  C   UNL     1      49.826   7.634  13.836  0.00  0.00    +0.000 A 
ENDBRANCH   4   9
BRANCH   1  15
ATOM     15  C   UNL     1      43.586   5.386  10.764  0.00  0.00    +0.000 C 
BRANCH  15  20
ATOM     16  C   UNL     1      45.548   3.224   8.304  0.00  0.00    +0.000 A 
ATOM     17  C   UNL     1      45.178   1.975   8.787  0.00  0.00    +0.000 A 
ATOM     18  N   UNL     1      44.390   1.792   9.872  0.00  0.00    +0.000 NA
ATOM     19  C   UNL     1      43.930   2.910  10.480  0.00  0.00    +0.000 A 
ATOM     20  C   UNL     1      44.222   4.210  10.066  0.00  0.00    +0.000 A 
ATOM     21  C   UNL     1      45.054   4.361   8.951  0.00  0.00    +0.000 A 
BRANCH  16  23
ATOM     22  N   UNL     1      46.947   2.115   6.655  0.00  0.00    +0.000 N 
ATOM     23  C   UNL     1      46.410   3.288   7.106  0.00  0.00    +0.000 C 
ATOM     24  O   UNL     1      46.610   4.343   6.517  0.00  0.00    +0.000 OA
ATOM     25  H   UNL     1      47.442   2.165   5.773  0.00  0.00    +0.000 HD
ATOM     26  H   UNL     1      46.598   1.212   6.945  0.00  0.00    +0.000 HD
ENDBRANCH  16  23
ENDBRANCH  15  20
ENDBRANCH   1  15
TORSDOF 4
ENDMDL
MODEL 6
REMARK VINA RESULT:    -6.964      2.911      8.285
REMARK INTER + INTRA:          -8.921
REMARK INTER:                  -8.405
REMARK INTRA:                  -0.516
REMARK UNBOUND:                -0.328
REMARK  Name = 
REMARK  4 active torsions:
REMARK  status: ('A' for Active; 'I' for Inactive)
REMARK    1  A    between atoms: C_2  and  C_4
REMARK    2  A    between atoms: C_8  and  C_9
REMARK    3  A    between atoms: C_9  and  N_10
REMARK    4  A    between atoms: C_13  and  C_14
REMARK                            x       y       z     vdW  Elec       q    Type
REMARK                         _______ _______ _______ _____ _____    ______ ____
ROOT
ATOM      1  N   UNL     1      45.612   3.368  12.865  0.00  0.00    +0.000 N 
ATOM      2  C   UNL     1      45.132   3.678  11.587  0.00  0.00    +0.000 A 
ATOM      3  C   UNL     1      45.739   3.052  10.497  0.00  0.00    +0.000 A 
ATOM      4  C   UNL     1      45.329   3.335   9.186  0.00  0.00    +0.000 A 
ATOM      5  C   UNL     1      44.256   4.222   9.045  0.00  0.00    +0.000 A 
ATOM      6  C   UNL     1      43.688   4.781  10.178  0.00  0.00    +0.000 A 
ATOM      7  N   UNL     1      44.108   4.535  11.433  0.00  0.00    +0.000 NA
ATOM      8  H   UNL     1      45.285   2.438  13.115  0.00  0.00    +0.000 HD
ENDROOT
BRANCH   4   9
ATOM      9  C   UNL     1      46.003   2.735   8.014  0.00  0.00    +0.000 A 
ATOM     10  C   UNL     1      46.228   3.452   6.828  0.00  0.00    +0.000 A 
ATOM     11  C   UNL     1      46.864   2.856   5.740  0.00  0.00    +0.000 A 
ATOM     12  C   UNL     1      47.276   1.542   5.858  0.00  0.00    +0.000 A 
ATOM     13  N   UNL     1      47.085   0.801   6.967  0.00  0.00    +0.000 NA
ATOM     14  C   UNL     1      46.455   1.411   8.002  0.00  0.00    +0.000 A 
ENDBRANCH   4   9
BRANCH   1  15
ATOM     15  C   UNL     1      45.296   4.360  13.881  0.00  0.00    +0.000 C 
BRANCH  15  20
ATOM     16  C   UNL     1      48.114   4.672  16.438  0.00  0.00    +0.000 A 
ATOM     17  C   UNL     1      48.828   5.699  15.834  0.00  0.00    +0.000 A 
ATOM     18  N   UNL     1      48.490   6.251  14.645  0.00  0.00    +0.000 NA
ATOM     19  C   UNL     1      47.372   5.772  14.053  0.00  0.00    +0.000 A 
ATOM     20  C   UNL     1      46.570   4.759  14.581  0.00  0.00    +0.000 A 
ATOM     21  C   UNL     1      46.960   4.200  15.803  0.00  0.00    +0.000 A 
BRANCH  16  23
ATOM     22  N   UNL     1      47.714   3.395  18.466  0.00  0.00    +0.000 N 
ATOM     23  C   UNL     1      48.585   4.159  17.741  0.00  0.00    +0.000 C 
ATOM     24  O   UNL     1      49.720   4.378  18.143  0.00  0.00    +0.000 OA
ATOM     25  H   UNL     1      48.093   2.964  19.301  0.00  0.00    +0.000 HD
ATOM     26  H   UNL     1      46.888   2.979  18.060  0.00  0.00    +0.000 HD
ENDBRANCH  16  23
ENDBRANCH  15  20
ENDBRANCH   1  15
TORSDOF 4
ENDMDL
MODEL 7
REMARK VINA RESULT:    -6.683      3.262      8.731
REMARK INTER + INTRA:          -8.573
REMARK INTER:                  -8.090
REMARK INTRA:                  -0.483
REMARK UNBOUND:                -0.328
REMARK  Name = 
REMARK  4 active torsions:
REMARK  status: ('A' for Active; 'I' for Inactive)
REMARK    1  A    between atoms: C_2  and  C_4
REMARK    2  A    between atoms: C_8  and  C_9
REMARK    3  A    between atoms: C_9  and  N_10
REMARK    4  A    between atoms: C_13  and  C_14
REMARK                            x       y       z     vdW  Elec       q    Type
REMARK                         _______ _______ _______ _____ _____    ______ ____
ROOT
ATOM      1  N   UNL     1      47.738   6.009  14.428  0.00  0.00    +0.000 N 
ATOM      2  C   UNL     1      46.876   6.380  13.389  0.00  0.00    +0.000 A 
ATOM      3  C   UNL     1      46.456   5.382  12.507  0.00  0.00    +0.000 A 
ATOM      4  C   UNL     1      45.615   5.685  11.427  0.00  0.00    +0.000 A 
ATOM      5  C   UNL     1      45.184   7.013  11.324  0.00  0.00    +0.000 A 
ATOM      6  C   UNL     1      45.624   7.939  12.255  0.00  0.00    +0.000 A 
ATOM      7  N   UNL     1      46.460   7.652  13.270  0.00  0.00    +0.000 NA
ATOM      8  H   UNL     1      47.199   5.505  15.128  0.00  0.00    +0.000 HD
ENDROOT
BRANCH   4   9
ATOM      9  C   UNL     1      45.213   4.657  10.441  0.00  0.00    +0.000 A 
ATOM     10  C   UNL     1      45.559   4.744   9.084  0.00  0.00    +0.000 A 
ATOM     11  C   UNL     1      45.162   3.759   8.180  0.00  0.00    +0.000 A 
ATOM     12  C   UNL     1      44.425   2.690   8.653  0.00  0.00    +0.000 A 
ATOM     13  N   UNL     1      44.060   2.554   9.943  0.00  0.00    +0.000 NA
ATOM     14  C   UNL     1      44.456   3.535  10.792  0.00  0.00    +0.000 A 
ENDBRANCH   4   9
BRANCH   1  15
ATOM     15  C   UNL     1      48.498   7.109  14.998  0.00  0.00    +0.000 C 
BRANCH  15  20
ATOM     16  C   UNL     1      48.810   5.336  18.365  0.00  0.00    +0.000 A 
ATOM     17  C   UNL     1      49.127   6.438  19.149  0.00  0.00    +0.000 A 
ATOM     18  N   UNL     1      49.295   7.687  18.657  0.00  0.00    +0.000 NA
ATOM     19  C   UNL     1      49.108   7.843  17.326  0.00  0.00    +0.000 A 
ATOM     20  C   UNL     1      48.768   6.811  16.451  0.00  0.00    +0.000 A 
ATOM     21  C   UNL     1      48.619   5.529  16.992  0.00  0.00    +0.000 A 
BRANCH  16  23
ATOM     22  N   UNL     1      48.606   4.011  20.391  0.00  0.00    +0.000 N 
ATOM     23  C   UNL     1      48.648   4.025  19.025  0.00  0.00    +0.000 C 
ATOM     24  O   UNL     1      48.521   2.993  18.378  0.00  0.00    +0.000 OA
ATOM     25  H   UNL     1      48.386   3.120  20.818  0.00  0.00    +0.000 HD
ATOM     26  H   UNL     1      48.441   4.844  20.938  0.00  0.00    +0.000 HD
ENDBRANCH  16  23
ENDBRANCH  15  20
ENDBRANCH   1  15
TORSDOF 4
ENDMDL
MODEL 8
REMARK VINA RESULT:    -6.594      4.065      5.897
REMARK INTER + INTRA:          -8.464
REMARK INTER:                  -7.819
REMARK INTRA:                  -0.645
REMARK UNBOUND:                -0.328
REMARK  Name = 
REMARK  4 active torsions:
REMARK  status: ('A' for Active; 'I' for Inactive)
REMARK    1  A    between atoms: C_2  and  C_4
REMARK    2  A    between atoms: C_8  and  C_9
REMARK    3  A    between atoms: C_9  and  N_10
REMARK    4  A    between atoms: C_13  and  C_14
REMARK                            x       y       z     vdW  Elec       q    Type
REMARK                         _______ _______ _______ _____ _____    ______ ____
ROOT
ATOM      1  N   UNL     1      46.211   7.657  12.119  0.00  0.00    +0.000 N 
ATOM      2  C   UNL     1      47.525   7.664  12.604  0.00  0.00    +0.000 A 
ATOM      3  C   UNL     1      48.540   8.036  11.720  0.00  0.00    +0.000 A 
ATOM      4  C   UNL     1      49.882   8.040  12.127  0.00  0.00    +0.000 A 
ATOM      5  C   UNL     1      50.130   7.710  13.464  0.00  0.00    +0.000 A 
ATOM      6  C   UNL     1      49.065   7.378  14.286  0.00  0.00    +0.000 A 
ATOM      7  N   UNL     1      47.781   7.341  13.882  0.00  0.00    +0.000 NA
ATOM      8  H   UNL     1      45.895   8.620  12.035  0.00  0.00    +0.000 HD
ENDROOT
BRANCH   4   9
ATOM      9  C   UNL     1      50.979   8.365  11.189  0.00  0.00    +0.000 A 
ATOM     10  C   UNL     1      51.637   7.381  10.435  0.00  0.00    +0.000 A 
ATOM     11  C   UNL     1      52.670   7.720   9.561  0.00  0.00    +0.000 A 
ATOM     12  C   UNL     1      53.026   9.051   9.449  0.00  0.00    +0.000 A 
ATOM     13  N   UNL     1      52.434  10.039  10.148  0.00  0.00    +0.000 NA
ATOM     14  C   UNL     1      51.439   9.670  10.995  0.00  0.00    +0.000 A 
ENDBRANCH   4   9
BRANCH   1  15
ATOM     15  C   UNL     1      45.292   6.835  12.890  0.00  0.00    +0.000 C 
BRANCH  15  20
ATOM     16  C   UNL     1      44.883   4.315  10.052  0.00  0.00    +0.000 A 
ATOM     17  C   UNL     1      44.209   3.323  10.753  0.00  0.00    +0.000 A 
ATOM     18  N   UNL     1      43.931   3.394  12.076  0.00  0.00    +0.000 NA
ATOM     19  C   UNL     1      44.319   4.522  12.715  0.00  0.00    +0.000 A 
ATOM     20  C   UNL     1      44.982   5.587  12.104  0.00  0.00    +0.000 A 
ATOM     21  C   UNL     1      45.268   5.471  10.739  0.00  0.00    +0.000 A 
BRANCH  16  23
ATOM     22  N   UNL     1      44.286   3.261   7.945  0.00  0.00    +0.000 N 
ATOM     23  C   UNL     1      45.120   4.118   8.608  0.00  0.00    +0.000 C 
ATOM     24  O   UNL     1      46.004   4.724   8.015  0.00  0.00    +0.000 OA
ATOM     25  H   UNL     1      44.397   3.225   6.939  0.00  0.00    +0.000 HD
ATOM     26  H   UNL     1      43.402   2.959   8.329  0.00  0.00    +0.000 HD
ENDBRANCH  16  23
ENDBRANCH  15  20
ENDBRANCH   1  15
TORSDOF 4
ENDMDL
MODEL 9
REMARK VINA RESULT:    -6.563      3.479      5.175
REMARK INTER + INTRA:          -8.426
REMARK INTER:                  -7.971
REMARK INTRA:                  -0.455
REMARK UNBOUND:                -0.328
REMARK  Name = 
REMARK  4 active torsions:
REMARK  status: ('A' for Active; 'I' for Inactive)
REMARK    1  A    between atoms: C_2  and  C_4
REMARK    2  A    between atoms: C_8  and  C_9
REMARK    3  A    between atoms: C_9  and  N_10
REMARK    4  A    between atoms: C_13  and  C_14
REMARK                            x       y       z     vdW  Elec       q    Type
REMARK                         _______ _______ _______ _____ _____    ______ ____
ROOT
ATOM      1  N   UNL     1      46.572   4.320  14.895  0.00  0.00    +0.000 N 
ATOM      2  C   UNL     1      47.526   3.937  15.846  0.00  0.00    +0.000 A 
ATOM      3  C   UNL     1      47.728   4.783  16.938  0.00  0.00    +0.000 A 
ATOM      4  C   UNL     1      48.686   4.477  17.916  0.00  0.00    +0.000 A 
ATOM      5  C   UNL     1      49.373   3.268  17.761  0.00  0.00    +0.000 A 
ATOM      6  C   UNL     1      49.096   2.470  16.662  0.00  0.00    +0.000 A 
ATOM      7  N   UNL     1      48.200   2.784  15.708  0.00  0.00    +0.000 NA
ATOM      8  H   UNL     1      45.647   4.166  15.288  0.00  0.00    +0.000 HD
ENDROOT
BRANCH   4   9
ATOM      9  C   UNL     1      48.965   5.392  19.044  0.00  0.00    +0.000 A 
ATOM     10  C   UNL     1      47.963   5.816  19.932  0.00  0.00    +0.000 A 
ATOM     11  C   UNL     1      48.258   6.682  20.985  0.00  0.00    +0.000 A 
ATOM     12  C   UNL     1      49.564   7.108  21.139  0.00  0.00    +0.000 A 
ATOM     13  N   UNL     1      50.567   6.740  20.318  0.00  0.00    +0.000 NA
ATOM     14  C   UNL     1      50.241   5.904  19.300  0.00  0.00    +0.000 A 
ENDBRANCH   4   9
BRANCH   1  15
ATOM     15  C   UNL     1      46.735   3.691  13.595  0.00  0.00    +0.000 C 
BRANCH  15  20
ATOM     16  C   UNL     1      44.530   6.125  11.648  0.00  0.00    +0.000 A 
ATOM     17  C   UNL     1      43.720   5.199  11.004  0.00  0.00    +0.000 A 
ATOM     18  N   UNL     1      43.873   3.859  11.117  0.00  0.00    +0.000 NA
ATOM     19  C   UNL     1      44.863   3.431  11.934  0.00  0.00    +0.000 A 
ATOM     20  C   UNL     1      45.721   4.273  12.644  0.00  0.00    +0.000 A 
ATOM     21  C   UNL     1      45.543   5.652  12.489  0.00  0.00    +0.000 A 
BRANCH  16  23
ATOM     22  N   UNL     1      43.011   7.905  10.996  0.00  0.00    +0.000 N 
ATOM     23  C   UNL     1      44.255   7.562  11.446  0.00  0.00    +0.000 C 
ATOM     24  O   UNL     1      45.093   8.417  11.704  0.00  0.00    +0.000 OA
ATOM     25  H   UNL     1      42.808   8.898  10.970  0.00  0.00    +0.000 HD
ATOM     26  H   UNL     1      42.227   7.269  11.029  0.00  0.00    +0.000 HD
ENDBRANCH  16  23
ENDBRANCH  15  20
ENDBRANCH   1  15
TORSDOF 4
ENDMDL
