MODEL 1
REMARK VINA RESULT:    -7.320      0.000      0.000
REMARK INTER + INTRA:         -11.438
REMARK INTER:                 -10.529
REMARK INTRA:                  -0.909
REMARK UNBOUND:                -0.909
REMARK  Name = 
REMARK  9 active torsions:
REMARK  status: ('A' for Active; 'I' for Inactive)
REMARK    1  A    between atoms: C_1  and  C_2
REMARK    2  A    between atoms: C_2  and  C_3
REMARK    3  A    between atoms: C_2  and  C_20
REMARK    4  A    between atoms: C_3  and  N_4
REMARK    5  A    between atoms: N_4  and  C_5
REMARK    6  A    between atoms: C_9  and  C_10
REMARK    7  A    between atoms: C_13  and  C_14
REMARK    8  A    between atoms: C_14  and  C_15
REMARK    9  A    between atoms: C_15  and  O_16
REMARK                            x       y       z     vdW  Elec       q    Type
REMARK                         _______ _______ _______ _____ _____    ______ ____
ROOT
ATOM      1  C   UNL     1      45.325   5.706  12.199  0.00  0.00    +0.000 A 
ATOM      2  C   UNL     1      46.115   6.523  11.389  0.00  0.00    +0.000 A 
ATOM      3  N   UNL     1      47.357   6.957  11.694  0.00  0.00    +0.000 NA
ATOM      4  C   UNL     1      47.839   6.582  12.900  0.00  0.00    +0.000 A 
ATOM      5  C   UNL     1      47.160   5.790  13.829  0.00  0.00    +0.000 A 
ATOM      6  C   UNL     1      45.870   5.370  13.448  0.00  0.00    +0.000 A 
ENDROOT
BRANCH   5   7
ATOM      7  C   UNL     1      47.777   5.416  15.118  0.00  0.00    +0.000 A 
ATOM      8  C   UNL     1      47.472   4.209  15.773  0.00  0.00    +0.000 A 
ATOM      9  C   UNL     1      48.065   3.869  16.998  0.00  0.00    +0.000 A 
ATOM     10  C   UNL     1      48.971   4.738  17.613  0.00  0.00    +0.000 A 
ATOM     11  C   UNL     1      49.283   5.942  16.976  0.00  0.00    +0.000 A 
ATOM     12  C   UNL     1      48.702   6.268  15.749  0.00  0.00    +0.000 A 
BRANCH  10  13
ATOM     13  C   UNL     1      49.620   4.394  18.932  0.00  0.00    +0.000 C 
BRANCH  13  14
ATOM     14  C   UNL     1      51.103   4.049  18.800  0.00  0.00    +0.000 C 
BRANCH  14  15
ATOM     15  O   UNL     1      51.297   2.763  18.221  0.00  0.00    +0.000 OA
ATOM     16  H   UNL     1      50.457   2.282  18.319  0.00  0.00    +0.000 HD
ENDBRANCH  14  15
ENDBRANCH  13  14
ENDBRANCH  10  13
ENDBRANCH   5   7
BRANCH   1  17
ATOM     17  N   UNL     1      44.010   5.305  11.897  0.00  0.00    +0.000 N 
ATOM     18  H   UNL     1      43.693   4.591  12.551  0.00  0.00    +0.000 HD
BRANCH  17  19
ATOM     19  C   UNL     1      43.692   4.999  10.501  0.00  0.00    +0.000 C 
BRANCH  19  21
ATOM     20  C   UNL     1      43.786   2.634  11.445  0.00  0.00    +0.000 C 
ATOM     21  C   UNL     1      43.758   3.493  10.175  0.00  0.00    +0.000 C 
BRANCH  21  22
ATOM     22  C   UNL     1      44.848   3.169   9.161  0.00  0.00    +0.000 A 
ATOM     23  C   UNL     1      45.468   4.218   8.460  0.00  0.00    +0.000 A 
ATOM     24  C   UNL     1      46.469   3.966   7.520  0.00  0.00    +0.000 A 
ATOM     25  C   UNL     1      46.873   2.654   7.271  0.00  0.00    +0.000 A 
ATOM     26  C   UNL     1      46.277   1.609   7.966  0.00  0.00    +0.000 A 
ATOM     27 CL   UNL     1      46.781  -0.011   7.668  0.00  0.00    +0.000 Cl
ATOM     28  C   UNL     1      45.276   1.856   8.907  0.00  0.00    +0.000 A 
ENDBRANCH  21  22
ENDBRANCH  19  21
ENDBRANCH  17  19
ENDBRANCH   1  17
TORSDOF 8
ENDMDL
MODEL 2
REMARK VINA RESULT:    -7.294      4.753      8.110
REMARK INTER + INTRA:         -11.400
REMARK INTER:                 -10.469
REMARK INTRA:                  -0.932
REMARK UNBOUND:                -0.909
REMARK  Name = 
REMARK  9 active torsions:
REMARK  status: ('A' for Active; 'I' for Inactive)
REMARK    1  A    between atoms: C_1  and  C_2
REMARK    2  A    between atoms: C_2  and  C_3
REMARK    3  A    between atoms: C_2  and  C_20
REMARK    4  A    between atoms: C_3  and  N_4
REMARK    5  A    between atoms: N_4  and  C_5
REMARK    6  A    between atoms: C_9  and  C_10
REMARK    7  A    between atoms: C_13  and  C_14
REMARK    8  A    between atoms: C_14  and  C_15
REMARK    9  A    between atoms: C_15  and  O_16
REMARK                            x       y       z     vdW  Elec       q    Type
REMARK                         _______ _______ _______ _____ _____    ______ ____
ROOT
ATOM      1  C   UNL     1      44.321   5.814  12.462  0.00  0.00    +0.000 A 
ATOM      2  C   UNL     1      43.661   4.878  13.260  0.00  0.00    +0.000 A 
ATOM      3  N   UNL     1      43.492   3.573  12.954  0.00  0.00    +0.000 NA
ATOM      4  C   UNL     1      43.985   3.173  11.760  0.00  0.00    +0.000 A 
ATOM      5  C   UNL     1      44.646   3.995  10.844  0.00  0.00    +0.000 A 
ATOM      6  C   UNL     1      44.789   5.344  11.226  0.00  0.00    +0.000 A 
ENDROOT
BRANCH   5   7
ATOM      7  C   UNL     1      45.166   3.463   9.567  0.00  0.00    +0.000 A 
ATOM      8  C   UNL     1      45.353   2.087   9.350  0.00  0.00    +0.000 A 
ATOM      9  C   UNL     1      45.849   1.597   8.133  0.00  0.00    +0.000 A 
ATOM     10  C   UNL     1      46.191   2.476   7.101  0.00  0.00    +0.000 A 
ATOM     11  C   UNL     1      46.013   3.848   7.303  0.00  0.00    +0.000 A 
ATOM     12  C   UNL     1      45.503   4.328   8.510  0.00  0.00    +0.000 A 
BRANCH  10  13
ATOM     13  C   UNL     1      46.729   1.972   5.783  0.00  0.00    +0.000 C 
BRANCH  13  14
ATOM     14  C   UNL     1      48.058   2.617   5.391  0.00  0.00    +0.000 C 
BRANCH  14  15
ATOM     15  O   UNL     1      49.023   2.514   6.432  0.00  0.00    +0.000 OA
ATOM     16  H   UNL     1      49.765   3.093   6.184  0.00  0.00    +0.000 HD
ENDBRANCH  14  15
ENDBRANCH  13  14
ENDBRANCH  10  13
ENDBRANCH   5   7
BRANCH   1  17
ATOM     17  N   UNL     1      44.443   7.182  12.765  0.00  0.00    +0.000 N 
ATOM     18  H   UNL     1      43.585   7.536  13.185  0.00  0.00    +0.000 HD
BRANCH  17  19
ATOM     19  C   UNL     1      44.993   8.065  11.733  0.00  0.00    +0.000 C 
BRANCH  19  21
ATOM     20  C   UNL     1      45.438  10.570  11.861  0.00  0.00    +0.000 C 
ATOM     21  C   UNL     1      45.901   9.176  12.299  0.00  0.00    +0.000 C 
BRANCH  21  22
ATOM     22  C   UNL     1      47.379   8.890  12.065  0.00  0.00    +0.000 A 
ATOM     23  C   UNL     1      47.856   7.577  12.220  0.00  0.00    +0.000 A 
ATOM     24  C   UNL     1      49.204   7.271  12.018  0.00  0.00    +0.000 A 
ATOM     25  C   UNL     1      50.096   8.277  11.648  0.00  0.00    +0.000 A 
ATOM     26  C   UNL     1      49.634   9.576  11.478  0.00  0.00    +0.000 A 
ATOM     27 CL   UNL     1      50.731  10.819  11.010  0.00  0.00    +0.000 Cl
ATOM     28  C   UNL     1      48.288   9.887  11.679  0.00  0.00    +0.000 A 
ENDBRANCH  21  22
ENDBRANCH  19  21
ENDBRANCH  17  19
ENDBRANCH   1  17
TORSDOF 8
ENDMDL
MODEL 3
REMARK VINA RESULT:    -7.158      3.531      5.152
REMARK INTER + INTRA:         -11.206
REMARK INTER:                 -10.298
REMARK INTRA:                  -0.908
REMARK UNBOUND:                -0.909
REMARK  Name = 
REMARK  9 active torsions:
REMARK  status: ('A' for Active; 'I' for Inactive)
REMARK    1  A    between atoms: C_1  and  C_2
REMARK    2  A    between atoms: C_2  and  C_3
REMARK    3  A    between atoms: C_2  and  C_20
REMARK    4  A    between atoms: C_3  and  N_4
REMARK    5  A    between atoms: N_4  and  C_5
REMARK    6  A    between atoms: C_9  and  C_10
REMARK    7  A    between atoms: C_13  and  C_14
REMARK    8  A    between atoms: C_14  and  C_15
REMARK    9  A    between atoms: C_15  and  O_16
REMARK                            x       y       z     vdW  Elec       q    Type
REMARK                         _______ _______ _______ _____ _____    ______ ____
ROOT
ATOM      1  C   UNL     1      45.360   5.387  12.810  0.00  0.00    +0.000 A 
ATOM      2  C   UNL     1      46.048   4.539  13.679  0.00  0.00    +0.000 A 
ATOM      3  N   UNL     1      47.317   4.720  14.104  0.00  0.00    +0.000 NA
ATOM      4  C   UNL     1      47.962   5.801  13.610  0.00  0.00    +0.000 A 
ATOM      5  C   UNL     1      47.417   6.725  12.716  0.00  0.00    +0.000 A 
ATOM      6  C   UNL     1      46.090   6.478  12.313  0.00  0.00    +0.000 A 
ENDROOT
BRANCH   5   7
ATOM      7  C   UNL     1      48.195   7.889  12.243  0.00  0.00    +0.000 A 
ATOM      8  C   UNL     1      47.588   9.115  11.918  0.00  0.00    +0.000 A 
ATOM      9  C   UNL     1      48.340  10.210  11.469  0.00  0.00    +0.000 A 
ATOM     10  C   UNL     1      49.725  10.104  11.316  0.00  0.00    +0.000 A 
ATOM     11  C   UNL     1      50.344   8.892  11.633  0.00  0.00    +0.000 A 
ATOM     12  C   UNL     1      49.592   7.810  12.095  0.00  0.00    +0.000 A 
BRANCH  10  13
ATOM     13  C   UNL     1      50.556  11.269  10.832  0.00  0.00    +0.000 C 
BRANCH  13  14
ATOM     14  C   UNL     1      51.525  10.892   9.712  0.00  0.00    +0.000 C 
BRANCH  14  15
ATOM     15  O   UNL     1      51.178  11.514   8.481  0.00  0.00    +0.000 OA
ATOM     16  H   UNL     1      51.497  10.929   7.771  0.00  0.00    +0.000 HD
ENDBRANCH  14  15
ENDBRANCH  13  14
ENDBRANCH  10  13
ENDBRANCH   5   7
BRANCH   1  17
ATOM     17  N   UNL     1      44.058   5.160  12.329  0.00  0.00    +0.000 N 
ATOM     18  H   UNL     1      43.615   4.397  12.838  0.00  0.00    +0.000 HD
BRANCH  17  19
ATOM     19  C   UNL     1      43.866   5.082  10.879  0.00  0.00    +0.000 C 
BRANCH  19  21
ATOM     20  C   UNL     1      43.594   2.627  11.505  0.00  0.00    +0.000 C 
ATOM     21  C   UNL     1      43.725   3.637  10.359  0.00  0.00    +0.000 C 
BRANCH  21  22
ATOM     22  C   UNL     1      44.784   3.291   9.320  0.00  0.00    +0.000 A 
ATOM     23  C   UNL     1      45.388   4.325   8.585  0.00  0.00    +0.000 A 
ATOM     24  C   UNL     1      46.361   4.053   7.621  0.00  0.00    +0.000 A 
ATOM     25  C   UNL     1      46.752   2.735   7.383  0.00  0.00    +0.000 A 
ATOM     26  C   UNL     1      46.172   1.704   8.112  0.00  0.00    +0.000 A 
ATOM     27 CL   UNL     1      46.660   0.078   7.827  0.00  0.00    +0.000 Cl
ATOM     28  C   UNL     1      45.199   1.972   9.076  0.00  0.00    +0.000 A 
ENDBRANCH  21  22
ENDBRANCH  19  21
ENDBRANCH  17  19
ENDBRANCH   1  17
TORSDOF 8
ENDMDL
MODEL 4
REMARK VINA RESULT:    -6.713      3.842      7.940
REMARK INTER + INTRA:         -10.565
REMARK INTER:                  -9.098
REMARK INTRA:                  -1.467
REMARK UNBOUND:                -0.909
REMARK  Name = 
REMARK  9 active torsions:
REMARK  status: ('A' for Active; 'I' for Inactive)
REMARK    1  A    between atoms: C_1  and  C_2
REMARK    2  A    between atoms: C_2  and  C_3
REMARK    3  A    between atoms: C_2  and  C_20
REMARK    4  A    between atoms: C_3  and  N_4
REMARK    5  A    between atoms: N_4  and  C_5
REMARK    6  A    between atoms: C_9  and  C_10
REMARK    7  A    between atoms: C_13  and  C_14
REMARK    8  A    between atoms: C_14  and  C_15
REMARK    9  A    between atoms: C_15  and  O_16
REMARK                            x       y       z     vdW  Elec       q    Type
REMARK                         _______ _______ _______ _____ _____    ______ ____
ROOT
ATOM      1  C   UNL     1      49.794   7.430  15.305  0.00  0.00    +0.000 A 
ATOM      2  C   UNL     1      50.682   7.999  14.391  0.00  0.00    +0.000 A 
ATOM      3  N   UNL     1      50.509   8.031  13.052  0.00  0.00    +0.000 NA
ATOM      4  C   UNL     1      49.392   7.431  12.582  0.00  0.00    +0.000 A 
ATOM      5  C   UNL     1      48.425   6.798  13.367  0.00  0.00    +0.000 A 
ATOM      6  C   UNL     1      48.667   6.801  14.755  0.00  0.00    +0.000 A 
ENDROOT
BRANCH   5   7
ATOM      7  C   UNL     1      47.226   6.182  12.763  0.00  0.00    +0.000 A 
ATOM      8  C   UNL     1      46.767   6.534  11.481  0.00  0.00    +0.000 A 
ATOM      9  C   UNL     1      45.625   5.942  10.922  0.00  0.00    +0.000 A 
ATOM     10  C   UNL     1      44.897   4.988  11.640  0.00  0.00    +0.000 A 
ATOM     11  C   UNL     1      45.340   4.629  12.916  0.00  0.00    +0.000 A 
ATOM     12  C   UNL     1      46.486   5.210  13.461  0.00  0.00    +0.000 A 
BRANCH  10  13
ATOM     13  C   UNL     1      43.664   4.338  11.059  0.00  0.00    +0.000 C 
BRANCH  13  14
ATOM     14  C   UNL     1      43.820   2.832  10.853  0.00  0.00    +0.000 C 
BRANCH  14  15
ATOM     15  O   UNL     1      42.958   2.088  11.706  0.00  0.00    +0.000 OA
ATOM     16  H   UNL     1      42.169   1.864  11.181  0.00  0.00    +0.000 HD
ENDBRANCH  14  15
ENDBRANCH  13  14
ENDBRANCH  10  13
ENDBRANCH   5   7
BRANCH   1  17
ATOM     17  N   UNL     1      50.011   7.353  16.693  0.00  0.00    +0.000 N 
ATOM     18  H   UNL     1      50.683   6.620  16.912  0.00  0.00    +0.000 HD
BRANCH  17  19
ATOM     19  C   UNL     1      48.838   7.347  17.570  0.00  0.00    +0.000 C 
BRANCH  19  21
ATOM     20  C   UNL     1      49.926   6.349  19.647  0.00  0.00    +0.000 C 
ATOM     21  C   UNL     1      48.835   6.183  18.581  0.00  0.00    +0.000 C 
BRANCH  21  22
ATOM     22  C   UNL     1      48.815   4.823  17.895  0.00  0.00    +0.000 A 
ATOM     23  C   UNL     1      47.663   4.425  17.195  0.00  0.00    +0.000 A 
ATOM     24  C   UNL     1      47.600   3.186  16.554  0.00  0.00    +0.000 A 
ATOM     25  C   UNL     1      48.696   2.324  16.599  0.00  0.00    +0.000 A 
ATOM     26  C   UNL     1      49.846   2.711  17.278  0.00  0.00    +0.000 A 
ATOM     27 CL   UNL     1      51.205   1.655  17.326  0.00  0.00    +0.000 Cl
ATOM     28  C   UNL     1      49.913   3.949  17.920  0.00  0.00    +0.000 A 
ENDBRANCH  21  22
ENDBRANCH  19  21
ENDBRANCH  17  19
ENDBRANCH   1  17
TORSDOF 8
ENDMDL
MODEL 5
REMARK VINA RESULT:    -6.657      2.411      3.056
REMARK INTER + INTRA:         -10.484
REMARK INTER:                  -9.560
REMARK INTRA:                  -0.925
REMARK UNBOUND:                -0.909
REMARK  Name = 
REMARK  9 active torsions:
REMARK  status: ('A' for Active; 'I' for Inactive)
REMARK    1  A    between atoms: C_1  and  C_2
REMARK    2  A    between atoms: C_2  and  C_3
REMARK    3  A    between atoms: C_2  and  C_20
REMARK    4  A    between atoms: C_3  and  N_4
REMARK    5  A    between atoms: N_4  and  C_5
REMARK    6  A    between atoms: C_9  and  C_10
REMARK    7  A    between atoms: C_13  and  C_14
REMARK    8  A    between atoms: C_14  and  C_15
REMARK    9  A    between atoms: C_15  and  O_16
REMARK                            x       y       z     vdW  Elec       q    Type
REMARK                         _______ _______ _______ _____ _____    ______ ____
ROOT
ATOM      1  C   UNL     1      44.490   6.727  11.914  0.00  0.00    +0.000 A 
ATOM      2  C   UNL     1      44.160   7.980  11.394  0.00  0.00    +0.000 A 
ATOM      3  N   UNL     1      44.940   9.081  11.457  0.00  0.00    +0.000 NA
ATOM      4  C   UNL     1      46.117   8.939  12.107  0.00  0.00    +0.000 A 
ATOM      5  C   UNL     1      46.575   7.760  12.700  0.00  0.00    +0.000 A 
ATOM      6  C   UNL     1      45.713   6.650  12.597  0.00  0.00    +0.000 A 
ENDROOT
BRANCH   5   7
ATOM      7  C   UNL     1      47.887   7.697  13.375  0.00  0.00    +0.000 A 
ATOM      8  C   UNL     1      49.015   8.382  12.888  0.00  0.00    +0.000 A 
ATOM      9  C   UNL     1      50.254   8.310  13.540  0.00  0.00    +0.000 A 
ATOM     10  C   UNL     1      50.406   7.534  14.693  0.00  0.00    +0.000 A 
ATOM     11  C   UNL     1      49.295   6.846  15.189  0.00  0.00    +0.000 A 
ATOM     12  C   UNL     1      48.060   6.934  14.545  0.00  0.00    +0.000 A 
BRANCH  10  13
ATOM     13  C   UNL     1      51.732   7.441  15.411  0.00  0.00    +0.000 C 
BRANCH  13  14
ATOM     14  C   UNL     1      52.858   8.180  14.690  0.00  0.00    +0.000 C 
BRANCH  14  15
ATOM     15  O   UNL     1      53.619   7.308  13.862  0.00  0.00    +0.000 OA
ATOM     16  H   UNL     1      53.236   6.419  13.964  0.00  0.00    +0.000 HD
ENDBRANCH  14  15
ENDBRANCH  13  14
ENDBRANCH  10  13
ENDBRANCH   5   7
BRANCH   1  17
ATOM     17  N   UNL     1      43.647   5.601  11.892  0.00  0.00    +0.000 N 
ATOM     18  H   UNL     1      43.878   4.964  12.652  0.00  0.00    +0.000 HD
BRANCH  17  19
ATOM     19  C   UNL     1      43.438   4.927  10.608  0.00  0.00    +0.000 C 
BRANCH  19  21
ATOM     20  C   UNL     1      44.471   3.034  11.966  0.00  0.00    +0.000 C 
ATOM     21  C   UNL     1      43.955   3.474  10.590  0.00  0.00    +0.000 C 
BRANCH  21  22
ATOM     22  C   UNL     1      44.916   3.217   9.436  0.00  0.00    +0.000 A 
ATOM     23  C   UNL     1      45.403   4.307   8.693  0.00  0.00    +0.000 A 
ATOM     24  C   UNL     1      46.282   4.117   7.626  0.00  0.00    +0.000 A 
ATOM     25  C   UNL     1      46.697   2.828   7.288  0.00  0.00    +0.000 A 
ATOM     26  C   UNL     1      46.233   1.743   8.023  0.00  0.00    +0.000 A 
ATOM     27 CL   UNL     1      46.751   0.152   7.616  0.00  0.00    +0.000 Cl
ATOM     28  C   UNL     1      45.353   1.929   9.091  0.00  0.00    +0.000 A 
ENDBRANCH  21  22
ENDBRANCH  19  21
ENDBRANCH  17  19
ENDBRANCH   1  17
TORSDOF 8
ENDMDL
MODEL 6
REMARK VINA RESULT:    -6.632      3.486      4.192
REMARK INTER + INTRA:         -10.449
REMARK INTER:                  -9.753
REMARK INTRA:                  -0.696
REMARK UNBOUND:                -0.909
REMARK  Name = 
REMARK  9 active torsions:
REMARK  status: ('A' for Active; 'I' for Inactive)
REMARK    1  A    between atoms: C_1  and  C_2
REMARK    2  A    between atoms: C_2  and  C_3
REMARK    3  A    between atoms: C_2  and  C_20
REMARK    4  A    between atoms: C_3  and  N_4
REMARK    5  A    between atoms: N_4  and  C_5
REMARK    6  A    between atoms: C_9  and  C_10
REMARK    7  A    between atoms: C_13  and  C_14
REMARK    8  A    between atoms: C_14  and  C_15
REMARK    9  A    between atoms: C_15  and  O_16
REMARK                            x       y       z     vdW  Elec       q    Type
REMARK                         _______ _______ _______ _____ _____    ______ ____
ROOT
ATOM      1  C   UNL     1      45.874   6.517  11.821  0.00  0.00    +0.000 A 
ATOM      2  C   UNL     1      45.163   7.504  12.507  0.00  0.00    +0.000 A 
ATOM      3  N   UNL     1      45.704   8.603  13.075  0.00  0.00    +0.000 NA
ATOM      4  C   UNL     1      47.048   8.719  12.985  0.00  0.00    +0.000 A 
ATOM      5  C   UNL     1      47.896   7.805  12.354  0.00  0.00    +0.000 A 
ATOM      6  C   UNL     1      47.267   6.682  11.782  0.00  0.00    +0.000 A 
ENDROOT
BRANCH   5   7
ATOM      7  C   UNL     1      49.356   8.026  12.291  0.00  0.00    +0.000 A 
ATOM      8  C   UNL     1      50.078   8.575  13.365  0.00  0.00    +0.000 A 
ATOM      9  C   UNL     1      51.463   8.781  13.289  0.00  0.00    +0.000 A 
ATOM     10  C   UNL     1      52.165   8.456  12.124  0.00  0.00    +0.000 A 
ATOM     11  C   UNL     1      51.462   7.910  11.047  0.00  0.00    +0.000 A 
ATOM     12  C   UNL     1      50.085   7.693  11.135  0.00  0.00    +0.000 A 
BRANCH  10  13
ATOM     13  C   UNL     1      53.657   8.670  12.019  0.00  0.00    +0.000 C 
BRANCH  13  14
ATOM     14  C   UNL     1      54.420   8.195  13.255  0.00  0.00    +0.000 C 
BRANCH  14  15
ATOM     15  O   UNL     1      54.333   6.785  13.422  0.00  0.00    +0.000 OA
ATOM     16  H   UNL     1      53.737   6.628  14.176  0.00  0.00    +0.000 HD
ENDBRANCH  14  15
ENDBRANCH  13  14
ENDBRANCH  10  13
ENDBRANCH   5   7
BRANCH   1  17
ATOM     17  N   UNL     1      45.308   5.348  11.281  0.00  0.00    +0.000 N 
ATOM     18  H   UNL     1      45.676   4.522  11.747  0.00  0.00    +0.000 HD
BRANCH  17  19
ATOM     19  C   UNL     1      45.260   5.222   9.822  0.00  0.00    +0.000 C 
BRANCH  19  21
ATOM     20  C   UNL     1      44.092   3.064  10.509  0.00  0.00    +0.000 C 
ATOM     21  C   UNL     1      44.657   3.885   9.344  0.00  0.00    +0.000 C 
BRANCH  21  22
ATOM     22  C   UNL     1      45.602   3.122   8.424  0.00  0.00    +0.000 A 
ATOM     23  C   UNL     1      46.405   3.837   7.520  0.00  0.00    +0.000 A 
ATOM     24  C   UNL     1      47.282   3.178   6.656  0.00  0.00    +0.000 A 
ATOM     25  C   UNL     1      47.376   1.786   6.691  0.00  0.00    +0.000 A 
ATOM     26  C   UNL     1      46.596   1.068   7.589  0.00  0.00    +0.000 A 
ATOM     27 CL   UNL     1      46.717  -0.649   7.642  0.00  0.00    +0.000 Cl
ATOM     28  C   UNL     1      45.718   1.723   8.454  0.00  0.00    +0.000 A 
ENDBRANCH  21  22
ENDBRANCH  19  21
ENDBRANCH  17  19
ENDBRANCH   1  17
TORSDOF 8
ENDMDL
MODEL 7
REMARK VINA RESULT:    -6.248      3.742      7.624
REMARK INTER + INTRA:          -9.897
REMARK INTER:                  -8.106
REMARK INTRA:                  -1.791
REMARK UNBOUND:                -0.909
REMARK  Name = 
REMARK  9 active torsions:
REMARK  status: ('A' for Active; 'I' for Inactive)
REMARK    1  A    between atoms: C_1  and  C_2
REMARK    2  A    between atoms: C_2  and  C_3
REMARK    3  A    between atoms: C_2  and  C_20
REMARK    4  A    between atoms: C_3  and  N_4
REMARK    5  A    between atoms: N_4  and  C_5
REMARK    6  A    between atoms: C_9  and  C_10
REMARK    7  A    between atoms: C_13  and  C_14
REMARK    8  A    between atoms: C_14  and  C_15
REMARK    9  A    between atoms: C_15  and  O_16
REMARK                            x       y       z     vdW  Elec       q    Type
REMARK                         _______ _______ _______ _____ _____    ______ ____
ROOT
ATOM      1  C   UNL     1      48.524   5.497  16.578  0.00  0.00    +0.000 A 
ATOM      2  C   UNL     1      48.790   4.215  17.063  0.00  0.00    +0.000 A 
ATOM      3  N   UNL     1      48.351   3.064  16.508  0.00  0.00    +0.000 NA
ATOM      4  C   UNL     1      47.569   3.193  15.412  0.00  0.00    +0.000 A 
ATOM      5  C   UNL     1      47.196   4.404  14.825  0.00  0.00    +0.000 A 
ATOM      6  C   UNL     1      47.688   5.565  15.453  0.00  0.00    +0.000 A 
ENDROOT
BRANCH   5   7
ATOM      7  C   UNL     1      46.349   4.444  13.615  0.00  0.00    +0.000 A 
ATOM      8  C   UNL     1      45.855   5.650  13.086  0.00  0.00    +0.000 A 
ATOM      9  C   UNL     1      45.051   5.672  11.937  0.00  0.00    +0.000 A 
ATOM     10  C   UNL     1      44.702   4.481  11.293  0.00  0.00    +0.000 A 
ATOM     11  C   UNL     1      45.183   3.274  11.808  0.00  0.00    +0.000 A 
ATOM     12  C   UNL     1      45.997   3.260  12.942  0.00  0.00    +0.000 A 
BRANCH  10  13
ATOM     13  C   UNL     1      43.836   4.479  10.056  0.00  0.00    +0.000 C 
BRANCH  13  14
ATOM     14  C   UNL     1      44.601   4.103   8.787  0.00  0.00    +0.000 C 
BRANCH  14  15
ATOM     15  O   UNL     1      45.586   5.075   8.456  0.00  0.00    +0.000 OA
ATOM     16  H   UNL     1      45.192   5.947   8.636  0.00  0.00    +0.000 HD
ENDBRANCH  14  15
ENDBRANCH  13  14
ENDBRANCH  10  13
ENDBRANCH   5   7
BRANCH   1  17
ATOM     17  N   UNL     1      48.940   6.691  17.195  0.00  0.00    +0.000 N 
ATOM     18  H   UNL     1      48.136   7.230  17.512  0.00  0.00    +0.000 HD
BRANCH  17  19
ATOM     19  C   UNL     1      49.951   7.499  16.511  0.00  0.00    +0.000 C 
BRANCH  19  21
ATOM     20  C   UNL     1      48.224   9.363  16.694  0.00  0.00    +0.000 C 
ATOM     21  C   UNL     1      49.380   8.781  15.871  0.00  0.00    +0.000 C 
BRANCH  21  22
ATOM     22  C   UNL     1      49.081   8.602  14.388  0.00  0.00    +0.000 A 
ATOM     23  C   UNL     1      47.794   8.898  13.906  0.00  0.00    +0.000 A 
ATOM     24  C   UNL     1      47.477   8.746  12.555  0.00  0.00    +0.000 A 
ATOM     25  C   UNL     1      48.448   8.300  11.659  0.00  0.00    +0.000 A 
ATOM     26  C   UNL     1      49.728   8.016  12.120  0.00  0.00    +0.000 A 
ATOM     27 CL   UNL     1      50.934   7.476  11.015  0.00  0.00    +0.000 Cl
ATOM     28  C   UNL     1      50.051   8.167  13.470  0.00  0.00    +0.000 A 
ENDBRANCH  21  22
ENDBRANCH  19  21
ENDBRANCH  17  19
ENDBRANCH   1  17
TORSDOF 8
ENDMDL
MODEL 8
REMARK VINA RESULT:    -6.017      4.117      8.220
REMARK INTER + INTRA:          -9.563
REMARK INTER:                  -8.208
REMARK INTRA:                  -1.356
REMARK UNBOUND:                -0.909
REMARK  Name = 
REMARK  9 active torsions:
REMARK  status: ('A' for Active; 'I' for Inactive)
REMARK    1  A    between atoms: C_1  and  C_2
REMARK    2  A    between atoms: C_2  and  C_3
REMARK    3  A    between atoms: C_2  and  C_20
REMARK    4  A    between atoms: C_3  and  N_4
REMARK    5  A    between atoms: N_4  and  C_5
REMARK    6  A    between atoms: C_9  and  C_10
REMARK    7  A    between atoms: C_13  and  C_14
REMARK    8  A    between atoms: C_14  and  C_15
REMARK    9  A    between atoms: C_15  and  O_16
REMARK                            x       y       z     vdW  Elec       q    Type
REMARK                         _______ _______ _______ _____ _____    ______ ____
ROOT
ATOM      1  C   UNL     1      50.809   8.114  14.641  0.00  0.00    +0.000 A 
ATOM      2  C   UNL     1      51.142   9.069  13.679  0.00  0.00    +0.000 A 
ATOM      3  N   UNL     1      50.476   9.276  12.523  0.00  0.00    +0.000 NA
ATOM      4  C   UNL     1      49.424   8.460  12.288  0.00  0.00    +0.000 A 
ATOM      5  C   UNL     1      48.984   7.444  13.140  0.00  0.00    +0.000 A 
ATOM      6  C   UNL     1      49.723   7.282  14.329  0.00  0.00    +0.000 A 
ENDROOT
BRANCH   5   7
ATOM      7  C   UNL     1      47.810   6.612  12.805  0.00  0.00    +0.000 A 
ATOM      8  C   UNL     1      47.346   5.594  13.656  0.00  0.00    +0.000 A 
ATOM      9  C   UNL     1      46.231   4.811  13.323  0.00  0.00    +0.000 A 
ATOM     10  C   UNL     1      45.556   5.015  12.116  0.00  0.00    +0.000 A 
ATOM     11  C   UNL     1      46.006   6.022  11.258  0.00  0.00    +0.000 A 
ATOM     12  C   UNL     1      47.107   6.809  11.602  0.00  0.00    +0.000 A 
BRANCH  10  13
ATOM     13  C   UNL     1      44.354   4.184  11.735  0.00  0.00    +0.000 C 
BRANCH  13  14
ATOM     14  C   UNL     1      43.341   4.947  10.883  0.00  0.00    +0.000 C 
BRANCH  14  15
ATOM     15  O   UNL     1      43.524   4.699   9.494  0.00  0.00    +0.000 OA
ATOM     16  H   UNL     1      44.398   5.058   9.257  0.00  0.00    +0.000 HD
ENDBRANCH  14  15
ENDBRANCH  13  14
ENDBRANCH  10  13
ENDBRANCH   5   7
BRANCH   1  17
ATOM     17  N   UNL     1      51.542   7.868  15.816  0.00  0.00    +0.000 N 
ATOM     18  H   UNL     1      52.410   7.380  15.603  0.00  0.00    +0.000 HD
BRANCH  17  19
ATOM     19  C   UNL     1      50.827   7.310  16.966  0.00  0.00    +0.000 C 
BRANCH  19  21
ATOM     20  C   UNL     1      52.956   5.915  17.077  0.00  0.00    +0.000 C 
ATOM     21  C   UNL     1      51.510   6.064  17.565  0.00  0.00    +0.000 C 
BRANCH  21  22
ATOM     22  C   UNL     1      50.655   4.811  17.421  0.00  0.00    +0.000 A 
ATOM     23  C   UNL     1      51.269   3.550  17.499  0.00  0.00    +0.000 A 
ATOM     24  C   UNL     1      50.524   2.376  17.370  0.00  0.00    +0.000 A 
ATOM     25  C   UNL     1      49.145   2.446  17.167  0.00  0.00    +0.000 A 
ATOM     26  C   UNL     1      48.524   3.688  17.100  0.00  0.00    +0.000 A 
ATOM     27 CL   UNL     1      46.821   3.779  16.861  0.00  0.00    +0.000 Cl
ATOM     28  C   UNL     1      49.265   4.864  17.229  0.00  0.00    +0.000 A 
ENDBRANCH  21  22
ENDBRANCH  19  21
ENDBRANCH  17  19
ENDBRANCH   1  17
TORSDOF 8
ENDMDL
MODEL 9
REMARK VINA RESULT:    -5.936      4.307      8.628
REMARK INTER + INTRA:          -9.447
REMARK INTER:                  -8.842
REMARK INTRA:                  -0.605
REMARK UNBOUND:                -0.909
REMARK  Name = 
REMARK  9 active torsions:
REMARK  status: ('A' for Active; 'I' for Inactive)
REMARK    1  A    between atoms: C_1  and  C_2
REMARK    2  A    between atoms: C_2  and  C_3
REMARK    3  A    between atoms: C_2  and  C_20
REMARK    4  A    between atoms: C_3  and  N_4
REMARK    5  A    between atoms: N_4  and  C_5
REMARK    6  A    between atoms: C_9  and  C_10
REMARK    7  A    between atoms: C_13  and  C_14
REMARK    8  A    between atoms: C_14  and  C_15
REMARK    9  A    between atoms: C_15  and  O_16
REMARK                            x       y       z     vdW  Elec       q    Type
REMARK                         _______ _______ _______ _____ _____    ______ ____
ROOT
ATOM      1  C   UNL     1      49.314   6.183  16.701  0.00  0.00    +0.000 A 
ATOM      2  C   UNL     1      50.283   7.023  16.150  0.00  0.00    +0.000 A 
ATOM      3  N   UNL     1      50.284   7.486  14.881  0.00  0.00    +0.000 NA
ATOM      4  C   UNL     1      49.270   7.063  14.093  0.00  0.00    +0.000 A 
ATOM      5  C   UNL     1      48.243   6.204  14.491  0.00  0.00    +0.000 A 
ATOM      6  C   UNL     1      48.302   5.759  15.827  0.00  0.00    +0.000 A 
ENDROOT
BRANCH   5   7
ATOM      7  C   UNL     1      47.166   5.808  13.561  0.00  0.00    +0.000 A 
ATOM      8  C   UNL     1      46.774   6.618  12.480  0.00  0.00    +0.000 A 
ATOM      9  C   UNL     1      45.748   6.230  11.606  0.00  0.00    +0.000 A 
ATOM     10  C   UNL     1      45.070   5.023  11.800  0.00  0.00    +0.000 A 
ATOM     11  C   UNL     1      45.447   4.208  12.871  0.00  0.00    +0.000 A 
ATOM     12  C   UNL     1      46.480   4.592  13.728  0.00  0.00    +0.000 A 
BRANCH  10  13
ATOM     13  C   UNL     1      43.961   4.585  10.874  0.00  0.00    +0.000 C 
BRANCH  13  14
ATOM     14  C   UNL     1      43.900   3.069  10.685  0.00  0.00    +0.000 C 
BRANCH  14  15
ATOM     15  O   UNL     1      42.845   2.484  11.439  0.00  0.00    +0.000 OA
ATOM     16  H   UNL     1      42.382   1.869  10.843  0.00  0.00    +0.000 HD
ENDBRANCH  14  15
ENDBRANCH  13  14
ENDBRANCH  10  13
ENDBRANCH   5   7
BRANCH   1  17
ATOM     17  N   UNL     1      49.352   5.662  18.007  0.00  0.00    +0.000 N 
ATOM     18  H   UNL     1      50.209   5.943  18.481  0.00  0.00    +0.000 HD
BRANCH  17  19
ATOM     19  C   UNL     1      49.022   4.247  18.190  0.00  0.00    +0.000 C 
BRANCH  19  21
ATOM     20  C   UNL     1      48.663   2.254  16.643  0.00  0.00    +0.000 C 
ATOM     21  C   UNL     1      49.647   3.330  17.119  0.00  0.00    +0.000 C 
BRANCH  21  22
ATOM     22  C   UNL     1      51.015   2.805  17.534  0.00  0.00    +0.000 A 
ATOM     23  C   UNL     1      51.303   1.439  17.375  0.00  0.00    +0.000 A 
ATOM     24  C   UNL     1      52.543   0.915  17.745  0.00  0.00    +0.000 A 
ATOM     25  C   UNL     1      53.522   1.755  18.276  0.00  0.00    +0.000 A 
ATOM     26  C   UNL     1      53.255   3.110  18.427  0.00  0.00    +0.000 A 
ATOM     27 CL   UNL     1      54.464   4.153  19.072  0.00  0.00    +0.000 Cl
ATOM     28  C   UNL     1      52.016   3.639  18.058  0.00  0.00    +0.000 A 
ENDBRANCH  21  22
ENDBRANCH  19  21
ENDBRANCH  17  19
ENDBRANCH   1  17
TORSDOF 8
ENDMDL
