MODEL 1
REMARK VINA RESULT:    -8.047      0.000      0.000
REMARK INTER + INTRA:         -11.903
REMARK INTER:                 -11.340
REMARK INTRA:                  -0.563
REMARK UNBOUND:                -0.563
REMARK  Name = 
REMARK  7 active torsions:
REMARK  status: ('A' for Active; 'I' for Inactive)
REMARK    1  A    between atoms: C_2  and  C_3
REMARK    2  A    between atoms: C_7  and  O_8
REMARK    3  A    between atoms: O_8  and  C_9
REMARK    4  A    between atoms: C_9  and  C_10
REMARK    5  A    between atoms: C_14  and  C_15
REMARK    6  A    between atoms: C_19  and  O_20
REMARK    7  A    between atoms: O_20  and  C_21
REMARK                            x       y       z     vdW  Elec       q    Type
REMARK                         _______ _______ _______ _____ _____    ______ ____
ROOT
ATOM      1  C   UNL     1      45.479   5.300  12.279  0.00  0.00    +0.000 A 
ATOM      2  C   UNL     1      46.214   6.359  11.724  0.00  0.00    +0.000 A 
ATOM      3  C   UNL     1      47.358   6.852  12.351  0.00  0.00    +0.000 A 
ATOM      4  C   UNL     1      47.779   6.310  13.565  0.00  0.00    +0.000 A 
ATOM      5  C   UNL     1      47.094   5.237  14.154  0.00  0.00    +0.000 A 
ATOM      6  C   UNL     1      45.986   4.720  13.460  0.00  0.00    +0.000 A 
ENDROOT
BRANCH   5   7
ATOM      7  C   UNL     1      47.453   4.727  15.492  0.00  0.00    +0.000 A 
ATOM      8  C   UNL     1      46.704   3.718  16.106  0.00  0.00    +0.000 A 
ATOM      9  N   UNL     1      46.967   3.183  17.322  0.00  0.00    +0.000 NA
ATOM     10  C   UNL     1      48.050   3.665  17.964  0.00  0.00    +0.000 A 
ATOM     11  C   UNL     1      48.900   4.632  17.445  0.00  0.00    +0.000 A 
ATOM     12  C   UNL     1      48.581   5.180  16.202  0.00  0.00    +0.000 A 
BRANCH  11  13
ATOM     13  O   UNL     1      49.959   4.984  18.230  0.00  0.00    +0.000 OA
BRANCH  13  14
ATOM     14  C   UNL     1      51.219   4.484  17.818  0.00  0.00    +0.000 C 
ATOM     15  F   UNL     1      51.038   3.275  17.234  0.00  0.00    +0.000 F 
ATOM     16  F   UNL     1      51.685   5.319  16.856  0.00  0.00    +0.000 F 
ENDBRANCH  13  14
ENDBRANCH  11  13
ENDBRANCH   5   7
BRANCH   1  17
ATOM     17  C   UNL     1      44.129   4.864  11.714  0.00  0.00    +0.000 C 
ATOM     18  C   UNL     1      42.897   5.139  12.575  0.00  0.00    +0.000 C 
ATOM     19  C   UNL     1      43.113   5.927  11.330  0.00  0.00    +0.000 C 
BRANCH  17  20
ATOM     20  O   UNL     1      44.048   3.579  11.036  0.00  0.00    +0.000 OA
BRANCH  20  25
ATOM     21  C   UNL     1      45.934   2.055   8.332  0.00  0.00    +0.000 A 
ATOM     22  C   UNL     1      46.193   3.178   7.560  0.00  0.00    +0.000 A 
ATOM     23  N   UNL     1      45.743   4.412   7.869  0.00  0.00    +0.000 NA
ATOM     24  C   UNL     1      45.025   4.525   9.008  0.00  0.00    +0.000 A 
ATOM     25  C   UNL     1      44.752   3.473   9.869  0.00  0.00    +0.000 A 
ATOM     26  C   UNL     1      45.188   2.203   9.508  0.00  0.00    +0.000 A 
BRANCH  21  28
ATOM     27  N   UNL     1      46.844  -0.268   7.600  0.00  0.00    +0.000 NA
ATOM     28  C   UNL     1      46.439   0.774   7.926  0.00  0.00    +0.000 C 
ENDBRANCH  21  28
ENDBRANCH  20  25
ENDBRANCH  17  20
ENDBRANCH   1  17
TORSDOF 7
ENDMDL
MODEL 2
REMARK VINA RESULT:    -7.928      3.510      4.498
REMARK INTER + INTRA:         -11.735
REMARK INTER:                 -10.788
REMARK INTRA:                  -0.947
REMARK UNBOUND:                -0.563
REMARK  Name = 
REMARK  7 active torsions:
REMARK  status: ('A' for Active; 'I' for Inactive)
REMARK    1  A    between atoms: C_2  and  C_3
REMARK    2  A    between atoms: C_7  and  O_8
REMARK    3  A    between atoms: O_8  and  C_9
REMARK    4  A    between atoms: C_9  and  C_10
REMARK    5  A    between atoms: C_14  and  C_15
REMARK    6  A    between atoms: C_19  and  O_20
REMARK    7  A    between atoms: O_20  and  C_21
REMARK                            x       y       z     vdW  Elec       q    Type
REMARK                         _______ _______ _______ _____ _____    ______ ____
ROOT
ATOM      1  C   UNL     1      45.093   5.023  12.287  0.00  0.00    +0.000 A 
ATOM      2  C   UNL     1      45.596   4.024  13.136  0.00  0.00    +0.000 A 
ATOM      3  C   UNL     1      46.844   4.154  13.744  0.00  0.00    +0.000 A 
ATOM      4  C   UNL     1      47.631   5.279  13.495  0.00  0.00    +0.000 A 
ATOM      5  C   UNL     1      47.169   6.316  12.672  0.00  0.00    +0.000 A 
ATOM      6  C   UNL     1      45.877   6.184  12.131  0.00  0.00    +0.000 A 
ENDROOT
BRANCH   5   7
ATOM      7  C   UNL     1      48.030   7.457  12.303  0.00  0.00    +0.000 A 
ATOM      8  C   UNL     1      47.493   8.732  12.100  0.00  0.00    +0.000 A 
ATOM      9  N   UNL     1      48.207   9.835  11.774  0.00  0.00    +0.000 NA
ATOM     10  C   UNL     1      49.540   9.669  11.656  0.00  0.00    +0.000 A 
ATOM     11  C   UNL     1      50.201   8.469  11.875  0.00  0.00    +0.000 A 
ATOM     12  C   UNL     1      49.428   7.347  12.182  0.00  0.00    +0.000 A 
BRANCH  11  13
ATOM     13  O   UNL     1      51.557   8.494  11.729  0.00  0.00    +0.000 OA
BRANCH  13  14
ATOM     14  C   UNL     1      52.032   8.356  10.401  0.00  0.00    +0.000 C 
ATOM     15  F   UNL     1      53.387   8.320  10.426  0.00  0.00    +0.000 F 
ATOM     16  F   UNL     1      51.614   7.147   9.951  0.00  0.00    +0.000 F 
ENDBRANCH  13  14
ENDBRANCH  11  13
ENDBRANCH   5   7
BRANCH   1  17
ATOM     17  C   UNL     1      43.819   4.827  11.469  0.00  0.00    +0.000 C 
ATOM     18  C   UNL     1      42.499   5.192  12.145  0.00  0.00    +0.000 C 
ATOM     19  C   UNL     1      43.021   6.049  11.044  0.00  0.00    +0.000 C 
BRANCH  17  20
ATOM     20  O   UNL     1      43.703   3.630  10.650  0.00  0.00    +0.000 OA
BRANCH  20  25
ATOM     21  C   UNL     1      45.960   2.100   8.251  0.00  0.00    +0.000 A 
ATOM     22  C   UNL     1      46.386   3.230   7.570  0.00  0.00    +0.000 A 
ATOM     23  N   UNL     1      45.935   4.474   7.839  0.00  0.00    +0.000 NA
ATOM     24  C   UNL     1      45.040   4.586   8.845  0.00  0.00    +0.000 A 
ATOM     25  C   UNL     1      44.589   3.525   9.614  0.00  0.00    +0.000 A 
ATOM     26  C   UNL     1      45.033   2.247   9.290  0.00  0.00    +0.000 A 
BRANCH  21  28
ATOM     27  N   UNL     1      46.897  -0.239   7.610  0.00  0.00    +0.000 NA
ATOM     28  C   UNL     1      46.480   0.810   7.895  0.00  0.00    +0.000 C 
ENDBRANCH  21  28
ENDBRANCH  20  25
ENDBRANCH  17  20
ENDBRANCH   1  17
TORSDOF 7
ENDMDL
MODEL 3
REMARK VINA RESULT:    -7.796      3.778      8.089
REMARK INTER + INTRA:         -11.549
REMARK INTER:                 -10.430
REMARK INTRA:                  -1.119
REMARK UNBOUND:                -0.563
REMARK  Name = 
REMARK  7 active torsions:
REMARK  status: ('A' for Active; 'I' for Inactive)
REMARK    1  A    between atoms: C_2  and  C_3
REMARK    2  A    between atoms: C_7  and  O_8
REMARK    3  A    between atoms: O_8  and  C_9
REMARK    4  A    between atoms: C_9  and  C_10
REMARK    5  A    between atoms: C_14  and  C_15
REMARK    6  A    between atoms: C_19  and  O_20
REMARK    7  A    between atoms: O_20  and  C_21
REMARK                            x       y       z     vdW  Elec       q    Type
REMARK                         _______ _______ _______ _____ _____    ______ ____
ROOT
ATOM      1  C   UNL     1      47.176   7.583  12.442  0.00  0.00    +0.000 A 
ATOM      2  C   UNL     1      46.218   8.604  12.543  0.00  0.00    +0.000 A 
ATOM      3  C   UNL     1      44.924   8.432  12.052  0.00  0.00    +0.000 A 
ATOM      4  C   UNL     1      44.566   7.240  11.423  0.00  0.00    +0.000 A 
ATOM      5  C   UNL     1      45.477   6.179  11.313  0.00  0.00    +0.000 A 
ATOM      6  C   UNL     1      46.751   6.361  11.881  0.00  0.00    +0.000 A 
ENDROOT
BRANCH   5   7
ATOM      7  C   UNL     1      45.157   4.957  10.551  0.00  0.00    +0.000 A 
ATOM      8  C   UNL     1      44.448   3.903  11.137  0.00  0.00    +0.000 A 
ATOM      9  N   UNL     1      44.100   2.755  10.512  0.00  0.00    +0.000 NA
ATOM     10  C   UNL     1      44.463   2.647   9.218  0.00  0.00    +0.000 A 
ATOM     11  C   UNL     1      45.129   3.636   8.508  0.00  0.00    +0.000 A 
ATOM     12  C   UNL     1      45.495   4.795   9.194  0.00  0.00    +0.000 A 
BRANCH  11  13
ATOM     13  O   UNL     1      45.396   3.359   7.199  0.00  0.00    +0.000 OA
BRANCH  13  14
ATOM     14  C   UNL     1      46.754   3.484   6.813  0.00  0.00    +0.000 C 
ATOM     15  F   UNL     1      47.475   2.519   7.434  0.00  0.00    +0.000 F 
ATOM     16  F   UNL     1      46.816   3.226   5.482  0.00  0.00    +0.000 F 
ENDBRANCH  13  14
ENDBRANCH  11  13
ENDBRANCH   5   7
BRANCH   1  17
ATOM     17  C   UNL     1      48.642   7.806  12.804  0.00  0.00    +0.000 C 
ATOM     18  C   UNL     1      49.526   8.456  11.741  0.00  0.00    +0.000 C 
ATOM     19  C   UNL     1      49.155   9.228  12.959  0.00  0.00    +0.000 C 
BRANCH  17  20
ATOM     20  O   UNL     1      49.340   6.756  13.530  0.00  0.00    +0.000 OA
BRANCH  20  25
ATOM     21  C   UNL     1      47.973   5.312  16.569  0.00  0.00    +0.000 A 
ATOM     22  C   UNL     1      48.312   6.303  17.477  0.00  0.00    +0.000 A 
ATOM     23  N   UNL     1      49.006   7.412  17.143  0.00  0.00    +0.000 NA
ATOM     24  C   UNL     1      49.351   7.538  15.843  0.00  0.00    +0.000 A 
ATOM     25  C   UNL     1      49.018   6.627  14.852  0.00  0.00    +0.000 A 
ATOM     26  C   UNL     1      48.342   5.471  15.228  0.00  0.00    +0.000 A 
BRANCH  21  28
ATOM     27  N   UNL     1      46.649   3.218  17.359  0.00  0.00    +0.000 NA
ATOM     28  C   UNL     1      47.243   4.157  17.009  0.00  0.00    +0.000 C 
ENDBRANCH  21  28
ENDBRANCH  20  25
ENDBRANCH  17  20
ENDBRANCH   1  17
TORSDOF 7
ENDMDL
MODEL 4
REMARK VINA RESULT:    -7.672      3.709      8.414
REMARK INTER + INTRA:         -11.374
REMARK INTER:                 -10.672
REMARK INTRA:                  -0.702
REMARK UNBOUND:                -0.563
REMARK  Name = 
REMARK  7 active torsions:
REMARK  status: ('A' for Active; 'I' for Inactive)
REMARK    1  A    between atoms: C_2  and  C_3
REMARK    2  A    between atoms: C_7  and  O_8
REMARK    3  A    between atoms: O_8  and  C_9
REMARK    4  A    between atoms: C_9  and  C_10
REMARK    5  A    between atoms: C_14  and  C_15
REMARK    6  A    between atoms: C_19  and  O_20
REMARK    7  A    between atoms: O_20  and  C_21
REMARK                            x       y       z     vdW  Elec       q    Type
REMARK                         _______ _______ _______ _____ _____    ______ ____
ROOT
ATOM      1  C   UNL     1      46.837   7.222  13.154  0.00  0.00    +0.000 A 
ATOM      2  C   UNL     1      46.023   8.362  13.060  0.00  0.00    +0.000 A 
ATOM      3  C   UNL     1      44.945   8.411  12.177  0.00  0.00    +0.000 A 
ATOM      4  C   UNL     1      44.672   7.324  11.346  0.00  0.00    +0.000 A 
ATOM      5  C   UNL     1      45.440   6.152  11.412  0.00  0.00    +0.000 A 
ATOM      6  C   UNL     1      46.475   6.112  12.363  0.00  0.00    +0.000 A 
ENDROOT
BRANCH   5   7
ATOM      7  C   UNL     1      45.242   5.040  10.463  0.00  0.00    +0.000 A 
ATOM      8  C   UNL     1      44.503   3.907  10.820  0.00  0.00    +0.000 A 
ATOM      9  N   UNL     1      44.260   2.849  10.012  0.00  0.00    +0.000 NA
ATOM     10  C   UNL     1      44.767   2.921   8.765  0.00  0.00    +0.000 A 
ATOM     11  C   UNL     1      45.478   4.006   8.273  0.00  0.00    +0.000 A 
ATOM     12  C   UNL     1      45.733   5.067   9.144  0.00  0.00    +0.000 A 
BRANCH  11  13
ATOM     13  O   UNL     1      45.897   3.912   6.978  0.00  0.00    +0.000 OA
BRANCH  13  14
ATOM     14  C   UNL     1      46.614   2.735   6.651  0.00  0.00    +0.000 C 
ATOM     15  F   UNL     1      46.819   2.707   5.312  0.00  0.00    +0.000 F 
ATOM     16  F   UNL     1      47.836   2.836   7.233  0.00  0.00    +0.000 F 
ENDBRANCH  13  14
ENDBRANCH  11  13
ENDBRANCH   5   7
BRANCH   1  17
ATOM     17  C   UNL     1      48.124   7.208  13.974  0.00  0.00    +0.000 C 
ATOM     18  C   UNL     1      49.208   8.209  13.579  0.00  0.00    +0.000 C 
ATOM     19  C   UNL     1      48.455   8.406  14.848  0.00  0.00    +0.000 C 
BRANCH  17  20
ATOM     20  O   UNL     1      48.682   5.920  14.359  0.00  0.00    +0.000 OA
BRANCH  20  25
ATOM     21  C   UNL     1      48.229   5.299  17.908  0.00  0.00    +0.000 A 
ATOM     22  C   UNL     1      47.261   4.307  17.855  0.00  0.00    +0.000 A 
ATOM     23  N   UNL     1      46.720   3.857  16.703  0.00  0.00    +0.000 NA
ATOM     24  C   UNL     1      47.188   4.410  15.562  0.00  0.00    +0.000 A 
ATOM     25  C   UNL     1      48.184   5.372  15.508  0.00  0.00    +0.000 A 
ATOM     26  C   UNL     1      48.695   5.852  16.709  0.00  0.00    +0.000 A 
BRANCH  21  28
ATOM     27  N   UNL     1      49.163   6.074  20.207  0.00  0.00    +0.000 NA
ATOM     28  C   UNL     1      48.744   5.730  19.177  0.00  0.00    +0.000 C 
ENDBRANCH  21  28
ENDBRANCH  20  25
ENDBRANCH  17  20
ENDBRANCH   1  17
TORSDOF 7
ENDMDL
MODEL 5
REMARK VINA RESULT:    -6.866      4.292      8.781
REMARK INTER + INTRA:         -10.239
REMARK INTER:                  -9.285
REMARK INTRA:                  -0.954
REMARK UNBOUND:                -0.563
REMARK  Name = 
REMARK  7 active torsions:
REMARK  status: ('A' for Active; 'I' for Inactive)
REMARK    1  A    between atoms: C_2  and  C_3
REMARK    2  A    between atoms: C_7  and  O_8
REMARK    3  A    between atoms: O_8  and  C_9
REMARK    4  A    between atoms: C_9  and  C_10
REMARK    5  A    between atoms: C_14  and  C_15
REMARK    6  A    between atoms: C_19  and  O_20
REMARK    7  A    between atoms: O_20  and  C_21
REMARK                            x       y       z     vdW  Elec       q    Type
REMARK                         _______ _______ _______ _____ _____    ______ ____
ROOT
ATOM      1  C   UNL     1      47.530   7.764  12.488  0.00  0.00    +0.000 A 
ATOM      2  C   UNL     1      46.596   8.790  12.697  0.00  0.00    +0.000 A 
ATOM      3  C   UNL     1      45.270   8.655  12.288  0.00  0.00    +0.000 A 
ATOM      4  C   UNL     1      44.854   7.495  11.635  0.00  0.00    +0.000 A 
ATOM      5  C   UNL     1      45.740   6.429  11.419  0.00  0.00    +0.000 A 
ATOM      6  C   UNL     1      47.051   6.572  11.906  0.00  0.00    +0.000 A 
ENDROOT
BRANCH   5   7
ATOM      7  C   UNL     1      45.351   5.245  10.628  0.00  0.00    +0.000 A 
ATOM      8  C   UNL     1      44.629   4.196  11.206  0.00  0.00    +0.000 A 
ATOM      9  N   UNL     1      44.220   3.081  10.556  0.00  0.00    +0.000 NA
ATOM     10  C   UNL     1      44.532   3.006   9.246  0.00  0.00    +0.000 A 
ATOM     11  C   UNL     1      45.204   3.997   8.545  0.00  0.00    +0.000 A 
ATOM     12  C   UNL     1      45.634   5.119   9.255  0.00  0.00    +0.000 A 
BRANCH  11  13
ATOM     13  O   UNL     1      45.415   3.757   7.219  0.00  0.00    +0.000 OA
BRANCH  13  14
ATOM     14  C   UNL     1      46.435   2.819   6.921  0.00  0.00    +0.000 C 
ATOM     15  F   UNL     1      46.477   2.632   5.580  0.00  0.00    +0.000 F 
ATOM     16  F   UNL     1      47.615   3.386   7.276  0.00  0.00    +0.000 F 
ENDBRANCH  13  14
ENDBRANCH  11  13
ENDBRANCH   5   7
BRANCH   1  17
ATOM     17  C   UNL     1      49.021   7.954  12.759  0.00  0.00    +0.000 C 
ATOM     18  C   UNL     1      49.878   8.447  11.595  0.00  0.00    +0.000 C 
ATOM     19  C   UNL     1      49.600   9.358  12.739  0.00  0.00    +0.000 C 
BRANCH  17  20
ATOM     20  O   UNL     1      49.709   6.953  13.560  0.00  0.00    +0.000 OA
BRANCH  20  25
ATOM     21  C   UNL     1      51.168   7.691  16.803  0.00  0.00    +0.000 A 
ATOM     22  C   UNL     1      50.022   7.700  17.584  0.00  0.00    +0.000 A 
ATOM     23  N   UNL     1      48.782   7.512  17.086  0.00  0.00    +0.000 NA
ATOM     24  C   UNL     1      48.695   7.283  15.757  0.00  0.00    +0.000 A 
ATOM     25  C   UNL     1      49.783   7.208  14.902  0.00  0.00    +0.000 A 
ATOM     26  C   UNL     1      51.047   7.450  15.429  0.00  0.00    +0.000 A 
BRANCH  21  28
ATOM     27  N   UNL     1      53.489   8.098  17.902  0.00  0.00    +0.000 NA
ATOM     28  C   UNL     1      52.450   7.912  17.410  0.00  0.00    +0.000 C 
ENDBRANCH  21  28
ENDBRANCH  20  25
ENDBRANCH  17  20
ENDBRANCH   1  17
TORSDOF 7
ENDMDL
MODEL 6
REMARK VINA RESULT:    -6.846      3.777      8.248
REMARK INTER + INTRA:         -10.211
REMARK INTER:                  -9.280
REMARK INTRA:                  -0.931
REMARK UNBOUND:                -0.563
REMARK  Name = 
REMARK  7 active torsions:
REMARK  status: ('A' for Active; 'I' for Inactive)
REMARK    1  A    between atoms: C_2  and  C_3
REMARK    2  A    between atoms: C_7  and  O_8
REMARK    3  A    between atoms: O_8  and  C_9
REMARK    4  A    between atoms: C_9  and  C_10
REMARK    5  A    between atoms: C_14  and  C_15
REMARK    6  A    between atoms: C_19  and  O_20
REMARK    7  A    between atoms: O_20  and  C_21
REMARK                            x       y       z     vdW  Elec       q    Type
REMARK                         _______ _______ _______ _____ _____    ______ ____
ROOT
ATOM      1  C   UNL     1      48.726   8.306  14.170  0.00  0.00    +0.000 A 
ATOM      2  C   UNL     1      49.507   8.734  13.085  0.00  0.00    +0.000 A 
ATOM      3  C   UNL     1      49.251   8.288  11.789  0.00  0.00    +0.000 A 
ATOM      4  C   UNL     1      48.219   7.380  11.552  0.00  0.00    +0.000 A 
ATOM      5  C   UNL     1      47.394   6.935  12.596  0.00  0.00    +0.000 A 
ATOM      6  C   UNL     1      47.637   7.459  13.878  0.00  0.00    +0.000 A 
ENDROOT
BRANCH   5   7
ATOM      7  C   UNL     1      46.375   5.888  12.387  0.00  0.00    +0.000 A 
ATOM      8  C   UNL     1      45.916   5.103  13.451  0.00  0.00    +0.000 A 
ATOM      9  N   UNL     1      44.977   4.133  13.354  0.00  0.00    +0.000 NA
ATOM     10  C   UNL     1      44.446   3.936  12.131  0.00  0.00    +0.000 A 
ATOM     11  C   UNL     1      44.781   4.676  11.005  0.00  0.00    +0.000 A 
ATOM     12  C   UNL     1      45.773   5.649  11.137  0.00  0.00    +0.000 A 
BRANCH  11  13
ATOM     13  O   UNL     1      44.125   4.349   9.855  0.00  0.00    +0.000 OA
BRANCH  13  14
ATOM     14  C   UNL     1      44.749   3.361   9.054  0.00  0.00    +0.000 C 
ATOM     15  F   UNL     1      44.145   2.169   9.284  0.00  0.00    +0.000 F 
ATOM     16  F   UNL     1      44.505   3.682   7.759  0.00  0.00    +0.000 F 
ENDBRANCH  13  14
ENDBRANCH  11  13
ENDBRANCH   5   7
BRANCH   1  17
ATOM     17  C   UNL     1      49.094   8.631  15.615  0.00  0.00    +0.000 C 
ATOM     18  C   UNL     1      49.331  10.101  15.955  0.00  0.00    +0.000 C 
ATOM     19  C   UNL     1      48.111   9.416  16.467  0.00  0.00    +0.000 C 
BRANCH  17  20
ATOM     20  O   UNL     1      50.029   7.753  16.302  0.00  0.00    +0.000 OA
BRANCH  20  25
ATOM     21  C   UNL     1      48.142   5.083  17.884  0.00  0.00    +0.000 A 
ATOM     22  C   UNL     1      48.381   5.380  19.218  0.00  0.00    +0.000 A 
ATOM     23  N   UNL     1      49.168   6.399  19.623  0.00  0.00    +0.000 NA
ATOM     24  C   UNL     1      49.715   7.161  18.650  0.00  0.00    +0.000 A 
ATOM     25  C   UNL     1      49.500   6.974  17.294  0.00  0.00    +0.000 A 
ATOM     26  C   UNL     1      48.723   5.891  16.899  0.00  0.00    +0.000 A 
BRANCH  21  28
ATOM     27  N   UNL     1      46.620   3.070  17.262  0.00  0.00    +0.000 NA
ATOM     28  C   UNL     1      47.302   3.972  17.537  0.00  0.00    +0.000 C 
ENDBRANCH  21  28
ENDBRANCH  20  25
ENDBRANCH  17  20
ENDBRANCH   1  17
TORSDOF 7
ENDMDL
MODEL 7
REMARK VINA RESULT:    -6.649      3.639      7.798
REMARK INTER + INTRA:          -9.932
REMARK INTER:                  -8.788
REMARK INTRA:                  -1.145
REMARK UNBOUND:                -0.563
REMARK  Name = 
REMARK  7 active torsions:
REMARK  status: ('A' for Active; 'I' for Inactive)
REMARK    1  A    between atoms: C_2  and  C_3
REMARK    2  A    between atoms: C_7  and  O_8
REMARK    3  A    between atoms: O_8  and  C_9
REMARK    4  A    between atoms: C_9  and  C_10
REMARK    5  A    between atoms: C_14  and  C_15
REMARK    6  A    between atoms: C_19  and  O_20
REMARK    7  A    between atoms: O_20  and  C_21
REMARK                            x       y       z     vdW  Elec       q    Type
REMARK                         _______ _______ _______ _____ _____    ______ ____
ROOT
ATOM      1  C   UNL     1      49.225   7.925  15.787  0.00  0.00    +0.000 A 
ATOM      2  C   UNL     1      50.445   8.206  15.153  0.00  0.00    +0.000 A 
ATOM      3  C   UNL     1      50.629   7.956  13.794  0.00  0.00    +0.000 A 
ATOM      4  C   UNL     1      49.598   7.394  13.040  0.00  0.00    +0.000 A 
ATOM      5  C   UNL     1      48.351   7.112  13.617  0.00  0.00    +0.000 A 
ATOM      6  C   UNL     1      48.179   7.442  14.973  0.00  0.00    +0.000 A 
ENDROOT
BRANCH   5   7
ATOM      7  C   UNL     1      47.290   6.412  12.868  0.00  0.00    +0.000 A 
ATOM      8  C   UNL     1      46.858   6.875  11.621  0.00  0.00    +0.000 A 
ATOM      9  N   UNL     1      45.903   6.290  10.861  0.00  0.00    +0.000 NA
ATOM     10  C   UNL     1      45.350   5.166  11.358  0.00  0.00    +0.000 A 
ATOM     11  C   UNL     1      45.720   4.578  12.560  0.00  0.00    +0.000 A 
ATOM     12  C   UNL     1      46.689   5.225  13.329  0.00  0.00    +0.000 A 
BRANCH  11  13
ATOM     13  O   UNL     1      45.065   3.430  12.894  0.00  0.00    +0.000 OA
BRANCH  13  14
ATOM     14  C   UNL     1      43.704   3.367  12.505  0.00  0.00    +0.000 C 
ATOM     15  F   UNL     1      43.312   2.069  12.500  0.00  0.00    +0.000 F 
ATOM     16  F   UNL     1      42.983   3.990  13.470  0.00  0.00    +0.000 F 
ENDBRANCH  13  14
ENDBRANCH  11  13
ENDBRANCH   5   7
BRANCH   1  17
ATOM     17  C   UNL     1      49.055   8.017  17.301  0.00  0.00    +0.000 C 
ATOM     18  C   UNL     1      49.289   9.383  17.943  0.00  0.00    +0.000 C 
ATOM     19  C   UNL     1      47.906   8.835  17.865  0.00  0.00    +0.000 C 
BRANCH  17  20
ATOM     20  O   UNL     1      49.574   6.931  18.119  0.00  0.00    +0.000 OA
BRANCH  20  25
ATOM     21  C   UNL     1      49.289   3.375  17.438  0.00  0.00    +0.000 A 
ATOM     22  C   UNL     1      47.912   3.229  17.506  0.00  0.00    +0.000 A 
ATOM     23  N   UNL     1      47.071   4.242  17.805  0.00  0.00    +0.000 NA
ATOM     24  C   UNL     1      47.635   5.451  18.019  0.00  0.00    +0.000 A 
ATOM     25  C   UNL     1      48.994   5.708  17.928  0.00  0.00    +0.000 A 
ATOM     26  C   UNL     1      49.846   4.640  17.664  0.00  0.00    +0.000 A 
BRANCH  21  28
ATOM     27  N   UNL     1      50.790   1.327  16.879  0.00  0.00    +0.000 NA
ATOM     28  C   UNL     1      50.115   2.243  17.127  0.00  0.00    +0.000 C 
ENDBRANCH  21  28
ENDBRANCH  20  25
ENDBRANCH  17  20
ENDBRANCH   1  17
TORSDOF 7
ENDMDL
MODEL 8
REMARK VINA RESULT:    -6.466      3.732      7.909
REMARK INTER + INTRA:          -9.675
REMARK INTER:                  -8.985
REMARK INTRA:                  -0.690
REMARK UNBOUND:                -0.563
REMARK  Name = 
REMARK  7 active torsions:
REMARK  status: ('A' for Active; 'I' for Inactive)
REMARK    1  A    between atoms: C_2  and  C_3
REMARK    2  A    between atoms: C_7  and  O_8
REMARK    3  A    between atoms: O_8  and  C_9
REMARK    4  A    between atoms: C_9  and  C_10
REMARK    5  A    between atoms: C_14  and  C_15
REMARK    6  A    between atoms: C_19  and  O_20
REMARK    7  A    between atoms: O_20  and  C_21
REMARK                            x       y       z     vdW  Elec       q    Type
REMARK                         _______ _______ _______ _____ _____    ______ ____
ROOT
ATOM      1  C   UNL     1      49.049   7.985  15.001  0.00  0.00    +0.000 A 
ATOM      2  C   UNL     1      50.012   8.346  14.047  0.00  0.00    +0.000 A 
ATOM      3  C   UNL     1      49.952   7.862  12.740  0.00  0.00    +0.000 A 
ATOM      4  C   UNL     1      48.937   6.982  12.366  0.00  0.00    +0.000 A 
ATOM      5  C   UNL     1      47.937   6.603  13.274  0.00  0.00    +0.000 A 
ATOM      6  C   UNL     1      47.989   7.165  14.562  0.00  0.00    +0.000 A 
ENDROOT
BRANCH   5   7
ATOM      7  C   UNL     1      46.924   5.585  12.934  0.00  0.00    +0.000 A 
ATOM      8  C   UNL     1      46.931   4.326  13.544  0.00  0.00    +0.000 A 
ATOM      9  N   UNL     1      46.036   3.339  13.303  0.00  0.00    +0.000 NA
ATOM     10  C   UNL     1      45.063   3.620  12.414  0.00  0.00    +0.000 A 
ATOM     11  C   UNL     1      44.918   4.843  11.774  0.00  0.00    +0.000 A 
ATOM     12  C   UNL     1      45.875   5.827  12.027  0.00  0.00    +0.000 A 
BRANCH  11  13
ATOM     13  O   UNL     1      43.860   4.953  10.921  0.00  0.00    +0.000 OA
BRANCH  13  14
ATOM     14  C   UNL     1      42.694   5.547  11.464  0.00  0.00    +0.000 C 
ATOM     15  F   UNL     1      42.751   5.462  12.815  0.00  0.00    +0.000 F 
ATOM     16  F   UNL     1      42.736   6.867  11.152  0.00  0.00    +0.000 F 
ENDBRANCH  13  14
ENDBRANCH  11  13
ENDBRANCH   5   7
BRANCH   1  17
ATOM     17  C   UNL     1      49.191   8.351  16.477  0.00  0.00    +0.000 C 
ATOM     18  C   UNL     1      49.040   9.826  16.842  0.00  0.00    +0.000 C 
ATOM     19  C   UNL     1      47.974   8.862  17.229  0.00  0.00    +0.000 C 
BRANCH  17  20
ATOM     20  O   UNL     1      50.236   7.699  17.251  0.00  0.00    +0.000 OA
BRANCH  20  25
ATOM     21  C   UNL     1      48.877   4.331  17.315  0.00  0.00    +0.000 A 
ATOM     22  C   UNL     1      50.054   3.599  17.325  0.00  0.00    +0.000 A 
ATOM     23  N   UNL     1      51.280   4.162  17.273  0.00  0.00    +0.000 NA
ATOM     24  C   UNL     1      51.322   5.512  17.233  0.00  0.00    +0.000 A 
ATOM     25  C   UNL     1      50.205   6.332  17.267  0.00  0.00    +0.000 A 
ATOM     26  C   UNL     1      48.952   5.729  17.274  0.00  0.00    +0.000 A 
BRANCH  21  28
ATOM     27  N   UNL     1      46.587   3.102  17.403  0.00  0.00    +0.000 NA
ATOM     28  C   UNL     1      47.612   3.654  17.360  0.00  0.00    +0.000 C 
ENDBRANCH  21  28
ENDBRANCH  20  25
ENDBRANCH  17  20
ENDBRANCH   1  17
TORSDOF 7
ENDMDL
MODEL 9
REMARK VINA RESULT:    -6.164      2.544      4.236
REMARK INTER + INTRA:          -9.249
REMARK INTER:                  -8.227
REMARK INTRA:                  -1.022
REMARK UNBOUND:                -0.563
REMARK  Name = 
REMARK  7 active torsions:
REMARK  status: ('A' for Active; 'I' for Inactive)
REMARK    1  A    between atoms: C_2  and  C_3
REMARK    2  A    between atoms: C_7  and  O_8
REMARK    3  A    between atoms: O_8  and  C_9
REMARK    4  A    between atoms: C_9  and  C_10
REMARK    5  A    between atoms: C_14  and  C_15
REMARK    6  A    between atoms: C_19  and  O_20
REMARK    7  A    between atoms: O_20  and  C_21
REMARK                            x       y       z     vdW  Elec       q    Type
REMARK                         _______ _______ _______ _____ _____    ______ ____
ROOT
ATOM      1  C   UNL     1      48.293   8.057  14.426  0.00  0.00    +0.000 A 
ATOM      2  C   UNL     1      48.002   9.295  15.019  0.00  0.00    +0.000 A 
ATOM      3  C   UNL     1      48.242   9.522  16.374  0.00  0.00    +0.000 A 
ATOM      4  C   UNL     1      48.757   8.502  17.174  0.00  0.00    +0.000 A 
ATOM      5  C   UNL     1      49.085   7.252  16.629  0.00  0.00    +0.000 A 
ATOM      6  C   UNL     1      48.895   7.081  15.247  0.00  0.00    +0.000 A 
ENDROOT
BRANCH   5   7
ATOM      7  C   UNL     1      49.519   6.125  17.478  0.00  0.00    +0.000 A 
ATOM      8  C   UNL     1      49.051   5.985  18.789  0.00  0.00    +0.000 A 
ATOM      9  N   UNL     1      49.384   4.979  19.631  0.00  0.00    +0.000 NA
ATOM     10  C   UNL     1      50.222   4.044  19.142  0.00  0.00    +0.000 A 
ATOM     11  C   UNL     1      50.722   4.043  17.847  0.00  0.00    +0.000 A 
ATOM     12  C   UNL     1      50.378   5.110  17.016  0.00  0.00    +0.000 A 
BRANCH  11  13
ATOM     13  O   UNL     1      51.543   3.004  17.520  0.00  0.00    +0.000 OA
BRANCH  13  14
ATOM     14  C   UNL     1      50.906   1.748  17.363  0.00  0.00    +0.000 C 
ATOM     15  F   UNL     1      50.011   1.838  16.349  0.00  0.00    +0.000 F 
ATOM     16  F   UNL     1      51.857   0.864  16.970  0.00  0.00    +0.000 F 
ENDBRANCH  13  14
ENDBRANCH  11  13
ENDBRANCH   5   7
BRANCH   1  17
ATOM     17  C   UNL     1      47.874   7.722  12.997  0.00  0.00    +0.000 C 
ATOM     18  C   UNL     1      48.593   8.465  11.872  0.00  0.00    +0.000 C 
ATOM     19  C   UNL     1      48.863   7.016  12.085  0.00  0.00    +0.000 C 
BRANCH  17  20
ATOM     20  O   UNL     1      46.456   7.546  12.718  0.00  0.00    +0.000 OA
BRANCH  20  25
ATOM     21  C   UNL     1      45.196   4.579  11.045  0.00  0.00    +0.000 A 
ATOM     22  C   UNL     1      45.158   3.699  12.116  0.00  0.00    +0.000 A 
ATOM     23  N   UNL     1      45.565   4.025  13.361  0.00  0.00    +0.000 NA
ATOM     24  C   UNL     1      46.005   5.291  13.539  0.00  0.00    +0.000 A 
ATOM     25  C   UNL     1      46.037   6.256  12.544  0.00  0.00    +0.000 A 
ATOM     26  C   UNL     1      45.655   5.884  11.260  0.00  0.00    +0.000 A 
BRANCH  21  28
ATOM     27  N   UNL     1      44.404   3.799   8.694  0.00  0.00    +0.000 NA
ATOM     28  C   UNL     1      44.755   4.148   9.748  0.00  0.00    +0.000 C 
ENDBRANCH  21  28
ENDBRANCH  20  25
ENDBRANCH  17  20
ENDBRANCH   1  17
TORSDOF 7
ENDMDL
