MODEL 1
REMARK VINA RESULT:    -8.442      0.000      0.000
REMARK INTER + INTRA:         -11.422
REMARK INTER:                 -10.909
REMARK INTRA:                  -0.513
REMARK UNBOUND:                -0.513
REMARK  Name = 
REMARK  6 active torsions:
REMARK  status: ('A' for Active; 'I' for Inactive)
REMARK    1  A    between atoms: C_1  and  O_2
REMARK    2  A    between atoms: O_2  and  C_3
REMARK    3  A    between atoms: C_5  and  C_6
REMARK    4  A    between atoms: C_6  and  N_7
REMARK    5  A    between atoms: N_7  and  C_8
REMARK    6  A    between atoms: C_11  and  C_12
REMARK                            x       y       z     vdW  Elec       q    Type
REMARK                         _______ _______ _______ _____ _____    ______ ____
ROOT
ATOM      1  N   UNL     1      43.786   3.716  10.632  0.00  0.00    +0.000 N 
ATOM      2  H   UNL     1      42.985   3.112  10.787  0.00  0.00    +0.000 HD
ENDROOT
BRANCH   1   3
ATOM      3  C   UNL     1      44.638   3.328   9.596  0.00  0.00    +0.000 A 
ATOM      4  C   UNL     1      45.105   2.049   9.351  0.00  0.00    +0.000 A 
ATOM      5  N   UNL     1      45.984   1.721   8.369  0.00  0.00    +0.000 NA
ATOM      6  C   UNL     1      46.386   2.750   7.581  0.00  0.00    +0.000 A 
ATOM      7  N   UNL     1      45.978   4.025   7.691  0.00  0.00    +0.000 NA
ATOM      8  C   UNL     1      45.116   4.270   8.695  0.00  0.00    +0.000 A 
BRANCH   6   9
ATOM      9  C   UNL     1      47.438   2.454   6.532  0.00  0.00    +0.000 C 
ATOM     10  N   UNL     1      47.382   3.220   5.391  0.00  0.00    +0.000 N 
ATOM     11  O   UNL     1      48.292   1.579   6.643  0.00  0.00    +0.000 OA
ATOM     12  H   UNL     1      46.654   3.913   5.276  0.00  0.00    +0.000 HD
ATOM     13  H   UNL     1      48.022   3.010   4.639  0.00  0.00    +0.000 HD
ENDBRANCH   6   9
ENDBRANCH   1   3
BRANCH   1  14
ATOM     14  C   UNL     1      43.900   4.917  11.471  0.00  0.00    +0.000 C 
ATOM     15  C   UNL     1      43.025   6.129  11.230  0.00  0.00    +0.000 C 
ATOM     16  C   UNL     1      42.676   5.203  12.345  0.00  0.00    +0.000 C 
BRANCH  14  19
ATOM     17  C   UNL     1      46.975   4.215  13.657  0.00  0.00    +0.000 A 
ATOM     18  C   UNL     1      45.718   4.053  13.086  0.00  0.00    +0.000 A 
ATOM     19  C   UNL     1      45.230   5.032  12.211  0.00  0.00    +0.000 A 
ATOM     20  C   UNL     1      46.052   6.150  11.996  0.00  0.00    +0.000 A 
ATOM     21  C   UNL     1      47.286   6.231  12.615  0.00  0.00    +0.000 A 
ATOM     22  N   UNL     1      47.769   5.281  13.435  0.00  0.00    +0.000 NA
BRANCH  17  24
ATOM     23  C   UNL     1      47.498   3.614  15.854  0.00  0.00    +0.000 C 
ATOM     24  O   UNL     1      47.416   3.205  14.490  0.00  0.00    +0.000 OA
ENDBRANCH  17  24
ENDBRANCH  14  19
ENDBRANCH   1  14
TORSDOF 5
ENDMDL
MODEL 2
REMARK VINA RESULT:    -7.901      1.087      1.762
REMARK INTER + INTRA:         -10.724
REMARK INTER:                 -10.254
REMARK INTRA:                  -0.470
REMARK UNBOUND:                -0.513
REMARK  Name = 
REMARK  6 active torsions:
REMARK  status: ('A' for Active; 'I' for Inactive)
REMARK    1  A    between atoms: C_1  and  O_2
REMARK    2  A    between atoms: O_2  and  C_3
REMARK    3  A    between atoms: C_5  and  C_6
REMARK    4  A    between atoms: C_6  and  N_7
REMARK    5  A    between atoms: N_7  and  C_8
REMARK    6  A    between atoms: C_11  and  C_12
REMARK                            x       y       z     vdW  Elec       q    Type
REMARK                         _______ _______ _______ _____ _____    ______ ____
ROOT
ATOM      1  N   UNL     1      43.804   3.646  10.501  0.00  0.00    +0.000 N 
ATOM      2  H   UNL     1      43.000   3.044  10.642  0.00  0.00    +0.000 HD
ENDROOT
BRANCH   1   3
ATOM      3  C   UNL     1      44.665   3.264   9.470  0.00  0.00    +0.000 A 
ATOM      4  C   UNL     1      45.166   1.995   9.244  0.00  0.00    +0.000 A 
ATOM      5  N   UNL     1      46.052   1.675   8.265  0.00  0.00    +0.000 NA
ATOM      6  C   UNL     1      46.427   2.702   7.461  0.00  0.00    +0.000 A 
ATOM      7  N   UNL     1      45.985   3.967   7.552  0.00  0.00    +0.000 NA
ATOM      8  C   UNL     1      45.117   4.205   8.554  0.00  0.00    +0.000 A 
BRANCH   6   9
ATOM      9  C   UNL     1      47.485   2.418   6.416  0.00  0.00    +0.000 C 
ATOM     10  N   UNL     1      47.407   3.165   5.263  0.00  0.00    +0.000 N 
ATOM     11  O   UNL     1      48.361   1.567   6.540  0.00  0.00    +0.000 OA
ATOM     12  H   UNL     1      46.660   3.835   5.138  0.00  0.00    +0.000 HD
ATOM     13  H   UNL     1      48.052   2.960   4.513  0.00  0.00    +0.000 HD
ENDBRANCH   6   9
ENDBRANCH   1   3
BRANCH   1  14
ATOM     14  C   UNL     1      43.915   4.837  11.354  0.00  0.00    +0.000 C 
ATOM     15  C   UNL     1      43.089   6.077  11.081  0.00  0.00    +0.000 C 
ATOM     16  C   UNL     1      42.661   5.155  12.172  0.00  0.00    +0.000 C 
BRANCH  14  19
ATOM     17  C   UNL     1      47.115   6.052  13.088  0.00  0.00    +0.000 A 
ATOM     18  C   UNL     1      45.987   6.068  12.277  0.00  0.00    +0.000 A 
ATOM     19  C   UNL     1      45.212   4.907  12.155  0.00  0.00    +0.000 A 
ATOM     20  C   UNL     1      45.663   3.774  12.851  0.00  0.00    +0.000 A 
ATOM     21  C   UNL     1      46.805   3.848  13.629  0.00  0.00    +0.000 A 
ATOM     22  N   UNL     1      47.536   4.967  13.769  0.00  0.00    +0.000 NA
BRANCH  17  24
ATOM     23  C   UNL     1      49.176   7.102  12.758  0.00  0.00    +0.000 C 
ATOM     24  O   UNL     1      47.824   7.233  13.194  0.00  0.00    +0.000 OA
ENDBRANCH  17  24
ENDBRANCH  14  19
ENDBRANCH   1  14
TORSDOF 5
ENDMDL
MODEL 3
REMARK VINA RESULT:    -6.989      1.935      6.624
REMARK INTER + INTRA:          -9.546
REMARK INTER:                  -9.180
REMARK INTRA:                  -0.366
REMARK UNBOUND:                -0.513
REMARK  Name = 
REMARK  6 active torsions:
REMARK  status: ('A' for Active; 'I' for Inactive)
REMARK    1  A    between atoms: C_1  and  O_2
REMARK    2  A    between atoms: O_2  and  C_3
REMARK    3  A    between atoms: C_5  and  C_6
REMARK    4  A    between atoms: C_6  and  N_7
REMARK    5  A    between atoms: N_7  and  C_8
REMARK    6  A    between atoms: C_11  and  C_12
REMARK                            x       y       z     vdW  Elec       q    Type
REMARK                         _______ _______ _______ _____ _____    ______ ____
ROOT
ATOM      1  N   UNL     1      46.217   5.752  12.370  0.00  0.00    +0.000 N 
ATOM      2  H   UNL     1      46.777   6.522  12.019  0.00  0.00    +0.000 HD
ENDROOT
BRANCH   1   3
ATOM      3  C   UNL     1      46.765   5.056  13.450  0.00  0.00    +0.000 A 
ATOM      4  C   UNL     1      47.356   5.612  14.571  0.00  0.00    +0.000 A 
ATOM      5  N   UNL     1      47.934   4.900  15.573  0.00  0.00    +0.000 NA
ATOM      6  C   UNL     1      47.883   3.552  15.434  0.00  0.00    +0.000 A 
ATOM      7  N   UNL     1      47.306   2.892  14.416  0.00  0.00    +0.000 NA
ATOM      8  C   UNL     1      46.765   3.668  13.458  0.00  0.00    +0.000 A 
BRANCH   6   9
ATOM      9  C   UNL     1      48.597   2.716  16.476  0.00  0.00    +0.000 C 
ATOM     10  N   UNL     1      48.418   3.104  17.784  0.00  0.00    +0.000 N 
ATOM     11  O   UNL     1      49.318   1.758  16.212  0.00  0.00    +0.000 OA
ATOM     12  H   UNL     1      47.860   3.918  18.003  0.00  0.00    +0.000 HD
ATOM     13  H   UNL     1      48.930   2.615  18.505  0.00  0.00    +0.000 HD
ENDBRANCH   6   9
ENDBRANCH   1   3
BRANCH   1  14
ATOM     14  C   UNL     1      44.912   5.519  11.735  0.00  0.00    +0.000 C 
ATOM     15  C   UNL     1      43.620   5.749  12.491  0.00  0.00    +0.000 C 
ATOM     16  C   UNL     1      44.075   6.783  11.517  0.00  0.00    +0.000 C 
BRANCH  14  19
ATOM     17  C   UNL     1      45.688   3.986   8.305  0.00  0.00    +0.000 A 
ATOM     18  C   UNL     1      45.630   4.922   9.330  0.00  0.00    +0.000 A 
ATOM     19  C   UNL     1      44.969   4.596  10.521  0.00  0.00    +0.000 A 
ATOM     20  C   UNL     1      44.368   3.329  10.581  0.00  0.00    +0.000 A 
ATOM     21  C   UNL     1      44.470   2.463   9.507  0.00  0.00    +0.000 A 
ATOM     22  N   UNL     1      45.125   2.762   8.372  0.00  0.00    +0.000 NA
BRANCH  17  24
ATOM     23  C   UNL     1      46.628   3.246   6.297  0.00  0.00    +0.000 C 
ATOM     24  O   UNL     1      46.377   4.351   7.164  0.00  0.00    +0.000 OA
ENDBRANCH  17  24
ENDBRANCH  14  19
ENDBRANCH   1  14
TORSDOF 5
ENDMDL
MODEL 4
REMARK VINA RESULT:    -6.930      1.537      2.055
REMARK INTER + INTRA:          -9.469
REMARK INTER:                  -9.485
REMARK INTRA:                   0.016
REMARK UNBOUND:                -0.513
REMARK  Name = 
REMARK  6 active torsions:
REMARK  status: ('A' for Active; 'I' for Inactive)
REMARK    1  A    between atoms: C_1  and  O_2
REMARK    2  A    between atoms: O_2  and  C_3
REMARK    3  A    between atoms: C_5  and  C_6
REMARK    4  A    between atoms: C_6  and  N_7
REMARK    5  A    between atoms: N_7  and  C_8
REMARK    6  A    between atoms: C_11  and  C_12
REMARK                            x       y       z     vdW  Elec       q    Type
REMARK                         _______ _______ _______ _____ _____    ______ ____
ROOT
ATOM      1  N   UNL     1      43.833   4.449  10.178  0.00  0.00    +0.000 N 
ATOM      2  H   UNL     1      42.929   4.629   9.754  0.00  0.00    +0.000 HD
ENDROOT
BRANCH   1   3
ATOM      3  C   UNL     1      44.817   3.968   9.311  0.00  0.00    +0.000 A 
ATOM      4  C   UNL     1      45.622   4.726   8.479  0.00  0.00    +0.000 A 
ATOM      5  N   UNL     1      46.526   4.216   7.602  0.00  0.00    +0.000 NA
ATOM      6  C   UNL     1      46.629   2.863   7.594  0.00  0.00    +0.000 A 
ATOM      7  N   UNL     1      45.934   2.021   8.377  0.00  0.00    +0.000 NA
ATOM      8  C   UNL     1      45.052   2.604   9.210  0.00  0.00    +0.000 A 
BRANCH   6   9
ATOM      9  C   UNL     1      47.553   2.242   6.568  0.00  0.00    +0.000 C 
ATOM     10  N   UNL     1      47.866   3.029   5.484  0.00  0.00    +0.000 N 
ATOM     11  O   UNL     1      47.999   1.100   6.648  0.00  0.00    +0.000 OA
ATOM     12  H   UNL     1      47.466   3.953   5.392  0.00  0.00    +0.000 HD
ATOM     13  H   UNL     1      48.424   2.629   4.744  0.00  0.00    +0.000 HD
ENDBRANCH   6   9
ENDBRANCH   1   3
BRANCH   1  14
ATOM     14  C   UNL     1      43.986   4.765  11.604  0.00  0.00    +0.000 C 
ATOM     15  C   UNL     1      42.886   4.458  12.599  0.00  0.00    +0.000 C 
ATOM     16  C   UNL     1      44.061   3.543  12.524  0.00  0.00    +0.000 C 
BRANCH  14  19
ATOM     17  C   UNL     1      47.242   6.557  12.559  0.00  0.00    +0.000 A 
ATOM     18  C   UNL     1      46.320   5.530  12.396  0.00  0.00    +0.000 A 
ATOM     19  C   UNL     1      45.046   5.825  11.894  0.00  0.00    +0.000 A 
ATOM     20  C   UNL     1      44.774   7.175  11.620  0.00  0.00    +0.000 A 
ATOM     21  C   UNL     1      45.752   8.132  11.822  0.00  0.00    +0.000 A 
ATOM     22  N   UNL     1      46.985   7.850  12.278  0.00  0.00    +0.000 NA
BRANCH  17  24
ATOM     23  C   UNL     1      48.758   6.729  14.329  0.00  0.00    +0.000 C 
ATOM     24  O   UNL     1      48.492   6.204  13.030  0.00  0.00    +0.000 OA
ENDBRANCH  17  24
ENDBRANCH  14  19
ENDBRANCH   1  14
TORSDOF 5
ENDMDL
MODEL 5
REMARK VINA RESULT:    -6.671      2.050      6.433
REMARK INTER + INTRA:          -9.134
REMARK INTER:                  -8.814
REMARK INTRA:                  -0.320
REMARK UNBOUND:                -0.513
REMARK  Name = 
REMARK  6 active torsions:
REMARK  status: ('A' for Active; 'I' for Inactive)
REMARK    1  A    between atoms: C_1  and  O_2
REMARK    2  A    between atoms: O_2  and  C_3
REMARK    3  A    between atoms: C_5  and  C_6
REMARK    4  A    between atoms: C_6  and  N_7
REMARK    5  A    between atoms: N_7  and  C_8
REMARK    6  A    between atoms: C_11  and  C_12
REMARK                            x       y       z     vdW  Elec       q    Type
REMARK                         _______ _______ _______ _____ _____    ______ ____
ROOT
ATOM      1  N   UNL     1      44.850   6.522  11.703  0.00  0.00    +0.000 N 
ATOM      2  H   UNL     1      44.565   7.340  11.176  0.00  0.00    +0.000 HD
ENDROOT
BRANCH   1   3
ATOM      3  C   UNL     1      45.983   6.689  12.502  0.00  0.00    +0.000 A 
ATOM      4  C   UNL     1      46.510   7.890  12.940  0.00  0.00    +0.000 A 
ATOM      5  N   UNL     1      47.652   8.016  13.666  0.00  0.00    +0.000 NA
ATOM      6  C   UNL     1      48.273   6.851  13.980  0.00  0.00    +0.000 A 
ATOM      7  N   UNL     1      47.843   5.622  13.649  0.00  0.00    +0.000 NA
ATOM      8  C   UNL     1      46.711   5.583  12.921  0.00  0.00    +0.000 A 
BRANCH   6   9
ATOM      9  C   UNL     1      49.599   6.942  14.706  0.00  0.00    +0.000 C 
ATOM     10  N   UNL     1      50.572   7.692  14.088  0.00  0.00    +0.000 N 
ATOM     11  O   UNL     1      49.840   6.378  15.769  0.00  0.00    +0.000 OA
ATOM     12  H   UNL     1      50.393   8.122  13.190  0.00  0.00    +0.000 HD
ATOM     13  H   UNL     1      51.492   7.723  14.504  0.00  0.00    +0.000 HD
ENDBRANCH   6   9
ENDBRANCH   1   3
BRANCH   1  14
ATOM     14  C   UNL     1      44.014   5.319  11.590  0.00  0.00    +0.000 C 
ATOM     15  C   UNL     1      43.196   4.819  12.762  0.00  0.00    +0.000 C 
ATOM     16  C   UNL     1      42.508   5.578  11.679  0.00  0.00    +0.000 C 
BRANCH  14  19
ATOM     17  C   UNL     1      45.538   3.868   8.381  0.00  0.00    +0.000 A 
ATOM     18  C   UNL     1      45.158   4.805   9.335  0.00  0.00    +0.000 A 
ATOM     19  C   UNL     1      44.417   4.389  10.448  0.00  0.00    +0.000 A 
ATOM     20  C   UNL     1      44.073   3.029  10.503  0.00  0.00    +0.000 A 
ATOM     21  C   UNL     1      44.488   2.169   9.502  0.00  0.00    +0.000 A 
ATOM     22  N   UNL     1      45.222   2.559   8.446  0.00  0.00    +0.000 NA
BRANCH  17  24
ATOM     23  C   UNL     1      46.650   3.292   6.408  0.00  0.00    +0.000 C 
ATOM     24  O   UNL     1      46.293   4.330   7.319  0.00  0.00    +0.000 OA
ENDBRANCH  17  24
ENDBRANCH  14  19
ENDBRANCH   1  14
TORSDOF 5
ENDMDL
MODEL 6
REMARK VINA RESULT:    -6.266      2.892      6.546
REMARK INTER + INTRA:          -8.610
REMARK INTER:                  -8.347
REMARK INTRA:                  -0.263
REMARK UNBOUND:                -0.513
REMARK  Name = 
REMARK  6 active torsions:
REMARK  status: ('A' for Active; 'I' for Inactive)
REMARK    1  A    between atoms: C_1  and  O_2
REMARK    2  A    between atoms: O_2  and  C_3
REMARK    3  A    between atoms: C_5  and  C_6
REMARK    4  A    between atoms: C_6  and  N_7
REMARK    5  A    between atoms: N_7  and  C_8
REMARK    6  A    between atoms: C_11  and  C_12
REMARK                            x       y       z     vdW  Elec       q    Type
REMARK                         _______ _______ _______ _____ _____    ______ ____
ROOT
ATOM      1  N   UNL     1      47.093   6.574  12.776  0.00  0.00    +0.000 N 
ATOM      2  H   UNL     1      47.902   6.920  12.272  0.00  0.00    +0.000 HD
ENDROOT
BRANCH   1   3
ATOM      3  C   UNL     1      47.367   5.652  13.789  0.00  0.00    +0.000 A 
ATOM      4  C   UNL     1      47.973   5.920  15.003  0.00  0.00    +0.000 A 
ATOM      5  N   UNL     1      48.280   4.984  15.938  0.00  0.00    +0.000 NA
ATOM      6  C   UNL     1      47.926   3.712  15.626  0.00  0.00    +0.000 A 
ATOM      7  N   UNL     1      47.299   3.328  14.501  0.00  0.00    +0.000 NA
ATOM      8  C   UNL     1      47.040   4.313  13.621  0.00  0.00    +0.000 A 
BRANCH   6   9
ATOM      9  C   UNL     1      48.331   2.619  16.593  0.00  0.00    +0.000 C 
ATOM     10  N   UNL     1      47.686   2.621  17.808  0.00  0.00    +0.000 N 
ATOM     11  O   UNL     1      49.192   1.777  16.355  0.00  0.00    +0.000 OA
ATOM     12  H   UNL     1      47.007   3.338  18.025  0.00  0.00    +0.000 HD
ATOM     13  H   UNL     1      47.975   1.951  18.507  0.00  0.00    +0.000 HD
ENDBRANCH   6   9
ENDBRANCH   1   3
BRANCH   1  14
ATOM     14  C   UNL     1      45.781   7.123  12.408  0.00  0.00    +0.000 C 
ATOM     15  C   UNL     1      45.321   8.470  12.927  0.00  0.00    +0.000 C 
ATOM     16  C   UNL     1      45.838   8.377  11.531  0.00  0.00    +0.000 C 
BRANCH  14  19
ATOM     17  C   UNL     1      43.982   4.399  10.393  0.00  0.00    +0.000 A 
ATOM     18  C   UNL     1      44.903   5.390  10.711  0.00  0.00    +0.000 A 
ATOM     19  C   UNL     1      44.782   6.074  11.927  0.00  0.00    +0.000 A 
ATOM     20  C   UNL     1      43.691   5.726  12.740  0.00  0.00    +0.000 A 
ATOM     21  C   UNL     1      42.818   4.732  12.337  0.00  0.00    +0.000 A 
ATOM     22  N   UNL     1      42.945   4.054  11.184  0.00  0.00    +0.000 NA
BRANCH  17  24
ATOM     23  C   UNL     1      44.773   2.457   9.362  0.00  0.00    +0.000 C 
ATOM     24  O   UNL     1      44.166   3.737   9.194  0.00  0.00    +0.000 OA
ENDBRANCH  17  24
ENDBRANCH  14  19
ENDBRANCH   1  14
TORSDOF 5
ENDMDL
MODEL 7
REMARK VINA RESULT:    -5.697      2.457      6.556
REMARK INTER + INTRA:          -7.876
REMARK INTER:                  -7.822
REMARK INTRA:                  -0.054
REMARK UNBOUND:                -0.513
REMARK  Name = 
REMARK  6 active torsions:
REMARK  status: ('A' for Active; 'I' for Inactive)
REMARK    1  A    between atoms: C_1  and  O_2
REMARK    2  A    between atoms: O_2  and  C_3
REMARK    3  A    between atoms: C_5  and  C_6
REMARK    4  A    between atoms: C_6  and  N_7
REMARK    5  A    between atoms: N_7  and  C_8
REMARK    6  A    between atoms: C_11  and  C_12
REMARK                            x       y       z     vdW  Elec       q    Type
REMARK                         _______ _______ _______ _____ _____    ______ ____
ROOT
ATOM      1  N   UNL     1      47.168   6.361  12.682  0.00  0.00    +0.000 N 
ATOM      2  H   UNL     1      47.988   6.890  12.404  0.00  0.00    +0.000 HD
ENDROOT
BRANCH   1   3
ATOM      3  C   UNL     1      47.358   5.477  13.747  0.00  0.00    +0.000 A 
ATOM      4  C   UNL     1      47.018   4.136  13.772  0.00  0.00    +0.000 A 
ATOM      5  N   UNL     1      47.162   3.322  14.850  0.00  0.00    +0.000 NA
ATOM      6  C   UNL     1      47.703   3.903  15.951  0.00  0.00    +0.000 A 
ATOM      7  N   UNL     1      48.107   5.181  16.041  0.00  0.00    +0.000 NA
ATOM      8  C   UNL     1      47.921   5.925  14.934  0.00  0.00    +0.000 A 
BRANCH   6   9
ATOM      9  C   UNL     1      47.795   3.064  17.208  0.00  0.00    +0.000 C 
ATOM     10  N   UNL     1      49.061   2.872  17.711  0.00  0.00    +0.000 N 
ATOM     11  O   UNL     1      46.828   2.550  17.763  0.00  0.00    +0.000 OA
ATOM     12  H   UNL     1      49.865   3.256  17.232  0.00  0.00    +0.000 HD
ATOM     13  H   UNL     1      49.174   2.263  18.508  0.00  0.00    +0.000 HD
ENDBRANCH   6   9
ENDBRANCH   1   3
BRANCH   1  14
ATOM     14  C   UNL     1      45.912   6.637  11.972  0.00  0.00    +0.000 C 
ATOM     15  C   UNL     1      44.875   7.580  12.548  0.00  0.00    +0.000 C 
ATOM     16  C   UNL     1      45.770   8.074  11.462  0.00  0.00    +0.000 C 
BRANCH  14  19
ATOM     17  C   UNL     1      44.338   3.622  10.196  0.00  0.00    +0.000 A 
ATOM     18  C   UNL     1      44.679   4.499  11.218  0.00  0.00    +0.000 A 
ATOM     19  C   UNL     1      45.534   5.574  10.944  0.00  0.00    +0.000 A 
ATOM     20  C   UNL     1      46.025   5.669   9.631  0.00  0.00    +0.000 A 
ATOM     21  C   UNL     1      45.638   4.744   8.679  0.00  0.00    +0.000 A 
ATOM     22  N   UNL     1      44.796   3.727   8.932  0.00  0.00    +0.000 NA
BRANCH  17  24
ATOM     23  C   UNL     1      43.301   2.440  11.924  0.00  0.00    +0.000 C 
ATOM     24  O   UNL     1      43.468   2.598  10.517  0.00  0.00    +0.000 OA
ENDBRANCH  17  24
ENDBRANCH  14  19
ENDBRANCH   1  14
TORSDOF 5
ENDMDL
MODEL 8
REMARK VINA RESULT:    -5.529      3.123      5.223
REMARK INTER + INTRA:          -7.658
REMARK INTER:                  -7.564
REMARK INTRA:                  -0.094
REMARK UNBOUND:                -0.513
REMARK  Name = 
REMARK  6 active torsions:
REMARK  status: ('A' for Active; 'I' for Inactive)
REMARK    1  A    between atoms: C_1  and  O_2
REMARK    2  A    between atoms: O_2  and  C_3
REMARK    3  A    between atoms: C_5  and  C_6
REMARK    4  A    between atoms: C_6  and  N_7
REMARK    5  A    between atoms: N_7  and  C_8
REMARK    6  A    between atoms: C_11  and  C_12
REMARK                            x       y       z     vdW  Elec       q    Type
REMARK                         _______ _______ _______ _____ _____    ______ ____
ROOT
ATOM      1  N   UNL     1      46.994   6.907  13.781  0.00  0.00    +0.000 N 
ATOM      2  H   UNL     1      46.389   7.545  14.287  0.00  0.00    +0.000 HD
ENDROOT
BRANCH   1   3
ATOM      3  C   UNL     1      46.339   5.938  13.017  0.00  0.00    +0.000 A 
ATOM      4  C   UNL     1      45.850   6.097  11.733  0.00  0.00    +0.000 A 
ATOM      5  N   UNL     1      45.161   5.149  11.045  0.00  0.00    +0.000 NA
ATOM      6  C   UNL     1      44.986   3.970  11.694  0.00  0.00    +0.000 A 
ATOM      7  N   UNL     1      45.444   3.680  12.923  0.00  0.00    +0.000 NA
ATOM      8  C   UNL     1      46.106   4.675  13.543  0.00  0.00    +0.000 A 
BRANCH   6   9
ATOM      9  C   UNL     1      44.143   2.916  11.009  0.00  0.00    +0.000 C 
ATOM     10  N   UNL     1      44.726   2.287   9.933  0.00  0.00    +0.000 N 
ATOM     11  O   UNL     1      42.999   2.625  11.346  0.00  0.00    +0.000 OA
ATOM     12  H   UNL     1      45.651   2.554   9.624  0.00  0.00    +0.000 HD
ATOM     13  H   UNL     1      44.173   1.625   9.406  0.00  0.00    +0.000 HD
ENDBRANCH   6   9
ENDBRANCH   1   3
BRANCH   1  14
ATOM     14  C   UNL     1      48.444   7.124  13.883  0.00  0.00    +0.000 C 
ATOM     15  C   UNL     1      49.300   7.298  12.646  0.00  0.00    +0.000 C 
ATOM     16  C   UNL     1      48.915   8.508  13.428  0.00  0.00    +0.000 C 
BRANCH  14  19
ATOM     17  C   UNL     1      49.018   5.461  17.293  0.00  0.00    +0.000 A 
ATOM     18  C   UNL     1      48.359   5.886  16.145  0.00  0.00    +0.000 A 
ATOM     19  C   UNL     1      49.047   6.669  15.210  0.00  0.00    +0.000 A 
ATOM     20  C   UNL     1      50.373   7.007  15.524  0.00  0.00    +0.000 A 
ATOM     21  C   UNL     1      50.945   6.546  16.696  0.00  0.00    +0.000 A 
ATOM     22  N   UNL     1      50.298   5.772  17.584  0.00  0.00    +0.000 NA
BRANCH  17  24
ATOM     23  C   UNL     1      47.276   3.919  17.514  0.00  0.00    +0.000 C 
ATOM     24  O   UNL     1      48.301   4.667  18.167  0.00  0.00    +0.000 OA
ENDBRANCH  17  24
ENDBRANCH  14  19
ENDBRANCH   1  14
TORSDOF 5
ENDMDL
