MODEL 1
REMARK VINA RESULT:    -8.020      0.000      0.000
REMARK INTER + INTRA:         -11.540
REMARK INTER:                 -10.833
REMARK INTRA:                  -0.707
REMARK UNBOUND:                -0.707
REMARK  Name = 
REMARK  7 active torsions:
REMARK  status: ('A' for Active; 'I' for Inactive)
REMARK    1  A    between atoms: C_1  and  O_2
REMARK    2  A    between atoms: O_2  and  C_3
REMARK    3  A    between atoms: C_5  and  C_6
REMARK    4  A    between atoms: C_6  and  O_7
REMARK    5  A    between atoms: O_7  and  C_8
REMARK    6  A    between atoms: C_12  and  C_13
REMARK    7  A    between atoms: C_17  and  C_18
REMARK                            x       y       z     vdW  Elec       q    Type
REMARK                         _______ _______ _______ _____ _____    ______ ____
ROOT
ATOM      1  C   UNL     1      46.377   4.654  13.884  0.00  0.00    +0.000 A 
ATOM      2  C   UNL     1      45.266   4.466  13.064  0.00  0.00    +0.000 A 
ATOM      3  C   UNL     1      45.094   5.257  11.921  0.00  0.00    +0.000 A 
ATOM      4  C   UNL     1      46.074   6.205  11.588  0.00  0.00    +0.000 A 
ATOM      5  C   UNL     1      47.180   6.452  12.419  0.00  0.00    +0.000 A 
ATOM      6  C   UNL     1      47.323   5.633  13.554  0.00  0.00    +0.000 A 
ENDROOT
BRANCH   5   7
ATOM      7  C   UNL     1      48.082   7.602  12.175  0.00  0.00    +0.000 A 
ATOM      8  C   UNL     1      49.443   7.385  11.866  0.00  0.00    +0.000 A 
ATOM      9  C   UNL     1      50.296   8.438  11.534  0.00  0.00    +0.000 A 
ATOM     10  C   UNL     1      49.798   9.730  11.499  0.00  0.00    +0.000 A 
ATOM     11  F   UNL     1      50.605  10.738  11.145  0.00  0.00    +0.000 F 
ATOM     12  C   UNL     1      48.470   9.988  11.810  0.00  0.00    +0.000 A 
ATOM     13  C   UNL     1      47.620   8.932  12.156  0.00  0.00    +0.000 A 
ENDBRANCH   5   7
BRANCH   1  15
ATOM     14  C   UNL     1      47.565   4.583  15.943  0.00  0.00    +0.000 C 
ATOM     15  O   UNL     1      46.634   3.985  15.049  0.00  0.00    +0.000 OA
ENDBRANCH   1  15
BRANCH   3  16
ATOM     16  C   UNL     1      43.853   5.130  11.075  0.00  0.00    +0.000 C 
BRANCH  16  17
ATOM     17  O   UNL     1      43.760   3.800  10.583  0.00  0.00    +0.000 OA
BRANCH  17  18
ATOM     18  C   UNL     1      44.604   3.463   9.564  0.00  0.00    +0.000 A 
ATOM     19  C   UNL     1      44.989   4.503   8.725  0.00  0.00    +0.000 A 
ATOM     20  N   UNL     1      45.816   4.361   7.661  0.00  0.00    +0.000 NA
ATOM     21  C   UNL     1      46.282   3.116   7.417  0.00  0.00    +0.000 A 
ATOM     22  C   UNL     1      45.959   2.012   8.193  0.00  0.00    +0.000 A 
ATOM     23  C   UNL     1      45.106   2.191   9.286  0.00  0.00    +0.000 A 
BRANCH  22  24
ATOM     24  C   UNL     1      46.493   0.725   7.874  0.00  0.00    +0.000 C 
ATOM     25  N   UNL     1      46.939  -0.315   7.626  0.00  0.00    +0.000 NA
ENDBRANCH  22  24
ENDBRANCH  17  18
ENDBRANCH  16  17
ENDBRANCH   3  16
TORSDOF 6
ENDMDL
MODEL 2
REMARK VINA RESULT:    -7.676      1.164      1.745
REMARK INTER + INTRA:         -11.076
REMARK INTER:                 -10.235
REMARK INTRA:                  -0.841
REMARK UNBOUND:                -0.707
REMARK  Name = 
REMARK  7 active torsions:
REMARK  status: ('A' for Active; 'I' for Inactive)
REMARK    1  A    between atoms: C_1  and  O_2
REMARK    2  A    between atoms: O_2  and  C_3
REMARK    3  A    between atoms: C_5  and  C_6
REMARK    4  A    between atoms: C_6  and  O_7
REMARK    5  A    between atoms: O_7  and  C_8
REMARK    6  A    between atoms: C_12  and  C_13
REMARK    7  A    between atoms: C_17  and  C_18
REMARK                            x       y       z     vdW  Elec       q    Type
REMARK                         _______ _______ _______ _____ _____    ______ ____
ROOT
ATOM      1  C   UNL     1      46.250   4.863  13.678  0.00  0.00    +0.000 A 
ATOM      2  C   UNL     1      45.301   4.503  12.722  0.00  0.00    +0.000 A 
ATOM      3  C   UNL     1      45.264   5.160  11.486  0.00  0.00    +0.000 A 
ATOM      4  C   UNL     1      46.220   6.149  11.205  0.00  0.00    +0.000 A 
ATOM      5  C   UNL     1      47.157   6.567  12.164  0.00  0.00    +0.000 A 
ATOM      6  C   UNL     1      47.169   5.879  13.391  0.00  0.00    +0.000 A 
ENDROOT
BRANCH   5   7
ATOM      7  C   UNL     1      48.009   7.759  11.936  0.00  0.00    +0.000 A 
ATOM      8  C   UNL     1      47.460   9.055  12.045  0.00  0.00    +0.000 A 
ATOM      9  C   UNL     1      48.253  10.199  11.934  0.00  0.00    +0.000 A 
ATOM     10  C   UNL     1      49.614  10.062  11.720  0.00  0.00    +0.000 A 
ATOM     11  F   UNL     1      50.383  11.156  11.650  0.00  0.00    +0.000 F 
ATOM     12  C   UNL     1      50.191   8.806  11.593  0.00  0.00    +0.000 A 
ATOM     13  C   UNL     1      49.392   7.662  11.690  0.00  0.00    +0.000 A 
ENDBRANCH   5   7
BRANCH   1  15
ATOM     14  C   UNL     1      47.545   3.611  15.230  0.00  0.00    +0.000 C 
ATOM     15  O   UNL     1      46.358   4.336  14.936  0.00  0.00    +0.000 OA
ENDBRANCH   1  15
BRANCH   3  16
ATOM     16  C   UNL     1      44.188   4.847  10.478  0.00  0.00    +0.000 C 
BRANCH  16  17
ATOM     17  O   UNL     1      44.755   4.855   9.174  0.00  0.00    +0.000 OA
BRANCH  17  18
ATOM     18  C   UNL     1      45.271   3.675   8.723  0.00  0.00    +0.000 A 
ATOM     19  C   UNL     1      44.744   2.523   9.297  0.00  0.00    +0.000 A 
ATOM     20  N   UNL     1      45.132   1.264   8.979  0.00  0.00    +0.000 NA
ATOM     21  C   UNL     1      46.101   1.146   8.044  0.00  0.00    +0.000 A 
ATOM     22  C   UNL     1      46.692   2.231   7.413  0.00  0.00    +0.000 A 
ATOM     23  C   UNL     1      46.267   3.517   7.759  0.00  0.00    +0.000 A 
BRANCH  22  24
ATOM     24  C   UNL     1      47.710   2.027   6.431  0.00  0.00    +0.000 C 
ATOM     25  N   UNL     1      48.546   1.857   5.647  0.00  0.00    +0.000 NA
ENDBRANCH  22  24
ENDBRANCH  17  18
ENDBRANCH  16  17
ENDBRANCH   3  16
TORSDOF 6
ENDMDL
MODEL 3
REMARK VINA RESULT:    -7.072      1.311      1.711
REMARK INTER + INTRA:         -10.259
REMARK INTER:                  -9.315
REMARK INTRA:                  -0.944
REMARK UNBOUND:                -0.707
REMARK  Name = 
REMARK  7 active torsions:
REMARK  status: ('A' for Active; 'I' for Inactive)
REMARK    1  A    between atoms: C_1  and  O_2
REMARK    2  A    between atoms: O_2  and  C_3
REMARK    3  A    between atoms: C_5  and  C_6
REMARK    4  A    between atoms: C_6  and  O_7
REMARK    5  A    between atoms: O_7  and  C_8
REMARK    6  A    between atoms: C_12  and  C_13
REMARK    7  A    between atoms: C_17  and  C_18
REMARK                            x       y       z     vdW  Elec       q    Type
REMARK                         _______ _______ _______ _____ _____    ______ ____
ROOT
ATOM      1  C   UNL     1      47.171   5.026  14.331  0.00  0.00    +0.000 A 
ATOM      2  C   UNL     1      45.889   4.755  13.856  0.00  0.00    +0.000 A 
ATOM      3  C   UNL     1      45.332   5.546  12.844  0.00  0.00    +0.000 A 
ATOM      4  C   UNL     1      46.095   6.582  12.283  0.00  0.00    +0.000 A 
ATOM      5  C   UNL     1      47.371   6.911  12.772  0.00  0.00    +0.000 A 
ATOM      6  C   UNL     1      47.900   6.090  13.784  0.00  0.00    +0.000 A 
ENDROOT
BRANCH   5   7
ATOM      7  C   UNL     1      48.070   8.140  12.327  0.00  0.00    +0.000 A 
ATOM      8  C   UNL     1      49.428   8.086  11.944  0.00  0.00    +0.000 A 
ATOM      9  C   UNL     1      50.089   9.201  11.427  0.00  0.00    +0.000 A 
ATOM     10  C   UNL     1      49.396  10.391  11.277  0.00  0.00    +0.000 A 
ATOM     11  F   UNL     1      50.017  11.453  10.748  0.00  0.00    +0.000 F 
ATOM     12  C   UNL     1      48.065  10.491  11.655  0.00  0.00    +0.000 A 
ATOM     13  C   UNL     1      47.408   9.375  12.187  0.00  0.00    +0.000 A 
ENDBRANCH   5   7
BRANCH   1  15
ATOM     14  C   UNL     1      48.267   5.151  16.438  0.00  0.00    +0.000 C 
ATOM     15  O   UNL     1      47.806   4.364  15.346  0.00  0.00    +0.000 OA
ENDBRANCH   1  15
BRANCH   3  16
ATOM     16  C   UNL     1      43.914   5.324  12.384  0.00  0.00    +0.000 C 
BRANCH  16  17
ATOM     17  O   UNL     1      43.850   5.497  10.974  0.00  0.00    +0.000 OA
BRANCH  17  18
ATOM     18  C   UNL     1      44.225   4.432  10.208  0.00  0.00    +0.000 A 
ATOM     19  C   UNL     1      43.778   3.187  10.638  0.00  0.00    +0.000 A 
ATOM     20  N   UNL     1      44.052   2.018  10.010  0.00  0.00    +0.000 NA
ATOM     21  C   UNL     1      44.816   2.091   8.897  0.00  0.00    +0.000 A 
ATOM     22  C   UNL     1      45.311   3.282   8.386  0.00  0.00    +0.000 A 
ATOM     23  C   UNL     1      45.008   4.472   9.054  0.00  0.00    +0.000 A 
BRANCH  22  24
ATOM     24  C   UNL     1      46.112   3.282   7.202  0.00  0.00    +0.000 C 
ATOM     25  N   UNL     1      46.772   3.291   6.250  0.00  0.00    +0.000 NA
ENDBRANCH  22  24
ENDBRANCH  17  18
ENDBRANCH  16  17
ENDBRANCH   3  16
TORSDOF 6
ENDMDL
MODEL 4
REMARK VINA RESULT:    -6.987      3.875      6.977
REMARK INTER + INTRA:         -10.145
REMARK INTER:                  -9.218
REMARK INTRA:                  -0.927
REMARK UNBOUND:                -0.707
REMARK  Name = 
REMARK  7 active torsions:
REMARK  status: ('A' for Active; 'I' for Inactive)
REMARK    1  A    between atoms: C_1  and  O_2
REMARK    2  A    between atoms: O_2  and  C_3
REMARK    3  A    between atoms: C_5  and  C_6
REMARK    4  A    between atoms: C_6  and  O_7
REMARK    5  A    between atoms: O_7  and  C_8
REMARK    6  A    between atoms: C_12  and  C_13
REMARK    7  A    between atoms: C_17  and  C_18
REMARK                            x       y       z     vdW  Elec       q    Type
REMARK                         _______ _______ _______ _____ _____    ______ ____
ROOT
ATOM      1  C   UNL     1      43.644   3.474  11.110  0.00  0.00    +0.000 A 
ATOM      2  C   UNL     1      44.095   4.656  11.695  0.00  0.00    +0.000 A 
ATOM      3  C   UNL     1      45.116   5.396  11.087  0.00  0.00    +0.000 A 
ATOM      4  C   UNL     1      45.645   4.960   9.862  0.00  0.00    +0.000 A 
ATOM      5  C   UNL     1      45.245   3.749   9.272  0.00  0.00    +0.000 A 
ATOM      6  C   UNL     1      44.212   3.037   9.908  0.00  0.00    +0.000 A 
ENDROOT
BRANCH   5   7
ATOM      7  C   UNL     1      45.965   3.191   8.103  0.00  0.00    +0.000 A 
ATOM      8  C   UNL     1      46.357   4.034   7.040  0.00  0.00    +0.000 A 
ATOM      9  C   UNL     1      47.122   3.562   5.973  0.00  0.00    +0.000 A 
ATOM     10  C   UNL     1      47.515   2.234   5.955  0.00  0.00    +0.000 A 
ATOM     11  F   UNL     1      48.279   1.786   4.951  0.00  0.00    +0.000 F 
ATOM     12  C   UNL     1      47.139   1.368   6.972  0.00  0.00    +0.000 A 
ATOM     13  C   UNL     1      46.360   1.841   8.035  0.00  0.00    +0.000 A 
ENDBRANCH   5   7
BRANCH   1  15
ATOM     14  C   UNL     1      43.113   1.323  11.974  0.00  0.00    +0.000 C 
ATOM     15  O   UNL     1      42.693   2.637  11.628  0.00  0.00    +0.000 OA
ENDBRANCH   1  15
BRANCH   3  16
ATOM     16  C   UNL     1      45.679   6.626  11.753  0.00  0.00    +0.000 C 
BRANCH  16  17
ATOM     17  O   UNL     1      47.084   6.468  11.909  0.00  0.00    +0.000 OA
BRANCH  17  18
ATOM     18  C   UNL     1      47.535   6.214  13.172  0.00  0.00    +0.000 A 
ATOM     19  C   UNL     1      48.610   6.985  13.600  0.00  0.00    +0.000 A 
ATOM     20  N   UNL     1      49.194   6.874  14.817  0.00  0.00    +0.000 NA
ATOM     21  C   UNL     1      48.683   5.942  15.652  0.00  0.00    +0.000 A 
ATOM     22  C   UNL     1      47.613   5.123  15.322  0.00  0.00    +0.000 A 
ATOM     23  C   UNL     1      47.030   5.264  14.060  0.00  0.00    +0.000 A 
BRANCH  22  24
ATOM     24  C   UNL     1      47.126   4.160  16.259  0.00  0.00    +0.000 C 
ATOM     25  N   UNL     1      46.731   3.368  17.007  0.00  0.00    +0.000 NA
ENDBRANCH  22  24
ENDBRANCH  17  18
ENDBRANCH  16  17
ENDBRANCH   3  16
TORSDOF 6
ENDMDL
MODEL 5
REMARK VINA RESULT:    -6.922      2.839      4.624
REMARK INTER + INTRA:         -10.058
REMARK INTER:                  -9.190
REMARK INTRA:                  -0.867
REMARK UNBOUND:                -0.707
REMARK  Name = 
REMARK  7 active torsions:
REMARK  status: ('A' for Active; 'I' for Inactive)
REMARK    1  A    between atoms: C_1  and  O_2
REMARK    2  A    between atoms: O_2  and  C_3
REMARK    3  A    between atoms: C_5  and  C_6
REMARK    4  A    between atoms: C_6  and  O_7
REMARK    5  A    between atoms: O_7  and  C_8
REMARK    6  A    between atoms: C_12  and  C_13
REMARK    7  A    between atoms: C_17  and  C_18
REMARK                            x       y       z     vdW  Elec       q    Type
REMARK                         _______ _______ _______ _____ _____    ______ ____
ROOT
ATOM      1  C   UNL     1      47.700   6.991  12.061  0.00  0.00    +0.000 A 
ATOM      2  C   UNL     1      46.438   6.667  11.565  0.00  0.00    +0.000 A 
ATOM      3  C   UNL     1      45.571   5.866  12.319  0.00  0.00    +0.000 A 
ATOM      4  C   UNL     1      45.969   5.432  13.593  0.00  0.00    +0.000 A 
ATOM      5  C   UNL     1      47.253   5.701  14.099  0.00  0.00    +0.000 A 
ATOM      6  C   UNL     1      48.092   6.515  13.318  0.00  0.00    +0.000 A 
ENDROOT
BRANCH   5   7
ATOM      7  C   UNL     1      47.738   5.053  15.340  0.00  0.00    +0.000 A 
ATOM      8  C   UNL     1      48.585   5.756  16.225  0.00  0.00    +0.000 A 
ATOM      9  C   UNL     1      48.980   5.214  17.448  0.00  0.00    +0.000 A 
ATOM     10  C   UNL     1      48.527   3.956  17.812  0.00  0.00    +0.000 A 
ATOM     11  F   UNL     1      48.875   3.448  19.000  0.00  0.00    +0.000 F 
ATOM     12  C   UNL     1      47.706   3.225  16.965  0.00  0.00    +0.000 A 
ATOM     13  C   UNL     1      47.322   3.766  15.732  0.00  0.00    +0.000 A 
ENDBRANCH   5   7
BRANCH   1  15
ATOM     14  C   UNL     1      49.952   7.753  11.988  0.00  0.00    +0.000 C 
ATOM     15  O   UNL     1      48.655   7.719  11.405  0.00  0.00    +0.000 OA
ENDBRANCH   1  15
BRANCH   3  16
ATOM     16  C   UNL     1      44.241   5.431  11.759  0.00  0.00    +0.000 C 
BRANCH  16  17
ATOM     17  O   UNL     1      44.283   5.516  10.340  0.00  0.00    +0.000 OA
BRANCH  17  18
ATOM     18  C   UNL     1      44.646   4.384   9.670  0.00  0.00    +0.000 A 
ATOM     19  C   UNL     1      44.220   3.184  10.229  0.00  0.00    +0.000 A 
ATOM     20  N   UNL     1      44.486   1.961   9.709  0.00  0.00    +0.000 NA
ATOM     21  C   UNL     1      45.219   1.931   8.574  0.00  0.00    +0.000 A 
ATOM     22  C   UNL     1      45.691   3.069   7.937  0.00  0.00    +0.000 A 
ATOM     23  C   UNL     1      45.398   4.317   8.496  0.00  0.00    +0.000 A 
BRANCH  22  24
ATOM     24  C   UNL     1      46.459   2.959   6.737  0.00  0.00    +0.000 C 
ATOM     25  N   UNL     1      47.093   2.881   5.770  0.00  0.00    +0.000 NA
ENDBRANCH  22  24
ENDBRANCH  17  18
ENDBRANCH  16  17
ENDBRANCH   3  16
TORSDOF 6
ENDMDL
MODEL 6
REMARK VINA RESULT:    -6.912      4.438      7.763
REMARK INTER + INTRA:         -10.043
REMARK INTER:                  -9.156
REMARK INTRA:                  -0.887
REMARK UNBOUND:                -0.707
REMARK  Name = 
REMARK  7 active torsions:
REMARK  status: ('A' for Active; 'I' for Inactive)
REMARK    1  A    between atoms: C_1  and  O_2
REMARK    2  A    between atoms: O_2  and  C_3
REMARK    3  A    between atoms: C_5  and  C_6
REMARK    4  A    between atoms: C_6  and  O_7
REMARK    5  A    between atoms: O_7  and  C_8
REMARK    6  A    between atoms: C_12  and  C_13
REMARK    7  A    between atoms: C_17  and  C_18
REMARK                            x       y       z     vdW  Elec       q    Type
REMARK                         _______ _______ _______ _____ _____    ______ ____
ROOT
ATOM      1  C   UNL     1      45.361   8.811  12.437  0.00  0.00    +0.000 A 
ATOM      2  C   UNL     1      46.471   8.674  13.269  0.00  0.00    +0.000 A 
ATOM      3  C   UNL     1      47.225   7.494  13.246  0.00  0.00    +0.000 A 
ATOM      4  C   UNL     1      46.878   6.475  12.345  0.00  0.00    +0.000 A 
ATOM      5  C   UNL     1      45.738   6.563  11.529  0.00  0.00    +0.000 A 
ATOM      6  C   UNL     1      45.010   7.766  11.574  0.00  0.00    +0.000 A 
ENDROOT
BRANCH   5   7
ATOM      7  C   UNL     1      45.258   5.396  10.752  0.00  0.00    +0.000 A 
ATOM      8  C   UNL     1      45.629   5.242   9.398  0.00  0.00    +0.000 A 
ATOM      9  C   UNL     1      45.278   4.107   8.666  0.00  0.00    +0.000 A 
ATOM     10  C   UNL     1      44.553   3.100   9.281  0.00  0.00    +0.000 A 
ATOM     11  F   UNL     1      44.246   1.994   8.593  0.00  0.00    +0.000 F 
ATOM     12  C   UNL     1      44.156   3.218  10.606  0.00  0.00    +0.000 A 
ATOM     13  C   UNL     1      44.498   4.364  11.334  0.00  0.00    +0.000 A 
ENDBRANCH   5   7
BRANCH   1  15
ATOM     14  C   UNL     1      44.321  10.510  11.137  0.00  0.00    +0.000 C 
ATOM     15  O   UNL     1      44.516   9.887  12.400  0.00  0.00    +0.000 OA
ENDBRANCH   1  15
BRANCH   3  16
ATOM     16  C   UNL     1      48.371   7.293  14.203  0.00  0.00    +0.000 C 
BRANCH  16  17
ATOM     17  O   UNL     1      48.563   5.900  14.413  0.00  0.00    +0.000 OA
BRANCH  17  18
ATOM     18  C   UNL     1      48.156   5.400  15.615  0.00  0.00    +0.000 A 
ATOM     19  C   UNL     1      47.244   4.351  15.561  0.00  0.00    +0.000 A 
ATOM     20  N   UNL     1      46.726   3.730  16.648  0.00  0.00    +0.000 NA
ATOM     21  C   UNL     1      47.134   4.181  17.855  0.00  0.00    +0.000 A 
ATOM     22  C   UNL     1      48.039   5.220  18.019  0.00  0.00    +0.000 A 
ATOM     23  C   UNL     1      48.559   5.837  16.877  0.00  0.00    +0.000 A 
BRANCH  22  24
ATOM     24  C   UNL     1      48.426   5.640  19.329  0.00  0.00    +0.000 C 
ATOM     25  N   UNL     1      48.754   5.986  20.385  0.00  0.00    +0.000 NA
ENDBRANCH  22  24
ENDBRANCH  17  18
ENDBRANCH  16  17
ENDBRANCH   3  16
TORSDOF 6
ENDMDL
MODEL 7
REMARK VINA RESULT:    -6.686      2.344      3.747
REMARK INTER + INTRA:          -9.738
REMARK INTER:                  -8.778
REMARK INTRA:                  -0.959
REMARK UNBOUND:                -0.707
REMARK  Name = 
REMARK  7 active torsions:
REMARK  status: ('A' for Active; 'I' for Inactive)
REMARK    1  A    between atoms: C_1  and  O_2
REMARK    2  A    between atoms: O_2  and  C_3
REMARK    3  A    between atoms: C_5  and  C_6
REMARK    4  A    between atoms: C_6  and  O_7
REMARK    5  A    between atoms: O_7  and  C_8
REMARK    6  A    between atoms: C_12  and  C_13
REMARK    7  A    between atoms: C_17  and  C_18
REMARK                            x       y       z     vdW  Elec       q    Type
REMARK                         _______ _______ _______ _____ _____    ______ ____
ROOT
ATOM      1  C   UNL     1      45.567   9.596  12.266  0.00  0.00    +0.000 A 
ATOM      2  C   UNL     1      45.092   8.333  12.611  0.00  0.00    +0.000 A 
ATOM      3  C   UNL     1      45.968   7.241  12.656  0.00  0.00    +0.000 A 
ATOM      4  C   UNL     1      47.332   7.443  12.394  0.00  0.00    +0.000 A 
ATOM      5  C   UNL     1      47.832   8.694  11.995  0.00  0.00    +0.000 A 
ATOM      6  C   UNL     1      46.925   9.768  11.970  0.00  0.00    +0.000 A 
ENDROOT
BRANCH   5   7
ATOM      7  C   UNL     1      49.224   8.843  11.507  0.00  0.00    +0.000 A 
ATOM      8  C   UNL     1      49.759  10.128  11.268  0.00  0.00    +0.000 A 
ATOM      9  C   UNL     1      51.093  10.310  10.903  0.00  0.00    +0.000 A 
ATOM     10  C   UNL     1      51.920   9.206  10.778  0.00  0.00    +0.000 A 
ATOM     11  F   UNL     1      53.209   9.380  10.464  0.00  0.00    +0.000 F 
ATOM     12  C   UNL     1      51.430   7.925  10.990  0.00  0.00    +0.000 A 
ATOM     13  C   UNL     1      50.087   7.744  11.342  0.00  0.00    +0.000 A 
ENDBRANCH   5   7
BRANCH   1  15
ATOM     14  C   UNL     1      43.671  10.649  11.289  0.00  0.00    +0.000 C 
ATOM     15  O   UNL     1      44.810  10.729  12.137  0.00  0.00    +0.000 OA
ENDBRANCH   1  15
BRANCH   3  16
ATOM     16  C   UNL     1      45.455   5.852  12.937  0.00  0.00    +0.000 C 
BRANCH  16  17
ATOM     17  O   UNL     1      44.294   5.616  12.150  0.00  0.00    +0.000 OA
BRANCH  17  18
ATOM     18  C   UNL     1      44.403   4.681  11.162  0.00  0.00    +0.000 A 
ATOM     19  C   UNL     1      43.732   3.483  11.383  0.00  0.00    +0.000 A 
ATOM     20  N   UNL     1      43.728   2.438  10.520  0.00  0.00    +0.000 NA
ATOM     21  C   UNL     1      44.432   2.593   9.377  0.00  0.00    +0.000 A 
ATOM     22  C   UNL     1      45.135   3.747   9.061  0.00  0.00    +0.000 A 
ATOM     23  C   UNL     1      45.118   4.809   9.971  0.00  0.00    +0.000 A 
BRANCH  22  24
ATOM     24  C   UNL     1      45.857   3.839   7.831  0.00  0.00    +0.000 C 
ATOM     25  N   UNL     1      46.447   3.928   6.839  0.00  0.00    +0.000 NA
ENDBRANCH  22  24
ENDBRANCH  17  18
ENDBRANCH  16  17
ENDBRANCH   3  16
TORSDOF 6
ENDMDL
MODEL 8
REMARK VINA RESULT:    -6.519      3.965      6.222
REMARK INTER + INTRA:          -9.513
REMARK INTER:                  -8.687
REMARK INTRA:                  -0.826
REMARK UNBOUND:                -0.707
REMARK  Name = 
REMARK  7 active torsions:
REMARK  status: ('A' for Active; 'I' for Inactive)
REMARK    1  A    between atoms: C_1  and  O_2
REMARK    2  A    between atoms: O_2  and  C_3
REMARK    3  A    between atoms: C_5  and  C_6
REMARK    4  A    between atoms: C_6  and  O_7
REMARK    5  A    between atoms: O_7  and  C_8
REMARK    6  A    between atoms: C_12  and  C_13
REMARK    7  A    between atoms: C_17  and  C_18
REMARK                            x       y       z     vdW  Elec       q    Type
REMARK                         _______ _______ _______ _____ _____    ______ ____
ROOT
ATOM      1  C   UNL     1      45.001   5.795  11.850  0.00  0.00    +0.000 A 
ATOM      2  C   UNL     1      45.312   4.764  12.735  0.00  0.00    +0.000 A 
ATOM      3  C   UNL     1      46.546   4.756  13.399  0.00  0.00    +0.000 A 
ATOM      4  C   UNL     1      47.442   5.818  13.197  0.00  0.00    +0.000 A 
ATOM      5  C   UNL     1      47.178   6.845  12.275  0.00  0.00    +0.000 A 
ATOM      6  C   UNL     1      45.926   6.824  11.634  0.00  0.00    +0.000 A 
ENDROOT
BRANCH   5   7
ATOM      7  C   UNL     1      48.220   7.832  11.907  0.00  0.00    +0.000 A 
ATOM      8  C   UNL     1      47.894   9.202  11.796  0.00  0.00    +0.000 A 
ATOM      9  C   UNL     1      48.869  10.169  11.549  0.00  0.00    +0.000 A 
ATOM     10  C   UNL     1      50.192   9.782  11.416  0.00  0.00    +0.000 A 
ATOM     11  F   UNL     1      51.134  10.711  11.214  0.00  0.00    +0.000 F 
ATOM     12  C   UNL     1      50.553   8.444  11.503  0.00  0.00    +0.000 A 
ATOM     13  C   UNL     1      49.571   7.474  11.737  0.00  0.00    +0.000 A 
ENDBRANCH   5   7
BRANCH   1  15
ATOM     14  C   UNL     1      42.641   5.520  11.741  0.00  0.00    +0.000 C 
ATOM     15  O   UNL     1      43.858   5.892  11.105  0.00  0.00    +0.000 OA
ENDBRANCH   1  15
BRANCH   3  16
ATOM     16  C   UNL     1      46.936   3.603  14.287  0.00  0.00    +0.000 C 
BRANCH  16  17
ATOM     17  O   UNL     1      46.738   3.975  15.645  0.00  0.00    +0.000 OA
BRANCH  17  18
ATOM     18  C   UNL     1      47.812   3.846  16.478  0.00  0.00    +0.000 A 
ATOM     19  C   UNL     1      47.959   4.841  17.438  0.00  0.00    +0.000 A 
ATOM     20  N   UNL     1      48.963   4.884  18.348  0.00  0.00    +0.000 NA
ATOM     21  C   UNL     1      49.871   3.885  18.296  0.00  0.00    +0.000 A 
ATOM     22  C   UNL     1      49.815   2.845  17.378  0.00  0.00    +0.000 A 
ATOM     23  C   UNL     1      48.765   2.828  16.455  0.00  0.00    +0.000 A 
BRANCH  22  24
ATOM     24  C   UNL     1      50.812   1.821  17.385  0.00  0.00    +0.000 C 
ATOM     25  N   UNL     1      51.608   0.980  17.384  0.00  0.00    +0.000 NA
ENDBRANCH  22  24
ENDBRANCH  17  18
ENDBRANCH  16  17
ENDBRANCH   3  16
TORSDOF 6
ENDMDL
MODEL 9
REMARK VINA RESULT:    -6.214      3.244      5.300
REMARK INTER + INTRA:          -9.101
REMARK INTER:                  -8.293
REMARK INTRA:                  -0.807
REMARK UNBOUND:                -0.707
REMARK  Name = 
REMARK  7 active torsions:
REMARK  status: ('A' for Active; 'I' for Inactive)
REMARK    1  A    between atoms: C_1  and  O_2
REMARK    2  A    between atoms: O_2  and  C_3
REMARK    3  A    between atoms: C_5  and  C_6
REMARK    4  A    between atoms: C_6  and  O_7
REMARK    5  A    between atoms: O_7  and  C_8
REMARK    6  A    between atoms: C_12  and  C_13
REMARK    7  A    between atoms: C_17  and  C_18
REMARK                            x       y       z     vdW  Elec       q    Type
REMARK                         _______ _______ _______ _____ _____    ______ ____
ROOT
ATOM      1  C   UNL     1      49.466   7.681  12.734  0.00  0.00    +0.000 A 
ATOM      2  C   UNL     1      48.327   7.774  11.936  0.00  0.00    +0.000 A 
ATOM      3  C   UNL     1      47.118   7.215  12.368  0.00  0.00    +0.000 A 
ATOM      4  C   UNL     1      47.057   6.601  13.629  0.00  0.00    +0.000 A 
ATOM      5  C   UNL     1      48.198   6.448  14.435  0.00  0.00    +0.000 A 
ATOM      6  C   UNL     1      49.391   7.030  13.972  0.00  0.00    +0.000 A 
ENDROOT
BRANCH   5   7
ATOM      7  C   UNL     1      48.168   5.607  15.654  0.00  0.00    +0.000 A 
ATOM      8  C   UNL     1      47.410   4.416  15.678  0.00  0.00    +0.000 A 
ATOM      9  C   UNL     1      47.437   3.550  16.772  0.00  0.00    +0.000 A 
ATOM     10  C   UNL     1      48.233   3.860  17.862  0.00  0.00    +0.000 A 
ATOM     11  F   UNL     1      48.290   3.015  18.899  0.00  0.00    +0.000 F 
ATOM     12  C   UNL     1      48.982   5.028  17.886  0.00  0.00    +0.000 A 
ATOM     13  C   UNL     1      48.942   5.902  16.793  0.00  0.00    +0.000 A 
ENDBRANCH   5   7
BRANCH   1  15
ATOM     14  C   UNL     1      51.100   8.031  11.042  0.00  0.00    +0.000 C 
ATOM     15  O   UNL     1      50.713   8.138  12.406  0.00  0.00    +0.000 OA
ENDBRANCH   1  15
BRANCH   3  16
ATOM     16  C   UNL     1      45.902   7.226  11.478  0.00  0.00    +0.000 C 
BRANCH  16  17
ATOM     17  O   UNL     1      44.798   6.686  12.192  0.00  0.00    +0.000 OA
BRANCH  17  18
ATOM     18  C   UNL     1      44.514   5.369  11.976  0.00  0.00    +0.000 A 
ATOM     19  C   UNL     1      43.774   4.736  12.969  0.00  0.00    +0.000 A 
ATOM     20  N   UNL     1      43.400   3.434  12.932  0.00  0.00    +0.000 NA
ATOM     21  C   UNL     1      43.787   2.723  11.850  0.00  0.00    +0.000 A 
ATOM     22  C   UNL     1      44.526   3.259  10.806  0.00  0.00    +0.000 A 
ATOM     23  C   UNL     1      44.894   4.606  10.872  0.00  0.00    +0.000 A 
BRANCH  22  24
ATOM     24  C   UNL     1      44.898   2.444   9.692  0.00  0.00    +0.000 C 
ATOM     25  N   UNL     1      45.190   1.771   8.795  0.00  0.00    +0.000 NA
ENDBRANCH  22  24
ENDBRANCH  17  18
ENDBRANCH  16  17
ENDBRANCH   3  16
TORSDOF 6
ENDMDL
