MODEL 1
REMARK VINA RESULT:    -7.367      0.000      0.000
REMARK INTER + INTRA:         -12.586
REMARK INTER:                 -11.027
REMARK INTRA:                  -1.559
REMARK UNBOUND:                -1.559
REMARK  Name = 
REMARK  10 active torsions:
REMARK  status: ('A' for Active; 'I' for Inactive)
REMARK    1  A    between atoms: C_1  and  C_2
REMARK    2  A    between atoms: C_2  and  N_3
REMARK    3  A    between atoms: C_2  and  C_20
REMARK    4  A    between atoms: N_3  and  C_4
REMARK    5  A    between atoms: C_4  and  C_5
REMARK    6  A    between atoms: C_8  and  C_9
REMARK    7  A    between atoms: C_9  and  C_10
REMARK    8  A    between atoms: C_9  and  C_12
REMARK    9  A    between atoms: C_10  and  O_11
REMARK   10  A    between atoms: C_12  and  N_13
REMARK                            x       y       z     vdW  Elec       q    Type
REMARK                         _______ _______ _______ _____ _____    ______ ____
ROOT
ATOM      1  C   UNL     1      46.993   8.518  13.199  0.00  0.00    +0.000 C 
ENDROOT
BRANCH   1   2
ATOM      2  C   UNL     1      46.269   7.381  12.528  0.00  0.00    +0.000 A 
ATOM      3  C   UNL     1      45.132   6.813  13.123  0.00  0.00    +0.000 A 
ATOM      4  C   UNL     1      44.466   5.755  12.510  0.00  0.00    +0.000 A 
ATOM      5  C   UNL     1      44.912   5.241  11.281  0.00  0.00    +0.000 A 
ATOM      6  C   UNL     1      46.038   5.823  10.682  0.00  0.00    +0.000 A 
ATOM      7  C   UNL     1      46.708   6.881  11.299  0.00  0.00    +0.000 A 
BRANCH   5   8
ATOM      8  C   UNL     1      44.182   4.042  10.683  0.00  0.00    +0.000 C 
BRANCH   8   9
ATOM      9  C   UNL     1      43.103   3.525  11.657  0.00  0.00    +0.000 C 
BRANCH   9  10
ATOM     10  O   UNL     1      42.952   2.108  11.617  0.00  0.00    +0.000 OA
ATOM     11  H   UNL     1      43.672   1.724  12.144  0.00  0.00    +0.000 HD
ENDBRANCH   9  10
ENDBRANCH   8   9
BRANCH   8  12
ATOM     12  C   UNL     1      45.128   2.916  10.189  0.00  0.00    +0.000 C 
BRANCH  12  13
ATOM     13  N   UNL     1      44.818   2.432   8.833  0.00  0.00    +0.000 NA
ATOM     14  C   UNL     1      44.939   3.454   7.794  0.00  0.00    +0.000 C 
ATOM     15  C   UNL     1      46.391   3.408   7.367  0.00  0.00    +0.000 C 
ATOM     16  O   UNL     1      46.878   2.112   7.728  0.00  0.00    +0.000 OA
ATOM     17  C   UNL     1      45.809   1.447   8.401  0.00  0.00    +0.000 C 
ENDBRANCH  12  13
ENDBRANCH   8  12
ENDBRANCH   5   8
ENDBRANCH   1   2
BRANCH   1  18
ATOM     18  N   UNL     1      47.502   8.109  14.505  0.00  0.00    +0.000 NA
ATOM     19  H   UNL     1      46.740   7.673  15.027  0.00  0.00    +0.000 HD
BRANCH  18  21
ATOM     20  C   UNL     1      49.908   7.818  13.919  0.00  0.00    +0.000 C 
ATOM     21  C   UNL     1      48.618   7.160  14.424  0.00  0.00    +0.000 C 
BRANCH  21  22
ATOM     22  C   UNL     1      48.799   6.594  15.821  0.00  0.00    +0.000 A 
ATOM     23  C   UNL     1      49.481   7.247  16.839  0.00  0.00    +0.000 A 
ATOM     24  S   UNL     1      49.502   6.382  18.309  0.00  0.00    +0.000 S 
ATOM     25  C   UNL     1      48.600   5.103  17.638  0.00  0.00    +0.000 A 
ATOM     26  N   UNL     1      48.249   4.024  18.383  0.00  0.00    +0.000 NA
ATOM     27  C   UNL     1      47.563   3.134  17.740  0.00  0.00    +0.000 A 
ATOM     28  N   UNL     1      47.202   3.226  16.419  0.00  0.00    +0.000 N 
ATOM     29  C   UNL     1      47.546   4.291  15.617  0.00  0.00    +0.000 A 
ATOM     30  O   UNL     1      47.232   4.324  14.432  0.00  0.00    +0.000 OA
ATOM     31  C   UNL     1      48.301   5.326  16.302  0.00  0.00    +0.000 A 
ATOM     32  H   UNL     1      46.676   2.489  15.976  0.00  0.00    +0.000 HD
ENDBRANCH  21  22
ENDBRANCH  18  21
ENDBRANCH   1  18
TORSDOF 9
ENDMDL
MODEL 2
REMARK VINA RESULT:    -7.164      2.305      2.860
REMARK INTER + INTRA:         -12.283
REMARK INTER:                 -11.365
REMARK INTRA:                  -0.918
REMARK UNBOUND:                -1.559
REMARK  Name = 
REMARK  10 active torsions:
REMARK  status: ('A' for Active; 'I' for Inactive)
REMARK    1  A    between atoms: C_1  and  C_2
REMARK    2  A    between atoms: C_2  and  N_3
REMARK    3  A    between atoms: C_2  and  C_20
REMARK    4  A    between atoms: N_3  and  C_4
REMARK    5  A    between atoms: C_4  and  C_5
REMARK    6  A    between atoms: C_8  and  C_9
REMARK    7  A    between atoms: C_9  and  C_10
REMARK    8  A    between atoms: C_9  and  C_12
REMARK    9  A    between atoms: C_10  and  O_11
REMARK   10  A    between atoms: C_12  and  N_13
REMARK                            x       y       z     vdW  Elec       q    Type
REMARK                         _______ _______ _______ _____ _____    ______ ____
ROOT
ATOM      1  C   UNL     1      48.350   6.337  15.110  0.00  0.00    +0.000 C 
ENDROOT
BRANCH   1   2
ATOM      2  C   UNL     1      47.429   5.930  13.990  0.00  0.00    +0.000 A 
ATOM      3  C   UNL     1      46.723   4.719  14.055  0.00  0.00    +0.000 A 
ATOM      4  C   UNL     1      45.879   4.336  13.015  0.00  0.00    +0.000 A 
ATOM      5  C   UNL     1      45.709   5.156  11.888  0.00  0.00    +0.000 A 
ATOM      6  C   UNL     1      46.402   6.373  11.836  0.00  0.00    +0.000 A 
ATOM      7  C   UNL     1      47.253   6.755  12.875  0.00  0.00    +0.000 A 
BRANCH   5   8
ATOM      8  C   UNL     1      44.819   4.660  10.752  0.00  0.00    +0.000 C 
BRANCH   8   9
ATOM      9  C   UNL     1      43.347   5.043  11.011  0.00  0.00    +0.000 C 
BRANCH   9  10
ATOM     10  O   UNL     1      42.548   3.933  11.414  0.00  0.00    +0.000 OA
ATOM     11  H   UNL     1      43.153   3.234  11.714  0.00  0.00    +0.000 HD
ENDBRANCH   9  10
ENDBRANCH   8   9
BRANCH   8  12
ATOM     12  C   UNL     1      44.996   3.152  10.433  0.00  0.00    +0.000 C 
BRANCH  12  13
ATOM     13  N   UNL     1      44.507   2.767   9.098  0.00  0.00    +0.000 NA
ATOM     14  C   UNL     1      44.948   3.654   8.023  0.00  0.00    +0.000 C 
ATOM     15  C   UNL     1      46.286   3.099   7.580  0.00  0.00    +0.000 C 
ATOM     16  O   UNL     1      46.305   1.725   7.979  0.00  0.00    +0.000 OA
ATOM     17  C   UNL     1      45.088   1.489   8.688  0.00  0.00    +0.000 C 
ENDBRANCH  12  13
ENDBRANCH   8  12
ENDBRANCH   5   8
ENDBRANCH   1   2
BRANCH   1  18
ATOM     18  N   UNL     1      48.747   5.176  15.901  0.00  0.00    +0.000 NA
ATOM     19  H   UNL     1      49.658   4.855  15.569  0.00  0.00    +0.000 HD
BRANCH  18  21
ATOM     20  C   UNL     1      47.702   4.814  18.136  0.00  0.00    +0.000 C 
ATOM     21  C   UNL     1      48.843   5.456  17.339  0.00  0.00    +0.000 C 
BRANCH  21  22
ATOM     22  C   UNL     1      50.194   4.927  17.786  0.00  0.00    +0.000 A 
ATOM     23  C   UNL     1      51.146   5.693  18.446  0.00  0.00    +0.000 A 
ATOM     24  S   UNL     1      52.558   4.826  18.849  0.00  0.00    +0.000 S 
ATOM     25  C   UNL     1      51.949   3.395  18.156  0.00  0.00    +0.000 A 
ATOM     26  N   UNL     1      52.668   2.243  18.176  0.00  0.00    +0.000 NA
ATOM     27  C   UNL     1      52.076   1.237  17.614  0.00  0.00    +0.000 A 
ATOM     28  N   UNL     1      50.834   1.284  17.031  0.00  0.00    +0.000 N 
ATOM     29  C   UNL     1      50.073   2.430  16.972  0.00  0.00    +0.000 A 
ATOM     30  O   UNL     1      48.980   2.441  16.415  0.00  0.00    +0.000 OA
ATOM     31  C   UNL     1      50.689   3.582  17.608  0.00  0.00    +0.000 A 
ATOM     32  H   UNL     1      50.437   0.464  16.600  0.00  0.00    +0.000 HD
ENDBRANCH  21  22
ENDBRANCH  18  21
ENDBRANCH   1  18
TORSDOF 9
ENDMDL
MODEL 3
REMARK VINA RESULT:    -6.864      1.966      2.243
REMARK INTER + INTRA:         -11.834
REMARK INTER:                 -10.524
REMARK INTRA:                  -1.310
REMARK UNBOUND:                -1.559
REMARK  Name = 
REMARK  10 active torsions:
REMARK  status: ('A' for Active; 'I' for Inactive)
REMARK    1  A    between atoms: C_1  and  C_2
REMARK    2  A    between atoms: C_2  and  N_3
REMARK    3  A    between atoms: C_2  and  C_20
REMARK    4  A    between atoms: N_3  and  C_4
REMARK    5  A    between atoms: C_4  and  C_5
REMARK    6  A    between atoms: C_8  and  C_9
REMARK    7  A    between atoms: C_9  and  C_10
REMARK    8  A    between atoms: C_9  and  C_12
REMARK    9  A    between atoms: C_10  and  O_11
REMARK   10  A    between atoms: C_12  and  N_13
REMARK                            x       y       z     vdW  Elec       q    Type
REMARK                         _______ _______ _______ _____ _____    ______ ____
ROOT
ATOM      1  C   UNL     1      49.264   7.283  13.615  0.00  0.00    +0.000 C 
ENDROOT
BRANCH   1   2
ATOM      2  C   UNL     1      48.003   6.621  13.125  0.00  0.00    +0.000 A 
ATOM      3  C   UNL     1      47.428   5.565  13.848  0.00  0.00    +0.000 A 
ATOM      4  C   UNL     1      46.267   4.945  13.392  0.00  0.00    +0.000 A 
ATOM      5  C   UNL     1      45.643   5.369  12.207  0.00  0.00    +0.000 A 
ATOM      6  C   UNL     1      46.211   6.437  11.499  0.00  0.00    +0.000 A 
ATOM      7  C   UNL     1      47.378   7.055  11.953  0.00  0.00    +0.000 A 
BRANCH   5   8
ATOM      8  C   UNL     1      44.409   4.616  11.722  0.00  0.00    +0.000 C 
BRANCH   8   9
ATOM      9  C   UNL     1      43.367   4.499  12.855  0.00  0.00    +0.000 C 
BRANCH   9  10
ATOM     10  O   UNL     1      42.941   5.766  13.351  0.00  0.00    +0.000 OA
ATOM     11  H   UNL     1      42.533   5.614  14.219  0.00  0.00    +0.000 HD
ENDBRANCH   9  10
ENDBRANCH   8   9
BRANCH   8  12
ATOM     12  C   UNL     1      44.729   3.249  11.064  0.00  0.00    +0.000 C 
BRANCH  12  13
ATOM     13  N   UNL     1      44.101   3.063   9.745  0.00  0.00    +0.000 NA
ATOM     14  C   UNL     1      44.356   4.154   8.804  0.00  0.00    +0.000 C 
ATOM     15  C   UNL     1      45.657   3.786   8.122  0.00  0.00    +0.000 C 
ATOM     16  O   UNL     1      45.801   2.369   8.262  0.00  0.00    +0.000 OA
ATOM     17  C   UNL     1      44.696   1.923   9.048  0.00  0.00    +0.000 C 
ENDBRANCH  12  13
ENDBRANCH   8  12
ENDBRANCH   5   8
ENDBRANCH   1   2
BRANCH   1  18
ATOM     18  N   UNL     1      49.772   6.611  14.807  0.00  0.00    +0.000 NA
ATOM     19  H   UNL     1      50.525   5.980  14.527  0.00  0.00    +0.000 HD
BRANCH  18  21
ATOM     20  C   UNL     1      50.275   8.993  15.345  0.00  0.00    +0.000 C 
ATOM     21  C   UNL     1      50.288   7.536  15.822  0.00  0.00    +0.000 C 
BRANCH  21  22
ATOM     22  C   UNL     1      49.417   7.352  17.051  0.00  0.00    +0.000 A 
ATOM     23  C   UNL     1      48.533   8.311  17.526  0.00  0.00    +0.000 A 
ATOM     24  S   UNL     1      47.668   7.817  18.909  0.00  0.00    +0.000 S 
ATOM     25  C   UNL     1      48.443   6.300  18.925  0.00  0.00    +0.000 A 
ATOM     26  N   UNL     1      48.142   5.367  19.864  0.00  0.00    +0.000 NA
ATOM     27  C   UNL     1      48.808   4.263  19.749  0.00  0.00    +0.000 A 
ATOM     28  N   UNL     1      49.750   4.013  18.782  0.00  0.00    +0.000 N 
ATOM     29  C   UNL     1      50.101   4.931  17.817  0.00  0.00    +0.000 A 
ATOM     30  O   UNL     1      50.970   4.683  16.988  0.00  0.00    +0.000 OA
ATOM     31  C   UNL     1      49.364   6.181  17.895  0.00  0.00    +0.000 A 
ATOM     32  H   UNL     1      50.242   3.133  18.757  0.00  0.00    +0.000 HD
ENDBRANCH  21  22
ENDBRANCH  18  21
ENDBRANCH   1  18
TORSDOF 9
ENDMDL
MODEL 4
REMARK VINA RESULT:    -6.735      2.163      2.819
REMARK INTER + INTRA:         -11.641
REMARK INTER:                 -10.492
REMARK INTRA:                  -1.149
REMARK UNBOUND:                -1.559
REMARK  Name = 
REMARK  10 active torsions:
REMARK  status: ('A' for Active; 'I' for Inactive)
REMARK    1  A    between atoms: C_1  and  C_2
REMARK    2  A    between atoms: C_2  and  N_3
REMARK    3  A    between atoms: C_2  and  C_20
REMARK    4  A    between atoms: N_3  and  C_4
REMARK    5  A    between atoms: C_4  and  C_5
REMARK    6  A    between atoms: C_8  and  C_9
REMARK    7  A    between atoms: C_9  and  C_10
REMARK    8  A    between atoms: C_9  and  C_12
REMARK    9  A    between atoms: C_10  and  O_11
REMARK   10  A    between atoms: C_12  and  N_13
REMARK                            x       y       z     vdW  Elec       q    Type
REMARK                         _______ _______ _______ _____ _____    ______ ____
ROOT
ATOM      1  C   UNL     1      48.757   7.051  14.782  0.00  0.00    +0.000 C 
ENDROOT
BRANCH   1   2
ATOM      2  C   UNL     1      47.773   6.447  13.815  0.00  0.00    +0.000 A 
ATOM      3  C   UNL     1      47.532   7.054  12.574  0.00  0.00    +0.000 A 
ATOM      4  C   UNL     1      46.615   6.502  11.682  0.00  0.00    +0.000 A 
ATOM      5  C   UNL     1      45.921   5.323  12.002  0.00  0.00    +0.000 A 
ATOM      6  C   UNL     1      46.179   4.710  13.236  0.00  0.00    +0.000 A 
ATOM      7  C   UNL     1      47.094   5.266  14.132  0.00  0.00    +0.000 A 
BRANCH   5   8
ATOM      8  C   UNL     1      44.884   4.796  11.015  0.00  0.00    +0.000 C 
BRANCH   8   9
ATOM      9  C   UNL     1      43.456   5.080  11.527  0.00  0.00    +0.000 C 
BRANCH   9  10
ATOM     10  O   UNL     1      42.590   3.955  11.409  0.00  0.00    +0.000 OA
ATOM     11  H   UNL     1      43.086   3.254  10.954  0.00  0.00    +0.000 HD
ENDBRANCH   9  10
ENDBRANCH   8   9
BRANCH   8  12
ATOM     12  C   UNL     1      45.092   3.309  10.625  0.00  0.00    +0.000 C 
BRANCH  12  13
ATOM     13  N   UNL     1      44.500   2.948   9.326  0.00  0.00    +0.000 NA
ATOM     14  C   UNL     1      44.817   3.880   8.246  0.00  0.00    +0.000 C 
ATOM     15  C   UNL     1      46.127   3.382   7.671  0.00  0.00    +0.000 C 
ATOM     16  O   UNL     1      46.222   1.999   8.022  0.00  0.00    +0.000 OA
ATOM     17  C   UNL     1      45.080   1.702   8.826  0.00  0.00    +0.000 C 
ENDBRANCH  12  13
ENDBRANCH   8  12
ENDBRANCH   5   8
ENDBRANCH   1   2
BRANCH   1  18
ATOM     18  N   UNL     1      48.168   7.174  16.111  0.00  0.00    +0.000 NA
ATOM     19  H   UNL     1      47.305   6.628  16.134  0.00  0.00    +0.000 HD
BRANCH  18  21
ATOM     20  C   UNL     1      48.753   7.383  18.526  0.00  0.00    +0.000 C 
ATOM     21  C   UNL     1      49.049   6.702  17.185  0.00  0.00    +0.000 C 
BRANCH  21  22
ATOM     22  C   UNL     1      48.847   5.200  17.274  0.00  0.00    +0.000 A 
ATOM     23  C   UNL     1      47.603   4.585  17.284  0.00  0.00    +0.000 A 
ATOM     24  S   UNL     1      47.683   2.884  17.365  0.00  0.00    +0.000 S 
ATOM     25  C   UNL     1      49.386   2.906  17.391  0.00  0.00    +0.000 A 
ATOM     26  N   UNL     1      50.103   1.755  17.439  0.00  0.00    +0.000 NA
ATOM     27  C   UNL     1      51.386   1.928  17.450  0.00  0.00    +0.000 A 
ATOM     28  N   UNL     1      52.013   3.149  17.422  0.00  0.00    +0.000 N 
ATOM     29  C   UNL     1      51.331   4.344  17.388  0.00  0.00    +0.000 A 
ATOM     30  O   UNL     1      51.925   5.417  17.395  0.00  0.00    +0.000 OA
ATOM     31  C   UNL     1      49.886   4.199  17.355  0.00  0.00    +0.000 A 
ATOM     32  H   UNL     1      53.019   3.212  17.445  0.00  0.00    +0.000 HD
ENDBRANCH  21  22
ENDBRANCH  18  21
ENDBRANCH   1  18
TORSDOF 9
ENDMDL
MODEL 5
REMARK VINA RESULT:    -6.338      1.980      2.470
REMARK INTER + INTRA:         -11.047
REMARK INTER:                 -10.111
REMARK INTRA:                  -0.935
REMARK UNBOUND:                -1.559
REMARK  Name = 
REMARK  10 active torsions:
REMARK  status: ('A' for Active; 'I' for Inactive)
REMARK    1  A    between atoms: C_1  and  C_2
REMARK    2  A    between atoms: C_2  and  N_3
REMARK    3  A    between atoms: C_2  and  C_20
REMARK    4  A    between atoms: N_3  and  C_4
REMARK    5  A    between atoms: C_4  and  C_5
REMARK    6  A    between atoms: C_8  and  C_9
REMARK    7  A    between atoms: C_9  and  C_10
REMARK    8  A    between atoms: C_9  and  C_12
REMARK    9  A    between atoms: C_10  and  O_11
REMARK   10  A    between atoms: C_12  and  N_13
REMARK                            x       y       z     vdW  Elec       q    Type
REMARK                         _______ _______ _______ _____ _____    ______ ____
ROOT
ATOM      1  C   UNL     1      48.317   7.484  13.884  0.00  0.00    +0.000 C 
ENDROOT
BRANCH   1   2
ATOM      2  C   UNL     1      47.328   6.634  13.132  0.00  0.00    +0.000 A 
ATOM      3  C   UNL     1      46.867   5.427  13.677  0.00  0.00    +0.000 A 
ATOM      4  C   UNL     1      45.959   4.634  12.979  0.00  0.00    +0.000 A 
ATOM      5  C   UNL     1      45.480   5.031  11.720  0.00  0.00    +0.000 A 
ATOM      6  C   UNL     1      45.928   6.248  11.186  0.00  0.00    +0.000 A 
ATOM      7  C   UNL     1      46.842   7.039  11.885  0.00  0.00    +0.000 A 
BRANCH   5   8
ATOM      8  C   UNL     1      44.534   4.097  10.972  0.00  0.00    +0.000 C 
BRANCH   8   9
ATOM      9  C   UNL     1      43.319   3.738  11.853  0.00  0.00    +0.000 C 
BRANCH   9  10
ATOM     10  O   UNL     1      42.742   2.478  11.518  0.00  0.00    +0.000 OA
ATOM     11  H   UNL     1      42.137   2.236  12.238  0.00  0.00    +0.000 HD
ENDBRANCH   9  10
ENDBRANCH   8   9
BRANCH   8  12
ATOM     12  C   UNL     1      45.231   2.844  10.380  0.00  0.00    +0.000 C 
BRANCH  12  13
ATOM     13  N   UNL     1      44.769   2.490   9.027  0.00  0.00    +0.000 NA
ATOM     14  C   UNL     1      44.818   3.597   8.073  0.00  0.00    +0.000 C 
ATOM     15  C   UNL     1      46.217   3.553   7.494  0.00  0.00    +0.000 C 
ATOM     16  O   UNL     1      46.694   2.218   7.690  0.00  0.00    +0.000 OA
ATOM     17  C   UNL     1      45.677   1.524   8.411  0.00  0.00    +0.000 C 
ENDBRANCH  12  13
ENDBRANCH   8  12
ENDBRANCH   5   8
ENDBRANCH   1   2
BRANCH   1  18
ATOM     18  N   UNL     1      48.254   7.206  15.316  0.00  0.00    +0.000 NA
ATOM     19  H   UNL     1      47.453   6.597  15.492  0.00  0.00    +0.000 HD
BRANCH  18  21
ATOM     20  C   UNL     1      50.619   7.542  16.032  0.00  0.00    +0.000 C 
ATOM     21  C   UNL     1      49.462   6.555  15.837  0.00  0.00    +0.000 C 
BRANCH  21  22
ATOM     22  C   UNL     1      49.064   5.907  17.151  0.00  0.00    +0.000 A 
ATOM     23  C   UNL     1      49.225   4.557  17.429  0.00  0.00    +0.000 A 
ATOM     24  S   UNL     1      48.712   4.117  18.994  0.00  0.00    +0.000 S 
ATOM     25  C   UNL     1      48.255   5.716  19.359  0.00  0.00    +0.000 A 
ATOM     26  N   UNL     1      47.742   6.041  20.573  0.00  0.00    +0.000 NA
ATOM     27  C   UNL     1      47.443   7.294  20.706  0.00  0.00    +0.000 A 
ATOM     28  N   UNL     1      47.606   8.247  19.731  0.00  0.00    +0.000 N 
ATOM     29  C   UNL     1      48.107   7.965  18.480  0.00  0.00    +0.000 A 
ATOM     30  O   UNL     1      48.209   8.837  17.623  0.00  0.00    +0.000 OA
ATOM     31  C   UNL     1      48.475   6.572  18.291  0.00  0.00    +0.000 A 
ATOM     32  H   UNL     1      47.341   9.204  19.898  0.00  0.00    +0.000 HD
ENDBRANCH  21  22
ENDBRANCH  18  21
ENDBRANCH   1  18
TORSDOF 9
ENDMDL
MODEL 6
REMARK VINA RESULT:    -6.006      2.346      3.513
REMARK INTER + INTRA:         -10.549
REMARK INTER:                  -8.847
REMARK INTRA:                  -1.702
REMARK UNBOUND:                -1.559
REMARK  Name = 
REMARK  10 active torsions:
REMARK  status: ('A' for Active; 'I' for Inactive)
REMARK    1  A    between atoms: C_1  and  C_2
REMARK    2  A    between atoms: C_2  and  N_3
REMARK    3  A    between atoms: C_2  and  C_20
REMARK    4  A    between atoms: N_3  and  C_4
REMARK    5  A    between atoms: C_4  and  C_5
REMARK    6  A    between atoms: C_8  and  C_9
REMARK    7  A    between atoms: C_9  and  C_10
REMARK    8  A    between atoms: C_9  and  C_12
REMARK    9  A    between atoms: C_10  and  O_11
REMARK   10  A    between atoms: C_12  and  N_13
REMARK                            x       y       z     vdW  Elec       q    Type
REMARK                         _______ _______ _______ _____ _____    ______ ____
ROOT
ATOM      1  C   UNL     1      50.623   8.741  13.839  0.00  0.00    +0.000 C 
ENDROOT
BRANCH   1   2
ATOM      2  C   UNL     1      49.284   8.345  13.276  0.00  0.00    +0.000 A 
ATOM      3  C   UNL     1      48.099   8.764  13.899  0.00  0.00    +0.000 A 
ATOM      4  C   UNL     1      46.859   8.391  13.386  0.00  0.00    +0.000 A 
ATOM      5  C   UNL     1      46.769   7.596  12.232  0.00  0.00    +0.000 A 
ATOM      6  C   UNL     1      47.955   7.194  11.602  0.00  0.00    +0.000 A 
ATOM      7  C   UNL     1      49.198   7.564  12.119  0.00  0.00    +0.000 A 
BRANCH   5   8
ATOM      8  C   UNL     1      45.387   7.166  11.748  0.00  0.00    +0.000 C 
BRANCH   8   9
ATOM      9  C   UNL     1      44.538   8.398  11.373  0.00  0.00    +0.000 C 
BRANCH   9  10
ATOM     10  O   UNL     1      43.208   8.058  10.984  0.00  0.00    +0.000 OA
ATOM     11  H   UNL     1      43.095   8.342  10.062  0.00  0.00    +0.000 HD
ENDBRANCH   9  10
ENDBRANCH   8   9
BRANCH   8  12
ATOM     12  C   UNL     1      44.652   6.211  12.725  0.00  0.00    +0.000 C 
BRANCH  12  13
ATOM     13  N   UNL     1      43.606   5.396  12.084  0.00  0.00    +0.000 NA
ATOM     14  C   UNL     1      44.088   4.568  10.980  0.00  0.00    +0.000 C 
ATOM     15  C   UNL     1      44.550   3.280  11.629  0.00  0.00    +0.000 C 
ATOM     16  O   UNL     1      43.864   3.190  12.882  0.00  0.00    +0.000 OA
ATOM     17  C   UNL     1      43.099   4.388  13.014  0.00  0.00    +0.000 C 
ENDBRANCH  12  13
ENDBRANCH   8  12
ENDBRANCH   5   8
ENDBRANCH   1   2
BRANCH   1  18
ATOM     18  N   UNL     1      50.654   8.550  15.285  0.00  0.00    +0.000 NA
ATOM     19  H   UNL     1      49.705   8.664  15.647  0.00  0.00    +0.000 HD
BRANCH  18  21
ATOM     20  C   UNL     1      52.684   7.184  15.765  0.00  0.00    +0.000 C 
ATOM     21  C   UNL     1      51.154   7.230  15.688  0.00  0.00    +0.000 C 
BRANCH  21  22
ATOM     22  C   UNL     1      50.526   6.930  17.037  0.00  0.00    +0.000 A 
ATOM     23  C   UNL     1      51.063   7.339  18.250  0.00  0.00    +0.000 A 
ATOM     24  S   UNL     1      50.127   6.879  19.600  0.00  0.00    +0.000 S 
ATOM     25  C   UNL     1      48.969   6.116  18.612  0.00  0.00    +0.000 A 
ATOM     26  N   UNL     1      47.872   5.520  19.146  0.00  0.00    +0.000 NA
ATOM     27  C   UNL     1      47.080   4.984  18.274  0.00  0.00    +0.000 A 
ATOM     28  N   UNL     1      47.291   4.987  16.917  0.00  0.00    +0.000 N 
ATOM     29  C   UNL     1      48.394   5.564  16.328  0.00  0.00    +0.000 A 
ATOM     30  O   UNL     1      48.564   5.520  15.114  0.00  0.00    +0.000 OA
ATOM     31  C   UNL     1      49.303   6.197  17.268  0.00  0.00    +0.000 A 
ATOM     32  H   UNL     1      46.637   4.540  16.294  0.00  0.00    +0.000 HD
ENDBRANCH  21  22
ENDBRANCH  18  21
ENDBRANCH   1  18
TORSDOF 9
ENDMDL
MODEL 7
REMARK VINA RESULT:    -5.892      3.256      4.667
REMARK INTER + INTRA:         -10.378
REMARK INTER:                  -9.537
REMARK INTRA:                  -0.841
REMARK UNBOUND:                -1.559
REMARK  Name = 
REMARK  10 active torsions:
REMARK  status: ('A' for Active; 'I' for Inactive)
REMARK    1  A    between atoms: C_1  and  C_2
REMARK    2  A    between atoms: C_2  and  N_3
REMARK    3  A    between atoms: C_2  and  C_20
REMARK    4  A    between atoms: N_3  and  C_4
REMARK    5  A    between atoms: C_4  and  C_5
REMARK    6  A    between atoms: C_8  and  C_9
REMARK    7  A    between atoms: C_9  and  C_10
REMARK    8  A    between atoms: C_9  and  C_12
REMARK    9  A    between atoms: C_10  and  O_11
REMARK   10  A    between atoms: C_12  and  N_13
REMARK                            x       y       z     vdW  Elec       q    Type
REMARK                         _______ _______ _______ _____ _____    ______ ____
ROOT
ATOM      1  C   UNL     1      48.930   4.852  18.083  0.00  0.00    +0.000 C 
ENDROOT
BRANCH   1   2
ATOM      2  C   UNL     1      48.293   5.023  16.730  0.00  0.00    +0.000 A 
ATOM      3  C   UNL     1      47.460   4.024  16.204  0.00  0.00    +0.000 A 
ATOM      4  C   UNL     1      46.877   4.175  14.949  0.00  0.00    +0.000 A 
ATOM      5  C   UNL     1      47.102   5.334  14.187  0.00  0.00    +0.000 A 
ATOM      6  C   UNL     1      47.920   6.338  14.724  0.00  0.00    +0.000 A 
ATOM      7  C   UNL     1      48.508   6.184  15.981  0.00  0.00    +0.000 A 
BRANCH   5   8
ATOM      8  C   UNL     1      46.488   5.422  12.793  0.00  0.00    +0.000 C 
BRANCH   8   9
ATOM      9  C   UNL     1      45.734   6.756  12.618  0.00  0.00    +0.000 C 
BRANCH   9  10
ATOM     10  O   UNL     1      44.494   6.791  13.321  0.00  0.00    +0.000 OA
ATOM     11  H   UNL     1      44.473   6.017  13.908  0.00  0.00    +0.000 HD
ENDBRANCH   9  10
ENDBRANCH   8   9
BRANCH   8  12
ATOM     12  C   UNL     1      45.621   4.193  12.414  0.00  0.00    +0.000 C 
BRANCH  12  13
ATOM     13  N   UNL     1      44.443   4.527  11.596  0.00  0.00    +0.000 NA
ATOM     14  C   UNL     1      44.602   4.231  10.173  0.00  0.00    +0.000 C 
ATOM     15  C   UNL     1      44.168   2.788  10.022  0.00  0.00    +0.000 C 
ATOM     16  O   UNL     1      43.322   2.501  11.140  0.00  0.00    +0.000 OA
ATOM     17  C   UNL     1      43.311   3.674  11.954  0.00  0.00    +0.000 C 
ENDBRANCH  12  13
ENDBRANCH   8  12
ENDBRANCH   5   8
ENDBRANCH   1   2
BRANCH   1  18
ATOM     18  N   UNL     1      50.180   5.600  18.165  0.00  0.00    +0.000 NA
ATOM     19  H   UNL     1      50.599   5.432  19.081  0.00  0.00    +0.000 HD
BRANCH  18  21
ATOM     20  C   UNL     1      51.803   6.451  16.473  0.00  0.00    +0.000 C 
ATOM     21  C   UNL     1      51.152   5.228  17.130  0.00  0.00    +0.000 C 
BRANCH  21  22
ATOM     22  C   UNL     1      52.187   4.352  17.811  0.00  0.00    +0.000 A 
ATOM     23  C   UNL     1      53.265   4.846  18.534  0.00  0.00    +0.000 A 
ATOM     24  S   UNL     1      54.249   3.628  19.209  0.00  0.00    +0.000 S 
ATOM     25  C   UNL     1      53.270   2.395  18.561  0.00  0.00    +0.000 A 
ATOM     26  N   UNL     1      53.550   1.085  18.783  0.00  0.00    +0.000 NA
ATOM     27  C   UNL     1      52.718   0.262  18.230  0.00  0.00    +0.000 A 
ATOM     28  N   UNL     1      51.635   0.633  17.472  0.00  0.00    +0.000 N 
ATOM     29  C   UNL     1      51.317   1.946  17.205  0.00  0.00    +0.000 A 
ATOM     30  O   UNL     1      50.359   2.238  16.498  0.00  0.00    +0.000 OA
ATOM     31  C   UNL     1      52.214   2.908  17.823  0.00  0.00    +0.000 A 
ATOM     32  H   UNL     1      51.033  -0.062  17.059  0.00  0.00    +0.000 HD
ENDBRANCH  21  22
ENDBRANCH  18  21
ENDBRANCH   1  18
TORSDOF 9
ENDMDL
MODEL 8
REMARK VINA RESULT:    -5.708      5.147      7.156
REMARK INTER + INTRA:         -10.103
REMARK INTER:                  -9.403
REMARK INTRA:                  -0.699
REMARK UNBOUND:                -1.559
REMARK  Name = 
REMARK  10 active torsions:
REMARK  status: ('A' for Active; 'I' for Inactive)
REMARK    1  A    between atoms: C_1  and  C_2
REMARK    2  A    between atoms: C_2  and  N_3
REMARK    3  A    between atoms: C_2  and  C_20
REMARK    4  A    between atoms: N_3  and  C_4
REMARK    5  A    between atoms: C_4  and  C_5
REMARK    6  A    between atoms: C_8  and  C_9
REMARK    7  A    between atoms: C_9  and  C_10
REMARK    8  A    between atoms: C_9  and  C_12
REMARK    9  A    between atoms: C_10  and  O_11
REMARK   10  A    between atoms: C_12  and  N_13
REMARK                            x       y       z     vdW  Elec       q    Type
REMARK                         _______ _______ _______ _____ _____    ______ ____
ROOT
ATOM      1  C   UNL     1      51.055   8.651  11.832  0.00  0.00    +0.000 C 
ENDROOT
BRANCH   1   2
ATOM      2  C   UNL     1      49.855   7.866  12.294  0.00  0.00    +0.000 A 
ATOM      3  C   UNL     1      49.777   7.402  13.616  0.00  0.00    +0.000 A 
ATOM      4  C   UNL     1      48.673   6.668  14.044  0.00  0.00    +0.000 A 
ATOM      5  C   UNL     1      47.614   6.384  13.166  0.00  0.00    +0.000 A 
ATOM      6  C   UNL     1      47.689   6.865  11.851  0.00  0.00    +0.000 A 
ATOM      7  C   UNL     1      48.798   7.597  11.421  0.00  0.00    +0.000 A 
BRANCH   5   8
ATOM      8  C   UNL     1      46.459   5.525  13.669  0.00  0.00    +0.000 C 
BRANCH   8   9
ATOM      9  C   UNL     1      46.953   4.523  14.734  0.00  0.00    +0.000 C 
BRANCH   9  10
ATOM     10  O   UNL     1      47.246   3.237  14.193  0.00  0.00    +0.000 OA
ATOM     11  H   UNL     1      46.574   2.622  14.529  0.00  0.00    +0.000 HD
ENDBRANCH   9  10
ENDBRANCH   8   9
BRANCH   8  12
ATOM     12  C   UNL     1      45.649   4.840  12.537  0.00  0.00    +0.000 C 
BRANCH  12  13
ATOM     13  N   UNL     1      44.449   4.131  13.011  0.00  0.00    +0.000 NA
ATOM     14  C   UNL     1      43.253   4.968  13.086  0.00  0.00    +0.000 C 
ATOM     15  C   UNL     1      42.630   4.887  11.708  0.00  0.00    +0.000 C 
ATOM     16  O   UNL     1      43.119   3.681  11.113  0.00  0.00    +0.000 OA
ATOM     17  C   UNL     1      44.040   3.112  12.044  0.00  0.00    +0.000 C 
ENDBRANCH  12  13
ENDBRANCH   8  12
ENDBRANCH   5   8
ENDBRANCH   1   2
BRANCH   1  18
ATOM     18  N   UNL     1      52.206   7.773  11.643  0.00  0.00    +0.000 NA
ATOM     19  H   UNL     1      51.926   6.998  11.040  0.00  0.00    +0.000 HD
BRANCH  18  21
ATOM     20  C   UNL     1      54.694   7.877  11.527  0.00  0.00    +0.000 C 
ATOM     21  C   UNL     1      53.359   8.447  11.035  0.00  0.00    +0.000 C 
BRANCH  21  22
ATOM     22  C   UNL     1      53.208   8.280   9.534  0.00  0.00    +0.000 A 
ATOM     23  C   UNL     1      52.942   9.326   8.661  0.00  0.00    +0.000 A 
ATOM     24  S   UNL     1      52.852   8.844   7.027  0.00  0.00    +0.000 S 
ATOM     25  C   UNL     1      53.165   7.219   7.427  0.00  0.00    +0.000 A 
ATOM     26  N   UNL     1      53.242   6.261   6.468  0.00  0.00    +0.000 NA
ATOM     27  C   UNL     1      53.489   5.074   6.921  0.00  0.00    +0.000 A 
ATOM     28  N   UNL     1      53.659   4.760   8.246  0.00  0.00    +0.000 N 
ATOM     29  C   UNL     1      53.576   5.691   9.257  0.00  0.00    +0.000 A 
ATOM     30  O   UNL     1      53.704   5.368  10.433  0.00  0.00    +0.000 OA
ATOM     31  C   UNL     1      53.320   7.044   8.794  0.00  0.00    +0.000 A 
ATOM     32  H   UNL     1      53.837   3.809   8.531  0.00  0.00    +0.000 HD
ENDBRANCH  21  22
ENDBRANCH  18  21
ENDBRANCH   1  18
TORSDOF 9
ENDMDL
MODEL 9
REMARK VINA RESULT:    -5.496      2.900      4.285
REMARK INTER + INTRA:          -9.786
REMARK INTER:                  -8.353
REMARK INTRA:                  -1.433
REMARK UNBOUND:                -1.559
REMARK  Name = 
REMARK  10 active torsions:
REMARK  status: ('A' for Active; 'I' for Inactive)
REMARK    1  A    between atoms: C_1  and  C_2
REMARK    2  A    between atoms: C_2  and  N_3
REMARK    3  A    between atoms: C_2  and  C_20
REMARK    4  A    between atoms: N_3  and  C_4
REMARK    5  A    between atoms: C_4  and  C_5
REMARK    6  A    between atoms: C_8  and  C_9
REMARK    7  A    between atoms: C_9  and  C_10
REMARK    8  A    between atoms: C_9  and  C_12
REMARK    9  A    between atoms: C_10  and  O_11
REMARK   10  A    between atoms: C_12  and  N_13
REMARK                            x       y       z     vdW  Elec       q    Type
REMARK                         _______ _______ _______ _____ _____    ______ ____
ROOT
ATOM      1  C   UNL     1      50.781   8.979  13.290  0.00  0.00    +0.000 C 
ENDROOT
BRANCH   1   2
ATOM      2  C   UNL     1      49.383   8.586  12.894  0.00  0.00    +0.000 A 
ATOM      3  C   UNL     1      49.090   7.259  12.545  0.00  0.00    +0.000 A 
ATOM      4  C   UNL     1      47.799   6.894  12.168  0.00  0.00    +0.000 A 
ATOM      5  C   UNL     1      46.764   7.844  12.138  0.00  0.00    +0.000 A 
ATOM      6  C   UNL     1      47.058   9.164  12.504  0.00  0.00    +0.000 A 
ATOM      7  C   UNL     1      48.353   9.531  12.878  0.00  0.00    +0.000 A 
BRANCH   5   8
ATOM      8  C   UNL     1      45.384   7.403  11.659  0.00  0.00    +0.000 C 
BRANCH   8   9
ATOM      9  C   UNL     1      44.510   8.630  11.327  0.00  0.00    +0.000 C 
BRANCH   9  10
ATOM     10  O   UNL     1      43.171   8.281  10.983  0.00  0.00    +0.000 OA
ATOM     11  H   UNL     1      42.810   9.010  10.450  0.00  0.00    +0.000 HD
ENDBRANCH   9  10
ENDBRANCH   8   9
BRANCH   8  12
ATOM     12  C   UNL     1      44.678   6.410  12.619  0.00  0.00    +0.000 C 
BRANCH  12  13
ATOM     13  N   UNL     1      43.767   5.474  11.939  0.00  0.00    +0.000 NA
ATOM     14  C   UNL     1      44.448   4.424  11.182  0.00  0.00    +0.000 C 
ATOM     15  C   UNL     1      44.682   3.310  12.180  0.00  0.00    +0.000 C 
ATOM     16  O   UNL     1      43.723   3.496  13.226  0.00  0.00    +0.000 OA
ATOM     17  C   UNL     1      43.009   4.693  12.916  0.00  0.00    +0.000 C 
ENDBRANCH  12  13
ENDBRANCH   8  12
ENDBRANCH   5   8
ENDBRANCH   1   2
BRANCH   1  18
ATOM     18  N   UNL     1      51.461   7.873  13.956  0.00  0.00    +0.000 NA
ATOM     19  H   UNL     1      52.370   7.736  13.511  0.00  0.00    +0.000 HD
BRANCH  18  21
ATOM     20  C   UNL     1      51.230   9.497  15.835  0.00  0.00    +0.000 C 
ATOM     21  C   UNL     1      51.672   8.097  15.391  0.00  0.00    +0.000 C 
BRANCH  21  22
ATOM     22  C   UNL     1      50.885   7.017  16.112  0.00  0.00    +0.000 A 
ATOM     23  C   UNL     1      49.499   6.980  16.175  0.00  0.00    +0.000 A 
ATOM     24  S   UNL     1      48.891   5.636  17.031  0.00  0.00    +0.000 S 
ATOM     25  C   UNL     1      50.459   5.054  17.348  0.00  0.00    +0.000 A 
ATOM     26  N   UNL     1      50.654   3.902  18.041  0.00  0.00    +0.000 NA
ATOM     27  C   UNL     1      51.899   3.584  18.203  0.00  0.00    +0.000 A 
ATOM     28  N   UNL     1      52.963   4.317  17.739  0.00  0.00    +0.000 N 
ATOM     29  C   UNL     1      52.817   5.498  17.045  0.00  0.00    +0.000 A 
ATOM     30  O   UNL     1      53.792   6.142  16.673  0.00  0.00    +0.000 OA
ATOM     31  C   UNL     1      51.435   5.886  16.822  0.00  0.00    +0.000 A 
ATOM     32  H   UNL     1      53.909   4.016  17.911  0.00  0.00    +0.000 HD
ENDBRANCH  21  22
ENDBRANCH  18  21
ENDBRANCH   1  18
TORSDOF 9
ENDMDL
