MODEL 1
REMARK VINA RESULT:    -8.929      0.000      0.000
REMARK INTER + INTRA:         -13.444
REMARK INTER:                 -12.583
REMARK INTRA:                  -0.861
REMARK UNBOUND:                -0.861
REMARK  Name = 
REMARK  8 active torsions:
REMARK  status: ('A' for Active; 'I' for Inactive)
REMARK    1  A    between atoms: C_1  and  C_2
REMARK    2  A    between atoms: C_2  and  N_3
REMARK    3  A    between atoms: C_2  and  C_25
REMARK    4  A    between atoms: N_3  and  C_4
REMARK    5  A    between atoms: C_4  and  C_5
REMARK    6  A    between atoms: C_9  and  C_10
REMARK    7  A    between atoms: N_12  and  C_13
REMARK    8  A    between atoms: C_13  and  C_14
REMARK                            x       y       z     vdW  Elec       q    Type
REMARK                         _______ _______ _______ _____ _____    ______ ____
ROOT
ATOM      1  C   UNL     1      45.330   4.288  12.146  0.00  0.00    +0.000 A 
ATOM      2  N   UNL     1      45.620   5.532  11.710  0.00  0.00    +0.000 NA
ATOM      3  C   UNL     1      46.498   6.246  12.433  0.00  0.00    +0.000 A 
ATOM      4  C   UNL     1      47.082   5.778  13.575  0.00  0.00    +0.000 A 
ATOM      5  C   UNL     1      46.706   4.505  13.952  0.00  0.00    +0.000 A 
ATOM      6  N   UNL     1      45.846   3.724  13.253  0.00  0.00    +0.000 NA
ENDROOT
BRANCH   5   7
ATOM      7  C   UNL     1      47.252   3.946  15.222  0.00  0.00    +0.000 C 
ATOM      8  O   UNL     1      47.798   2.845  15.221  0.00  0.00    +0.000 OA
ATOM      9  N   UNL     1      47.105   4.719  16.363  0.00  0.00    +0.000 N 
ATOM     10  H   UNL     1      46.412   5.464  16.322  0.00  0.00    +0.000 HD
BRANCH   9  11
ATOM     11  C   UNL     1      47.407   4.107  17.625  0.00  0.00    +0.000 C 
BRANCH  11  12
ATOM     12  C   UNL     1      48.304   4.929  18.493  0.00  0.00    +0.000 A 
ATOM     13  C   UNL     1      47.841   5.753  19.507  0.00  0.00    +0.000 A 
ATOM     14  S   UNL     1      49.012   6.886  20.028  0.00  0.00    +0.000 S 
ATOM     15  C   UNL     1      50.180   6.248  18.965  0.00  0.00    +0.000 A 
ATOM     16  N   UNL     1      51.398   6.831  18.805  0.00  0.00    +0.000 NA
ATOM     17  C   UNL     1      52.184   6.200  17.996  0.00  0.00    +0.000 A 
ATOM     18  N   UNL     1      51.881   5.015  17.370  0.00  0.00    +0.000 N 
ATOM     19  C   UNL     1      50.669   4.377  17.520  0.00  0.00    +0.000 A 
ATOM     20  O   UNL     1      50.451   3.264  17.050  0.00  0.00    +0.000 OA
ATOM     21  C   UNL     1      49.718   5.114  18.324  0.00  0.00    +0.000 A 
ATOM     22  H   UNL     1      52.576   4.532  16.822  0.00  0.00    +0.000 HD
ENDBRANCH  11  12
ENDBRANCH   9  11
ENDBRANCH   5   7
BRANCH   1  23
ATOM     23  C   UNL     1      44.306   3.479  11.353  0.00  0.00    +0.000 C 
BRANCH  23  24
ATOM     24  N   UNL     1      44.913   2.514  10.421  0.00  0.00    +0.000 NA
ATOM     25  H   UNL     1      44.568   1.582  10.654  0.00  0.00    +0.000 HD
BRANCH  24  27
ATOM     26  C   UNL     1      44.337   4.276   8.736  0.00  0.00    +0.000 C 
ATOM     27  C   UNL     1      44.630   2.794   9.011  0.00  0.00    +0.000 C 
BRANCH  27  28
ATOM     28  C   UNL     1      45.813   2.341   8.168  0.00  0.00    +0.000 A 
ATOM     29  C   UNL     1      46.547   3.259   7.410  0.00  0.00    +0.000 A 
ATOM     30  C   UNL     1      47.623   2.796   6.671  0.00  0.00    +0.000 A 
ATOM     31  N   UNL     1      48.009   1.506   6.613  0.00  0.00    +0.000 NA
ATOM     32  C   UNL     1      47.283   0.634   7.344  0.00  0.00    +0.000 A 
ATOM     33  C   UNL     1      46.197   0.994   8.121  0.00  0.00    +0.000 A 
ENDBRANCH  27  28
ENDBRANCH  24  27
ENDBRANCH  23  24
ENDBRANCH   1  23
TORSDOF 7
ENDMDL
MODEL 2
REMARK VINA RESULT:    -8.395      1.531      1.942
REMARK INTER + INTRA:         -12.691
REMARK INTER:                 -12.089
REMARK INTRA:                  -0.602
REMARK UNBOUND:                -0.861
REMARK  Name = 
REMARK  8 active torsions:
REMARK  status: ('A' for Active; 'I' for Inactive)
REMARK    1  A    between atoms: C_1  and  C_2
REMARK    2  A    between atoms: C_2  and  N_3
REMARK    3  A    between atoms: C_2  and  C_25
REMARK    4  A    between atoms: N_3  and  C_4
REMARK    5  A    between atoms: C_4  and  C_5
REMARK    6  A    between atoms: C_9  and  C_10
REMARK    7  A    between atoms: N_12  and  C_13
REMARK    8  A    between atoms: C_13  and  C_14
REMARK                            x       y       z     vdW  Elec       q    Type
REMARK                         _______ _______ _______ _____ _____    ______ ____
ROOT
ATOM      1  C   UNL     1      45.304   6.208  12.144  0.00  0.00    +0.000 A 
ATOM      2  N   UNL     1      46.200   7.120  11.711  0.00  0.00    +0.000 NA
ATOM      3  C   UNL     1      47.430   7.077  12.248  0.00  0.00    +0.000 A 
ATOM      4  C   UNL     1      47.795   6.176  13.206  0.00  0.00    +0.000 A 
ATOM      5  C   UNL     1      46.806   5.298  13.601  0.00  0.00    +0.000 A 
ATOM      6  N   UNL     1      45.554   5.274  13.080  0.00  0.00    +0.000 NA
ENDROOT
BRANCH   5   7
ATOM      7  C   UNL     1      47.108   4.324  14.688  0.00  0.00    +0.000 C 
ATOM      8  O   UNL     1      47.404   3.165  14.406  0.00  0.00    +0.000 OA
ATOM      9  N   UNL     1      47.031   4.791  15.991  0.00  0.00    +0.000 N 
ATOM     10  H   UNL     1      46.519   5.660  16.133  0.00  0.00    +0.000 HD
BRANCH   9  11
ATOM     11  C   UNL     1      47.084   3.824  17.050  0.00  0.00    +0.000 C 
BRANCH  11  12
ATOM     12  C   UNL     1      48.179   4.072  18.036  0.00  0.00    +0.000 A 
ATOM     13  C   UNL     1      48.092   5.006  19.056  0.00  0.00    +0.000 A 
ATOM     14  S   UNL     1      49.613   5.389  19.738  0.00  0.00    +0.000 S 
ATOM     15  C   UNL     1      50.405   4.260  18.739  0.00  0.00    +0.000 A 
ATOM     16  N   UNL     1      51.761   4.152  18.714  0.00  0.00    +0.000 NA
ATOM     17  C   UNL     1      52.201   3.219  17.936  0.00  0.00    +0.000 A 
ATOM     18  N   UNL     1      51.410   2.355  17.217  0.00  0.00    +0.000 N 
ATOM     19  C   UNL     1      50.034   2.414  17.229  0.00  0.00    +0.000 A 
ATOM     20  O   UNL     1      49.337   1.568  16.676  0.00  0.00    +0.000 OA
ATOM     21  C   UNL     1      49.505   3.522  17.995  0.00  0.00    +0.000 A 
ATOM     22  H   UNL     1      51.822   1.593  16.699  0.00  0.00    +0.000 HD
ENDBRANCH  11  12
ENDBRANCH   9  11
ENDBRANCH   5   7
BRANCH   1  23
ATOM     23  C   UNL     1      43.892   6.270  11.567  0.00  0.00    +0.000 C 
BRANCH  23  24
ATOM     24  N   UNL     1      43.620   5.227  10.565  0.00  0.00    +0.000 NA
ATOM     25  H   UNL     1      43.922   5.570   9.653  0.00  0.00    +0.000 HD
BRANCH  24  27
ATOM     26  C   UNL     1      43.318   2.850  11.299  0.00  0.00    +0.000 C 
ATOM     27  C   UNL     1      44.286   3.951  10.843  0.00  0.00    +0.000 C 
BRANCH  27  28
ATOM     28  C   UNL     1      45.028   3.496   9.595  0.00  0.00    +0.000 A 
ATOM     29  C   UNL     1      45.568   4.425   8.702  0.00  0.00    +0.000 A 
ATOM     30  C   UNL     1      46.246   3.957   7.588  0.00  0.00    +0.000 A 
ATOM     31  N   UNL     1      46.410   2.653   7.289  0.00  0.00    +0.000 NA
ATOM     32  C   UNL     1      45.874   1.770   8.158  0.00  0.00    +0.000 A 
ATOM     33  C   UNL     1      45.186   2.134   9.302  0.00  0.00    +0.000 A 
ENDBRANCH  27  28
ENDBRANCH  24  27
ENDBRANCH  23  24
ENDBRANCH   1  23
TORSDOF 7
ENDMDL
MODEL 3
REMARK VINA RESULT:    -8.375      1.944      2.393
REMARK INTER + INTRA:         -12.663
REMARK INTER:                 -11.995
REMARK INTRA:                  -0.668
REMARK UNBOUND:                -0.861
REMARK  Name = 
REMARK  8 active torsions:
REMARK  status: ('A' for Active; 'I' for Inactive)
REMARK    1  A    between atoms: C_1  and  C_2
REMARK    2  A    between atoms: C_2  and  N_3
REMARK    3  A    between atoms: C_2  and  C_25
REMARK    4  A    between atoms: N_3  and  C_4
REMARK    5  A    between atoms: C_4  and  C_5
REMARK    6  A    between atoms: C_9  and  C_10
REMARK    7  A    between atoms: N_12  and  C_13
REMARK    8  A    between atoms: C_13  and  C_14
REMARK                            x       y       z     vdW  Elec       q    Type
REMARK                         _______ _______ _______ _____ _____    ______ ____
ROOT
ATOM      1  C   UNL     1      44.561   4.005  12.008  0.00  0.00    +0.000 A 
ATOM      2  N   UNL     1      44.102   5.270  11.908  0.00  0.00    +0.000 NA
ATOM      3  C   UNL     1      44.671   6.195  12.698  0.00  0.00    +0.000 A 
ATOM      4  C   UNL     1      45.664   5.906  13.590  0.00  0.00    +0.000 A 
ATOM      5  C   UNL     1      46.051   4.583  13.636  0.00  0.00    +0.000 A 
ATOM      6  N   UNL     1      45.534   3.608  12.848  0.00  0.00    +0.000 NA
ENDROOT
BRANCH   5   7
ATOM      7  C   UNL     1      47.086   4.176  14.629  0.00  0.00    +0.000 C 
ATOM      8  O   UNL     1      47.516   3.025  14.628  0.00  0.00    +0.000 OA
ATOM      9  N   UNL     1      47.514   5.144  15.524  0.00  0.00    +0.000 N 
ATOM     10  H   UNL     1      46.916   5.962  15.629  0.00  0.00    +0.000 HD
BRANCH   9  11
ATOM     11  C   UNL     1      48.325   4.719  16.629  0.00  0.00    +0.000 C 
BRANCH  11  12
ATOM     12  C   UNL     1      48.254   5.629  17.812  0.00  0.00    +0.000 A 
ATOM     13  C   UNL     1      47.921   5.199  19.087  0.00  0.00    +0.000 A 
ATOM     14  S   UNL     1      47.489   6.485  20.129  0.00  0.00    +0.000 S 
ATOM     15  C   UNL     1      47.811   7.643  18.922  0.00  0.00    +0.000 A 
ATOM     16  N   UNL     1      47.535   8.962  19.102  0.00  0.00    +0.000 NA
ATOM     17  C   UNL     1      47.879   9.714  18.109  0.00  0.00    +0.000 A 
ATOM     18  N   UNL     1      48.516   9.274  16.973  0.00  0.00    +0.000 N 
ATOM     19  C   UNL     1      48.834   7.951  16.758  0.00  0.00    +0.000 A 
ATOM     20  O   UNL     1      49.503   7.587  15.796  0.00  0.00    +0.000 OA
ATOM     21  C   UNL     1      48.358   7.061  17.795  0.00  0.00    +0.000 A 
ATOM     22  H   UNL     1      48.835   9.931  16.277  0.00  0.00    +0.000 HD
ENDBRANCH  11  12
ENDBRANCH   9  11
ENDBRANCH   5   7
BRANCH   1  23
ATOM     23  C   UNL     1      43.896   2.938  11.142  0.00  0.00    +0.000 C 
BRANCH  23  24
ATOM     24  N   UNL     1      44.805   2.335  10.152  0.00  0.00    +0.000 NA
ATOM     25  H   UNL     1      44.676   1.323  10.173  0.00  0.00    +0.000 HD
BRANCH  24  27
ATOM     26  C   UNL     1      44.444   4.345   8.700  0.00  0.00    +0.000 C 
ATOM     27  C   UNL     1      44.596   2.819   8.785  0.00  0.00    +0.000 C 
BRANCH  27  28
ATOM     28  C   UNL     1      45.763   2.372   7.917  0.00  0.00    +0.000 A 
ATOM     29  C   UNL     1      46.324   1.101   8.067  0.00  0.00    +0.000 A 
ATOM     30  C   UNL     1      47.376   0.739   7.241  0.00  0.00    +0.000 A 
ATOM     31  N   UNL     1      47.918   1.541   6.303  0.00  0.00    +0.000 NA
ATOM     32  C   UNL     1      47.370   2.768   6.179  0.00  0.00    +0.000 A 
ATOM     33  C   UNL     1      46.313   3.223   6.948  0.00  0.00    +0.000 A 
ENDBRANCH  27  28
ENDBRANCH  24  27
ENDBRANCH  23  24
ENDBRANCH   1  23
TORSDOF 7
ENDMDL
MODEL 4
REMARK VINA RESULT:    -8.271      1.773      2.250
REMARK INTER + INTRA:         -12.516
REMARK INTER:                 -11.602
REMARK INTRA:                  -0.914
REMARK UNBOUND:                -0.861
REMARK  Name = 
REMARK  8 active torsions:
REMARK  status: ('A' for Active; 'I' for Inactive)
REMARK    1  A    between atoms: C_1  and  C_2
REMARK    2  A    between atoms: C_2  and  N_3
REMARK    3  A    between atoms: C_2  and  C_25
REMARK    4  A    between atoms: N_3  and  C_4
REMARK    5  A    between atoms: C_4  and  C_5
REMARK    6  A    between atoms: C_9  and  C_10
REMARK    7  A    between atoms: N_12  and  C_13
REMARK    8  A    between atoms: C_13  and  C_14
REMARK                            x       y       z     vdW  Elec       q    Type
REMARK                         _______ _______ _______ _____ _____    ______ ____
ROOT
ATOM      1  C   UNL     1      45.102   5.516  11.378  0.00  0.00    +0.000 A 
ATOM      2  N   UNL     1      45.416   6.828  11.332  0.00  0.00    +0.000 NA
ATOM      3  C   UNL     1      46.266   7.289  12.264  0.00  0.00    +0.000 A 
ATOM      4  C   UNL     1      46.800   6.501  13.242  0.00  0.00    +0.000 A 
ATOM      5  C   UNL     1      46.403   5.180  13.221  0.00  0.00    +0.000 A 
ATOM      6  N   UNL     1      45.569   4.648  12.293  0.00  0.00    +0.000 NA
ENDROOT
BRANCH   5   7
ATOM      7  C   UNL     1      46.893   4.269  14.295  0.00  0.00    +0.000 C 
ATOM      8  O   UNL     1      47.138   3.093  14.035  0.00  0.00    +0.000 OA
ATOM      9  N   UNL     1      47.045   4.814  15.561  0.00  0.00    +0.000 N 
ATOM     10  H   UNL     1      46.564   5.694  15.737  0.00  0.00    +0.000 HD
BRANCH   9  11
ATOM     11  C   UNL     1      47.285   3.912  16.650  0.00  0.00    +0.000 C 
BRANCH  11  12
ATOM     12  C   UNL     1      48.725   3.552  16.826  0.00  0.00    +0.000 A 
ATOM     13  C   UNL     1      49.215   2.265  16.672  0.00  0.00    +0.000 A 
ATOM     14  S   UNL     1      50.771   2.061  17.352  0.00  0.00    +0.000 S 
ATOM     15  C   UNL     1      50.852   3.704  17.795  0.00  0.00    +0.000 A 
ATOM     16  N   UNL     1      51.880   4.197  18.535  0.00  0.00    +0.000 NA
ATOM     17  C   UNL     1      51.814   5.470  18.748  0.00  0.00    +0.000 A 
ATOM     18  N   UNL     1      50.840   6.301  18.250  0.00  0.00    +0.000 N 
ATOM     19  C   UNL     1      49.792   5.849  17.478  0.00  0.00    +0.000 A 
ATOM     20  O   UNL     1      48.994   6.613  16.943  0.00  0.00    +0.000 OA
ATOM     21  C   UNL     1      49.766   4.411  17.316  0.00  0.00    +0.000 A 
ATOM     22  H   UNL     1      50.901   7.300  18.383  0.00  0.00    +0.000 HD
ENDBRANCH  11  12
ENDBRANCH   9  11
ENDBRANCH   5   7
BRANCH   1  23
ATOM     23  C   UNL     1      44.108   4.988  10.346  0.00  0.00    +0.000 C 
BRANCH  23  24
ATOM     24  N   UNL     1      44.749   4.432   9.143  0.00  0.00    +0.000 NA
ATOM     25  H   UNL     1      45.514   5.051   8.871  0.00  0.00    +0.000 HD
BRANCH  24  27
ATOM     26  C   UNL     1      44.176   2.040   9.623  0.00  0.00    +0.000 C 
ATOM     27  C   UNL     1      45.271   3.075   9.325  0.00  0.00    +0.000 C 
BRANCH  27  28
ATOM     28  C   UNL     1      46.035   2.664   8.074  0.00  0.00    +0.000 A 
ATOM     29  C   UNL     1      46.574   1.380   7.951  0.00  0.00    +0.000 A 
ATOM     30  C   UNL     1      47.247   1.053   6.786  0.00  0.00    +0.000 A 
ATOM     31  N   UNL     1      47.440   1.900   5.755  0.00  0.00    +0.000 NA
ATOM     32  C   UNL     1      46.921   3.138   5.896  0.00  0.00    +0.000 A 
ATOM     33  C   UNL     1      46.225   3.561   7.014  0.00  0.00    +0.000 A 
ENDBRANCH  27  28
ENDBRANCH  24  27
ENDBRANCH  23  24
ENDBRANCH   1  23
TORSDOF 7
ENDMDL
MODEL 5
REMARK VINA RESULT:    -8.225      1.724      2.426
REMARK INTER + INTRA:         -12.452
REMARK INTER:                 -11.664
REMARK INTRA:                  -0.788
REMARK UNBOUND:                -0.861
REMARK  Name = 
REMARK  8 active torsions:
REMARK  status: ('A' for Active; 'I' for Inactive)
REMARK    1  A    between atoms: C_1  and  C_2
REMARK    2  A    between atoms: C_2  and  N_3
REMARK    3  A    between atoms: C_2  and  C_25
REMARK    4  A    between atoms: N_3  and  C_4
REMARK    5  A    between atoms: C_4  and  C_5
REMARK    6  A    between atoms: C_9  and  C_10
REMARK    7  A    between atoms: N_12  and  C_13
REMARK    8  A    between atoms: C_13  and  C_14
REMARK                            x       y       z     vdW  Elec       q    Type
REMARK                         _______ _______ _______ _____ _____    ______ ____
ROOT
ATOM      1  C   UNL     1      44.876   5.080  11.706  0.00  0.00    +0.000 A 
ATOM      2  N   UNL     1      44.119   6.156  11.399  0.00  0.00    +0.000 NA
ATOM      3  C   UNL     1      44.623   7.365  11.693  0.00  0.00    +0.000 A 
ATOM      4  C   UNL     1      45.838   7.543  12.291  0.00  0.00    +0.000 A 
ATOM      5  C   UNL     1      46.528   6.385  12.586  0.00  0.00    +0.000 A 
ATOM      6  N   UNL     1      46.085   5.137  12.292  0.00  0.00    +0.000 NA
ENDROOT
BRANCH   5   7
ATOM      7  C   UNL     1      47.834   6.493  13.295  0.00  0.00    +0.000 C 
ATOM      8  O   UNL     1      48.846   6.011  12.791  0.00  0.00    +0.000 OA
ATOM      9  N   UNL     1      47.833   7.144  14.520  0.00  0.00    +0.000 N 
ATOM     10  H   UNL     1      46.928   7.256  14.973  0.00  0.00    +0.000 HD
BRANCH   9  11
ATOM     11  C   UNL     1      49.018   7.053  15.323  0.00  0.00    +0.000 C 
BRANCH  11  12
ATOM     12  C   UNL     1      48.751   6.699  16.750  0.00  0.00    +0.000 A 
ATOM     13  C   UNL     1      48.936   7.580  17.804  0.00  0.00    +0.000 A 
ATOM     14  S   UNL     1      48.984   6.796  19.324  0.00  0.00    +0.000 S 
ATOM     15  C   UNL     1      48.682   5.279  18.611  0.00  0.00    +0.000 A 
ATOM     16  N   UNL     1      48.712   4.128  19.335  0.00  0.00    +0.000 NA
ATOM     17  C   UNL     1      48.419   3.069  18.655  0.00  0.00    +0.000 A 
ATOM     18  N   UNL     1      48.053   3.061  17.331  0.00  0.00    +0.000 N 
ATOM     19  C   UNL     1      47.988   4.204  16.565  0.00  0.00    +0.000 A 
ATOM     20  O   UNL     1      47.550   4.200  15.418  0.00  0.00    +0.000 OA
ATOM     21  C   UNL     1      48.424   5.396  17.259  0.00  0.00    +0.000 A 
ATOM     22  H   UNL     1      47.751   2.206  16.888  0.00  0.00    +0.000 HD
ENDBRANCH  11  12
ENDBRANCH   9  11
ENDBRANCH   5   7
BRANCH   1  23
ATOM     23  C   UNL     1      44.297   3.698  11.410  0.00  0.00    +0.000 C 
BRANCH  23  24
ATOM     24  N   UNL     1      45.150   2.880  10.533  0.00  0.00    +0.000 NA
ATOM     25  H   UNL     1      45.191   1.935  10.915  0.00  0.00    +0.000 HD
BRANCH  24  27
ATOM     26  C   UNL     1      44.207   4.175   8.606  0.00  0.00    +0.000 C 
ATOM     27  C   UNL     1      44.684   2.818   9.145  0.00  0.00    +0.000 C 
BRANCH  27  28
ATOM     28  C   UNL     1      45.807   2.285   8.267  0.00  0.00    +0.000 A 
ATOM     29  C   UNL     1      46.611   3.155   7.524  0.00  0.00    +0.000 A 
ATOM     30  C   UNL     1      47.628   2.619   6.751  0.00  0.00    +0.000 A 
ATOM     31  N   UNL     1      47.892   1.301   6.649  0.00  0.00    +0.000 NA
ATOM     32  C   UNL     1      47.100   0.476   7.366  0.00  0.00    +0.000 A 
ATOM     33  C   UNL     1      46.064   0.911   8.173  0.00  0.00    +0.000 A 
ENDBRANCH  27  28
ENDBRANCH  24  27
ENDBRANCH  23  24
ENDBRANCH   1  23
TORSDOF 7
ENDMDL
MODEL 6
REMARK VINA RESULT:    -8.060      3.629      4.244
REMARK INTER + INTRA:         -12.220
REMARK INTER:                 -11.193
REMARK INTRA:                  -1.027
REMARK UNBOUND:                -0.861
REMARK  Name = 
REMARK  8 active torsions:
REMARK  status: ('A' for Active; 'I' for Inactive)
REMARK    1  A    between atoms: C_1  and  C_2
REMARK    2  A    between atoms: C_2  and  N_3
REMARK    3  A    between atoms: C_2  and  C_25
REMARK    4  A    between atoms: N_3  and  C_4
REMARK    5  A    between atoms: C_4  and  C_5
REMARK    6  A    between atoms: C_9  and  C_10
REMARK    7  A    between atoms: N_12  and  C_13
REMARK    8  A    between atoms: C_13  and  C_14
REMARK                            x       y       z     vdW  Elec       q    Type
REMARK                         _______ _______ _______ _____ _____    ______ ____
ROOT
ATOM      1  C   UNL     1      45.076   3.870  12.169  0.00  0.00    +0.000 A 
ATOM      2  N   UNL     1      45.839   3.056  12.929  0.00  0.00    +0.000 NA
ATOM      3  C   UNL     1      46.754   3.635  13.722  0.00  0.00    +0.000 A 
ATOM      4  C   UNL     1      46.947   4.986  13.776  0.00  0.00    +0.000 A 
ATOM      5  C   UNL     1      46.136   5.734  12.948  0.00  0.00    +0.000 A 
ATOM      6  N   UNL     1      45.177   5.211  12.143  0.00  0.00    +0.000 NA
ENDROOT
BRANCH   5   7
ATOM      7  C   UNL     1      46.329   7.211  12.904  0.00  0.00    +0.000 C 
ATOM      8  O   UNL     1      45.802   7.870  12.010  0.00  0.00    +0.000 OA
ATOM      9  N   UNL     1      47.116   7.773  13.897  0.00  0.00    +0.000 N 
ATOM     10  H   UNL     1      47.722   7.136  14.411  0.00  0.00    +0.000 HD
BRANCH   9  11
ATOM     11  C   UNL     1      47.507   9.145  13.741  0.00  0.00    +0.000 C 
BRANCH  11  12
ATOM     12  C   UNL     1      48.890   9.434  14.228  0.00  0.00    +0.000 A 
ATOM     13  C   UNL     1      49.168  10.321  15.256  0.00  0.00    +0.000 A 
ATOM     14  S   UNL     1      50.813  10.787  15.304  0.00  0.00    +0.000 S 
ATOM     15  C   UNL     1      51.199   9.756  14.005  0.00  0.00    +0.000 A 
ATOM     16  N   UNL     1      52.436   9.746  13.440  0.00  0.00    +0.000 NA
ATOM     17  C   UNL     1      52.578   8.877  12.495  0.00  0.00    +0.000 A 
ATOM     18  N   UNL     1      51.612   7.985  12.095  0.00  0.00    +0.000 N 
ATOM     19  C   UNL     1      50.353   7.945  12.652  0.00  0.00    +0.000 A 
ATOM     20  O   UNL     1      49.538   7.072  12.368  0.00  0.00    +0.000 OA
ATOM     21  C   UNL     1      50.116   8.982  13.633  0.00  0.00    +0.000 A 
ATOM     22  H   UNL     1      51.822   7.275  11.410  0.00  0.00    +0.000 HD
ENDBRANCH  11  12
ENDBRANCH   9  11
ENDBRANCH   5   7
BRANCH   1  23
ATOM     23  C   UNL     1      44.057   3.221  11.235  0.00  0.00    +0.000 C 
BRANCH  23  24
ATOM     24  N   UNL     1      44.662   2.319  10.241  0.00  0.00    +0.000 NA
ATOM     25  H   UNL     1      44.205   1.410  10.311  0.00  0.00    +0.000 HD
BRANCH  24  27
ATOM     26  C   UNL     1      44.423   4.331   8.767  0.00  0.00    +0.000 C 
ATOM     27  C   UNL     1      44.560   2.804   8.862  0.00  0.00    +0.000 C 
BRANCH  27  28
ATOM     28  C   UNL     1      45.787   2.352   8.084  0.00  0.00    +0.000 A 
ATOM     29  C   UNL     1      46.199   1.016   8.107  0.00  0.00    +0.000 A 
ATOM     30  C   UNL     1      47.315   0.655   7.370  0.00  0.00    +0.000 A 
ATOM     31  N   UNL     1      48.053   1.511   6.636  0.00  0.00    +0.000 NA
ATOM     32  C   UNL     1      47.645   2.798   6.634  0.00  0.00    +0.000 A 
ATOM     33  C   UNL     1      46.542   3.260   7.328  0.00  0.00    +0.000 A 
ENDBRANCH  27  28
ENDBRANCH  24  27
ENDBRANCH  23  24
ENDBRANCH   1  23
TORSDOF 7
ENDMDL
MODEL 7
REMARK VINA RESULT:    -7.936      2.456      3.507
REMARK INTER + INTRA:         -12.044
REMARK INTER:                 -10.820
REMARK INTRA:                  -1.224
REMARK UNBOUND:                -0.861
REMARK  Name = 
REMARK  8 active torsions:
REMARK  status: ('A' for Active; 'I' for Inactive)
REMARK    1  A    between atoms: C_1  and  C_2
REMARK    2  A    between atoms: C_2  and  N_3
REMARK    3  A    between atoms: C_2  and  C_25
REMARK    4  A    between atoms: N_3  and  C_4
REMARK    5  A    between atoms: C_4  and  C_5
REMARK    6  A    between atoms: C_9  and  C_10
REMARK    7  A    between atoms: N_12  and  C_13
REMARK    8  A    between atoms: C_13  and  C_14
REMARK                            x       y       z     vdW  Elec       q    Type
REMARK                         _______ _______ _______ _____ _____    ______ ____
ROOT
ATOM      1  C   UNL     1      43.918   7.265  11.499  0.00  0.00    +0.000 A 
ATOM      2  N   UNL     1      43.491   8.438  10.985  0.00  0.00    +0.000 NA
ATOM      3  C   UNL     1      44.267   9.515  11.187  0.00  0.00    +0.000 A 
ATOM      4  C   UNL     1      45.436   9.473  11.890  0.00  0.00    +0.000 A 
ATOM      5  C   UNL     1      45.778   8.235  12.395  0.00  0.00    +0.000 A 
ATOM      6  N   UNL     1      45.052   7.106  12.205  0.00  0.00    +0.000 NA
ENDROOT
BRANCH   5   7
ATOM      7  C   UNL     1      47.010   8.119  13.227  0.00  0.00    +0.000 C 
ATOM      8  O   UNL     1      47.732   9.099  13.390  0.00  0.00    +0.000 OA
ATOM      9  N   UNL     1      47.280   6.877  13.781  0.00  0.00    +0.000 N 
ATOM     10  H   UNL     1      46.793   6.082  13.371  0.00  0.00    +0.000 HD
BRANCH   9  11
ATOM     11  C   UNL     1      48.568   6.681  14.382  0.00  0.00    +0.000 C 
BRANCH  11  12
ATOM     12  C   UNL     1      48.514   6.459  15.859  0.00  0.00    +0.000 A 
ATOM     13  C   UNL     1      48.998   7.368  16.786  0.00  0.00    +0.000 A 
ATOM     14  S   UNL     1      49.212   6.683  18.338  0.00  0.00    +0.000 S 
ATOM     15  C   UNL     1      48.591   5.184  17.821  0.00  0.00    +0.000 A 
ATOM     16  N   UNL     1      48.598   4.088  18.627  0.00  0.00    +0.000 NA
ATOM     17  C   UNL     1      48.051   3.042  18.100  0.00  0.00    +0.000 A 
ATOM     18  N   UNL     1      47.458   3.004  16.862  0.00  0.00    +0.000 N 
ATOM     19  C   UNL     1      47.409   4.094  16.021  0.00  0.00    +0.000 A 
ATOM     20  O   UNL     1      46.777   4.082  14.968  0.00  0.00    +0.000 OA
ATOM     21  C   UNL     1      48.115   5.252  16.526  0.00  0.00    +0.000 A 
ATOM     22  H   UNL     1      46.972   2.176  16.551  0.00  0.00    +0.000 HD
ENDBRANCH  11  12
ENDBRANCH   9  11
ENDBRANCH   5   7
BRANCH   1  23
ATOM     23  C   UNL     1      43.027   6.040  11.308  0.00  0.00    +0.000 C 
BRANCH  23  24
ATOM     24  N   UNL     1      43.465   5.160  10.212  0.00  0.00    +0.000 NA
ATOM     25  H   UNL     1      44.000   5.719   9.545  0.00  0.00    +0.000 HD
BRANCH  24  27
ATOM     26  C   UNL     1      43.453   2.891  11.273  0.00  0.00    +0.000 C 
ATOM     27  C   UNL     1      44.281   4.026  10.652  0.00  0.00    +0.000 C 
BRANCH  27  28
ATOM     28  C   UNL     1      45.072   3.492   9.467  0.00  0.00    +0.000 A 
ATOM     29  C   UNL     1      45.657   4.364   8.544  0.00  0.00    +0.000 A 
ATOM     30  C   UNL     1      46.379   3.827   7.491  0.00  0.00    +0.000 A 
ATOM     31  N   UNL     1      46.545   2.506   7.278  0.00  0.00    +0.000 NA
ATOM     32  C   UNL     1      45.965   1.680   8.174  0.00  0.00    +0.000 A 
ATOM     33  C   UNL     1      45.232   2.115   9.263  0.00  0.00    +0.000 A 
ENDBRANCH  27  28
ENDBRANCH  24  27
ENDBRANCH  23  24
ENDBRANCH   1  23
TORSDOF 7
ENDMDL
MODEL 8
REMARK VINA RESULT:    -7.630      2.057      3.004
REMARK INTER + INTRA:         -11.614
REMARK INTER:                 -10.709
REMARK INTRA:                  -0.905
REMARK UNBOUND:                -0.861
REMARK  Name = 
REMARK  8 active torsions:
REMARK  status: ('A' for Active; 'I' for Inactive)
REMARK    1  A    between atoms: C_1  and  C_2
REMARK    2  A    between atoms: C_2  and  N_3
REMARK    3  A    between atoms: C_2  and  C_25
REMARK    4  A    between atoms: N_3  and  C_4
REMARK    5  A    between atoms: C_4  and  C_5
REMARK    6  A    between atoms: C_9  and  C_10
REMARK    7  A    between atoms: N_12  and  C_13
REMARK    8  A    between atoms: C_13  and  C_14
REMARK                            x       y       z     vdW  Elec       q    Type
REMARK                         _______ _______ _______ _____ _____    ______ ____
ROOT
ATOM      1  C   UNL     1      46.273   5.380  12.956  0.00  0.00    +0.000 A 
ATOM      2  N   UNL     1      46.369   6.045  11.785  0.00  0.00    +0.000 NA
ATOM      3  C   UNL     1      47.341   6.965  11.679  0.00  0.00    +0.000 A 
ATOM      4  C   UNL     1      48.207   7.256  12.694  0.00  0.00    +0.000 A 
ATOM      5  C   UNL     1      48.016   6.541  13.858  0.00  0.00    +0.000 A 
ATOM      6  N   UNL     1      47.070   5.583  14.019  0.00  0.00    +0.000 NA
ENDROOT
BRANCH   5   7
ATOM      7  C   UNL     1      48.881   6.846  15.034  0.00  0.00    +0.000 C 
ATOM      8  O   UNL     1      50.098   6.941  14.890  0.00  0.00    +0.000 OA
ATOM      9  N   UNL     1      48.247   7.005  16.257  0.00  0.00    +0.000 N 
ATOM     10  H   UNL     1      47.299   6.640  16.328  0.00  0.00    +0.000 HD
BRANCH   9  11
ATOM     11  C   UNL     1      49.069   7.063  17.431  0.00  0.00    +0.000 C 
BRANCH  11  12
ATOM     12  C   UNL     1      49.832   5.805  17.693  0.00  0.00    +0.000 A 
ATOM     13  C   UNL     1      51.174   5.783  18.037  0.00  0.00    +0.000 A 
ATOM     14  S   UNL     1      51.885   4.239  17.843  0.00  0.00    +0.000 S 
ATOM     15  C   UNL     1      50.398   3.555  17.371  0.00  0.00    +0.000 A 
ATOM     16  N   UNL     1      50.305   2.270  16.937  0.00  0.00    +0.000 NA
ATOM     17  C   UNL     1      49.102   1.892  16.659  0.00  0.00    +0.000 A 
ATOM     18  N   UNL     1      47.977   2.665  16.819  0.00  0.00    +0.000 N 
ATOM     19  C   UNL     1      48.021   3.964  17.275  0.00  0.00    +0.000 A 
ATOM     20  O   UNL     1      47.005   4.606  17.524  0.00  0.00    +0.000 OA
ATOM     21  C   UNL     1      49.363   4.464  17.485  0.00  0.00    +0.000 A 
ATOM     22  H   UNL     1      47.060   2.275  16.665  0.00  0.00    +0.000 HD
ENDBRANCH  11  12
ENDBRANCH   9  11
ENDBRANCH   5   7
BRANCH   1  23
ATOM     23  C   UNL     1      45.148   4.357  13.100  0.00  0.00    +0.000 C 
BRANCH  23  24
ATOM     24  N   UNL     1      45.326   3.165  12.256  0.00  0.00    +0.000 NA
ATOM     25  H   UNL     1      45.310   2.340  12.857  0.00  0.00    +0.000 HD
BRANCH  24  27
ATOM     26  C   UNL     1      43.194   4.075  11.305  0.00  0.00    +0.000 C 
ATOM     27  C   UNL     1      44.306   3.019  11.214  0.00  0.00    +0.000 C 
BRANCH  27  28
ATOM     28  C   UNL     1      44.976   3.098   9.850  0.00  0.00    +0.000 A 
ATOM     29  C   UNL     1      45.164   4.328   9.213  0.00  0.00    +0.000 A 
ATOM     30  C   UNL     1      45.791   4.345   7.978  0.00  0.00    +0.000 A 
ATOM     31  N   UNL     1      46.223   3.246   7.328  0.00  0.00    +0.000 NA
ATOM     32  C   UNL     1      46.024   2.067   7.954  0.00  0.00    +0.000 A 
ATOM     33  C   UNL     1      45.416   1.942   9.190  0.00  0.00    +0.000 A 
ENDBRANCH  27  28
ENDBRANCH  24  27
ENDBRANCH  23  24
ENDBRANCH   1  23
TORSDOF 7
ENDMDL
MODEL 9
REMARK VINA RESULT:    -7.465      3.635      8.664
REMARK INTER + INTRA:         -11.381
REMARK INTER:                  -9.973
REMARK INTRA:                  -1.407
REMARK UNBOUND:                -0.861
REMARK  Name = 
REMARK  8 active torsions:
REMARK  status: ('A' for Active; 'I' for Inactive)
REMARK    1  A    between atoms: C_1  and  C_2
REMARK    2  A    between atoms: C_2  and  N_3
REMARK    3  A    between atoms: C_2  and  C_25
REMARK    4  A    between atoms: N_3  and  C_4
REMARK    5  A    between atoms: C_4  and  C_5
REMARK    6  A    between atoms: C_9  and  C_10
REMARK    7  A    between atoms: N_12  and  C_13
REMARK    8  A    between atoms: C_13  and  C_14
REMARK                            x       y       z     vdW  Elec       q    Type
REMARK                         _______ _______ _______ _____ _____    ______ ____
ROOT
ATOM      1  C   UNL     1      49.251   7.683  16.171  0.00  0.00    +0.000 A 
ATOM      2  N   UNL     1      50.593   7.754  16.041  0.00  0.00    +0.000 NA
ATOM      3  C   UNL     1      51.088   7.794  14.794  0.00  0.00    +0.000 A 
ATOM      4  C   UNL     1      50.304   7.751  13.677  0.00  0.00    +0.000 A 
ATOM      5  C   UNL     1      48.947   7.655  13.910  0.00  0.00    +0.000 A 
ATOM      6  N   UNL     1      48.384   7.636  15.144  0.00  0.00    +0.000 NA
ENDROOT
BRANCH   5   7
ATOM      7  C   UNL     1      48.028   7.540  12.742  0.00  0.00    +0.000 C 
ATOM      8  O   UNL     1      48.410   7.888  11.627  0.00  0.00    +0.000 OA
ATOM      9  N   UNL     1      46.760   7.037  12.987  0.00  0.00    +0.000 N 
ATOM     10  H   UNL     1      46.449   7.042  13.957  0.00  0.00    +0.000 HD
BRANCH   9  11
ATOM     11  C   UNL     1      45.789   7.138  11.936  0.00  0.00    +0.000 C 
BRANCH  11  12
ATOM     12  C   UNL     1      45.633   5.883  11.140  0.00  0.00    +0.000 A 
ATOM     13  C   UNL     1      45.964   5.783   9.798  0.00  0.00    +0.000 A 
ATOM     14  S   UNL     1      45.284   4.405   9.046  0.00  0.00    +0.000 S 
ATOM     15  C   UNL     1      44.601   3.876  10.514  0.00  0.00    +0.000 A 
ATOM     16  N   UNL     1      43.770   2.800  10.572  0.00  0.00    +0.000 NA
ATOM     17  C   UNL     1      43.373   2.504  11.765  0.00  0.00    +0.000 A 
ATOM     18  N   UNL     1      43.766   3.155  12.910  0.00  0.00    +0.000 N 
ATOM     19  C   UNL     1      44.622   4.234  12.901  0.00  0.00    +0.000 A 
ATOM     20  O   UNL     1      45.056   4.735  13.934  0.00  0.00    +0.000 OA
ATOM     21  C   UNL     1      44.995   4.671  11.573  0.00  0.00    +0.000 A 
ATOM     22  H   UNL     1      43.485   2.813  13.816  0.00  0.00    +0.000 HD
ENDBRANCH  11  12
ENDBRANCH   9  11
ENDBRANCH   5   7
BRANCH   1  23
ATOM     23  C   UNL     1      48.678   7.600  17.584  0.00  0.00    +0.000 C 
BRANCH  23  24
ATOM     24  N   UNL     1      48.113   6.281  17.912  0.00  0.00    +0.000 NA
ATOM     25  H   UNL     1      47.767   5.856  17.051  0.00  0.00    +0.000 HD
BRANCH  24  27
ATOM     26  C   UNL     1      48.686   5.005  19.990  0.00  0.00    +0.000 C 
ATOM     27  C   UNL     1      49.067   5.369  18.548  0.00  0.00    +0.000 C 
BRANCH  27  28
ATOM     28  C   UNL     1      49.175   4.101  17.713  0.00  0.00    +0.000 A 
ATOM     29  C   UNL     1      48.109   3.673  16.916  0.00  0.00    +0.000 A 
ATOM     30  C   UNL     1      48.265   2.520  16.165  0.00  0.00    +0.000 A 
ATOM     31  N   UNL     1      49.379   1.760  16.159  0.00  0.00    +0.000 NA
ATOM     32  C   UNL     1      50.394   2.184  16.942  0.00  0.00    +0.000 A 
ATOM     33  C   UNL     1      50.342   3.324  17.723  0.00  0.00    +0.000 A 
ENDBRANCH  27  28
ENDBRANCH  24  27
ENDBRANCH  23  24
ENDBRANCH   1  23
TORSDOF 7
ENDMDL
