MODEL 1
REMARK VINA RESULT:    -9.137      0.000      0.000
REMARK INTER + INTRA:         -12.465
REMARK INTER:                 -11.808
REMARK INTRA:                  -0.657
REMARK UNBOUND:                -0.657
REMARK  Name = 
REMARK  5 active torsions:
REMARK  status: ('A' for Active; 'I' for Inactive)
REMARK    1  A    between atoms: C_2  and  C_4
REMARK    2  A    between atoms: C_8  and  C_9
REMARK    3  A    between atoms: C_9  and  N_10
REMARK    4  A    between atoms: N_10  and  C_11
REMARK    5  A    between atoms: C_15  and  C_16
REMARK                            x       y       z     vdW  Elec       q    Type
REMARK                         _______ _______ _______ _____ _____    ______ ____
ROOT
ATOM      1  N   UNL     1      43.397   6.520  10.857  0.00  0.00    +0.000 N 
ATOM      2  H   UNL     1      43.497   7.087  10.019  0.00  0.00    +0.000 HD
ENDROOT
BRANCH   1   3
ATOM      3  C   UNL     1      43.571   5.155  10.627  0.00  0.00    +0.000 A 
ATOM      4  C   UNL     1      42.978   4.219  11.477  0.00  0.00    +0.000 A 
ATOM      5  N   UNL     1      43.137   2.880  11.396  0.00  0.00    +0.000 NA
ATOM      6  C   UNL     1      43.976   2.434  10.434  0.00  0.00    +0.000 A 
ATOM      7  C   UNL     1      44.664   3.244   9.528  0.00  0.00    +0.000 A 
ATOM      8  C   UNL     1      44.438   4.629   9.660  0.00  0.00    +0.000 A 
BRANCH   7   9
ATOM      9  C   UNL     1      45.587   2.680   8.514  0.00  0.00    +0.000 A 
ATOM     10  C   UNL     1      46.222   3.501   7.557  0.00  0.00    +0.000 A 
ATOM     11  C   UNL     1      47.079   2.974   6.583  0.00  0.00    +0.000 A 
ATOM     12  C   UNL     1      47.338   1.609   6.552  0.00  0.00    +0.000 A 
ATOM     13  C   UNL     1      46.733   0.786   7.491  0.00  0.00    +0.000 A 
ATOM     14  F   UNL     1      46.983  -0.529   7.471  0.00  0.00    +0.000 F 
ATOM     15  C   UNL     1      45.868   1.303   8.454  0.00  0.00    +0.000 A 
ENDBRANCH   7   9
ENDBRANCH   1   3
BRANCH   1  16
ATOM     16  C   UNL     1      43.939   7.172  12.044  0.00  0.00    +0.000 C 
BRANCH  16  21
ATOM     17  C   UNL     1      46.849   5.334  13.677  0.00  0.00    +0.000 A 
ATOM     18  C   UNL     1      47.903   5.972  13.041  0.00  0.00    +0.000 A 
ATOM     19  N   UNL     1      47.739   6.921  12.089  0.00  0.00    +0.000 NA
ATOM     20  C   UNL     1      46.465   7.258  11.773  0.00  0.00    +0.000 A 
ATOM     21  C   UNL     1      45.332   6.696  12.360  0.00  0.00    +0.000 A 
ATOM     22  C   UNL     1      45.545   5.714  13.340  0.00  0.00    +0.000 A 
BRANCH  17  24
ATOM     23  N   UNL     1      47.109   4.703  16.010  0.00  0.00    +0.000 N 
ATOM     24  C   UNL     1      47.152   4.312  14.700  0.00  0.00    +0.000 C 
ATOM     25  O   UNL     1      47.399   3.153  14.395  0.00  0.00    +0.000 OA
ATOM     26  H   UNL     1      47.202   3.962  16.694  0.00  0.00    +0.000 HD
ATOM     27  H   UNL     1      46.646   5.550  16.306  0.00  0.00    +0.000 HD
ENDBRANCH  17  24
ENDBRANCH  16  21
ENDBRANCH   1  16
TORSDOF 5
ENDMDL
MODEL 2
REMARK VINA RESULT:    -8.814      3.656      6.898
REMARK INTER + INTRA:         -12.047
REMARK INTER:                 -11.484
REMARK INTRA:                  -0.563
REMARK UNBOUND:                -0.657
REMARK  Name = 
REMARK  5 active torsions:
REMARK  status: ('A' for Active; 'I' for Inactive)
REMARK    1  A    between atoms: C_2  and  C_4
REMARK    2  A    between atoms: C_8  and  C_9
REMARK    3  A    between atoms: C_9  and  N_10
REMARK    4  A    between atoms: N_10  and  C_11
REMARK    5  A    between atoms: C_15  and  C_16
REMARK                            x       y       z     vdW  Elec       q    Type
REMARK                         _______ _______ _______ _____ _____    ______ ____
ROOT
ATOM      1  N   UNL     1      44.800   2.815  11.876  0.00  0.00    +0.000 N 
ATOM      2  H   UNL     1      45.184   1.874  11.858  0.00  0.00    +0.000 HD
ENDROOT
BRANCH   1   3
ATOM      3  C   UNL     1      45.657   3.752  12.455  0.00  0.00    +0.000 A 
ATOM      4  C   UNL     1      46.500   3.378  13.503  0.00  0.00    +0.000 A 
ATOM      5  N   UNL     1      47.314   4.211  14.187  0.00  0.00    +0.000 NA
ATOM      6  C   UNL     1      47.261   5.517  13.838  0.00  0.00    +0.000 A 
ATOM      7  C   UNL     1      46.451   6.050  12.835  0.00  0.00    +0.000 A 
ATOM      8  C   UNL     1      45.640   5.120  12.152  0.00  0.00    +0.000 A 
BRANCH   7   9
ATOM      9  C   UNL     1      46.431   7.500  12.527  0.00  0.00    +0.000 A 
ATOM     10  C   UNL     1      47.623   8.223  12.303  0.00  0.00    +0.000 A 
ATOM     11  C   UNL     1      47.614   9.597  12.033  0.00  0.00    +0.000 A 
ATOM     12  C   UNL     1      46.407  10.283  11.962  0.00  0.00    +0.000 A 
ATOM     13  C   UNL     1      45.224   9.588  12.169  0.00  0.00    +0.000 A 
ATOM     14  F   UNL     1      44.057  10.242  12.096  0.00  0.00    +0.000 F 
ATOM     15  C   UNL     1      45.227   8.223  12.452  0.00  0.00    +0.000 A 
ENDBRANCH   7   9
ENDBRANCH   1   3
BRANCH   1  16
ATOM     16  C   UNL     1      44.017   3.125  10.685  0.00  0.00    +0.000 C 
BRANCH  16  21
ATOM     17  C   UNL     1      46.367   2.146   7.852  0.00  0.00    +0.000 A 
ATOM     18  C   UNL     1      46.582   3.398   7.296  0.00  0.00    +0.000 A 
ATOM     19  N   UNL     1      45.986   4.528   7.744  0.00  0.00    +0.000 NA
ATOM     20  C   UNL     1      45.153   4.403   8.804  0.00  0.00    +0.000 A 
ATOM     21  C   UNL     1      44.877   3.199   9.451  0.00  0.00    +0.000 A 
ATOM     22  C   UNL     1      45.512   2.051   8.955  0.00  0.00    +0.000 A 
BRANCH  17  24
ATOM     23  N   UNL     1      46.709  -0.257   7.722  0.00  0.00    +0.000 N 
ATOM     24  C   UNL     1      47.074   0.984   7.276  0.00  0.00    +0.000 C 
ATOM     25  O   UNL     1      47.928   1.117   6.410  0.00  0.00    +0.000 OA
ATOM     26  H   UNL     1      47.120  -1.041   7.228  0.00  0.00    +0.000 HD
ATOM     27  H   UNL     1      45.840  -0.422   8.209  0.00  0.00    +0.000 HD
ENDBRANCH  17  24
ENDBRANCH  16  21
ENDBRANCH   1  16
TORSDOF 5
ENDMDL
MODEL 3
REMARK VINA RESULT:    -8.516      1.784      2.555
REMARK INTER + INTRA:         -11.662
REMARK INTER:                 -10.829
REMARK INTRA:                  -0.833
REMARK UNBOUND:                -0.657
REMARK  Name = 
REMARK  5 active torsions:
REMARK  status: ('A' for Active; 'I' for Inactive)
REMARK    1  A    between atoms: C_2  and  C_4
REMARK    2  A    between atoms: C_8  and  C_9
REMARK    3  A    between atoms: C_9  and  N_10
REMARK    4  A    between atoms: N_10  and  C_11
REMARK    5  A    between atoms: C_15  and  C_16
REMARK                            x       y       z     vdW  Elec       q    Type
REMARK                         _______ _______ _______ _____ _____    ______ ____
ROOT
ATOM      1  N   UNL     1      44.101   6.661  11.135  0.00  0.00    +0.000 N 
ATOM      2  H   UNL     1      44.466   7.267  10.405  0.00  0.00    +0.000 HD
ENDROOT
BRANCH   1   3
ATOM      3  C   UNL     1      44.047   5.317  10.763  0.00  0.00    +0.000 A 
ATOM      4  C   UNL     1      43.247   4.423  11.479  0.00  0.00    +0.000 A 
ATOM      5  N   UNL     1      43.174   3.093  11.259  0.00  0.00    +0.000 NA
ATOM      6  C   UNL     1      43.981   2.602  10.290  0.00  0.00    +0.000 A 
ATOM      7  C   UNL     1      44.855   3.360   9.510  0.00  0.00    +0.000 A 
ATOM      8  C   UNL     1      44.867   4.743   9.783  0.00  0.00    +0.000 A 
BRANCH   7   9
ATOM      9  C   UNL     1      45.727   2.743   8.482  0.00  0.00    +0.000 A 
ATOM     10  C   UNL     1      46.374   3.523   7.499  0.00  0.00    +0.000 A 
ATOM     11  C   UNL     1      47.183   2.946   6.512  0.00  0.00    +0.000 A 
ATOM     12  C   UNL     1      47.380   1.571   6.493  0.00  0.00    +0.000 A 
ATOM     13  C   UNL     1      46.762   0.788   7.457  0.00  0.00    +0.000 A 
ATOM     14  F   UNL     1      46.953  -0.538   7.448  0.00  0.00    +0.000 F 
ATOM     15  C   UNL     1      45.944   1.354   8.434  0.00  0.00    +0.000 A 
ENDBRANCH   7   9
ENDBRANCH   1   3
BRANCH   1  16
ATOM     16  C   UNL     1      44.524   7.071  12.469  0.00  0.00    +0.000 C 
BRANCH  16  21
ATOM     17  C   UNL     1      48.275   7.679  12.214  0.00  0.00    +0.000 A 
ATOM     18  C   UNL     1      48.732   6.544  12.866  0.00  0.00    +0.000 A 
ATOM     19  N   UNL     1      47.913   5.620  13.423  0.00  0.00    +0.000 NA
ATOM     20  C   UNL     1      46.580   5.832  13.305  0.00  0.00    +0.000 A 
ATOM     21  C   UNL     1      46.011   6.927  12.656  0.00  0.00    +0.000 A 
ATOM     22  C   UNL     1      46.894   7.863  12.096  0.00  0.00    +0.000 A 
BRANCH  17  24
ATOM     23  N   UNL     1      48.863   9.909  11.446  0.00  0.00    +0.000 N 
ATOM     24  C   UNL     1      49.266   8.617  11.647  0.00  0.00    +0.000 C 
ATOM     25  O   UNL     1      50.412   8.267  11.399  0.00  0.00    +0.000 OA
ATOM     26  H   UNL     1      49.590  10.559  11.172  0.00  0.00    +0.000 HD
ATOM     27  H   UNL     1      48.042  10.294  11.889  0.00  0.00    +0.000 HD
ENDBRANCH  17  24
ENDBRANCH  16  21
ENDBRANCH   1  16
TORSDOF 5
ENDMDL
MODEL 4
REMARK VINA RESULT:    -8.289      1.565      2.034
REMARK INTER + INTRA:         -11.369
REMARK INTER:                 -10.726
REMARK INTRA:                  -0.643
REMARK UNBOUND:                -0.657
REMARK  Name = 
REMARK  5 active torsions:
REMARK  status: ('A' for Active; 'I' for Inactive)
REMARK    1  A    between atoms: C_2  and  C_4
REMARK    2  A    between atoms: C_8  and  C_9
REMARK    3  A    between atoms: C_9  and  N_10
REMARK    4  A    between atoms: N_10  and  C_11
REMARK    5  A    between atoms: C_15  and  C_16
REMARK                            x       y       z     vdW  Elec       q    Type
REMARK                         _______ _______ _______ _____ _____    ______ ____
ROOT
ATOM      1  N   UNL     1      45.135   5.827  12.837  0.00  0.00    +0.000 N 
ATOM      2  H   UNL     1      44.444   6.546  13.033  0.00  0.00    +0.000 HD
ENDROOT
BRANCH   1   3
ATOM      3  C   UNL     1      44.676   4.839  11.965  0.00  0.00    +0.000 A 
ATOM      4  C   UNL     1      43.562   4.068  12.302  0.00  0.00    +0.000 A 
ATOM      5  N   UNL     1      43.075   3.039  11.575  0.00  0.00    +0.000 NA
ATOM      6  C   UNL     1      43.762   2.721  10.455  0.00  0.00    +0.000 A 
ATOM      7  C   UNL     1      44.907   3.376  10.000  0.00  0.00    +0.000 A 
ATOM      8  C   UNL     1      45.350   4.450  10.799  0.00  0.00    +0.000 A 
BRANCH   7   9
ATOM      9  C   UNL     1      45.620   2.951   8.771  0.00  0.00    +0.000 A 
ATOM     10  C   UNL     1      45.989   3.881   7.774  0.00  0.00    +0.000 A 
ATOM     11  C   UNL     1      46.644   3.485   6.601  0.00  0.00    +0.000 A 
ATOM     12  C   UNL     1      46.963   2.147   6.402  0.00  0.00    +0.000 A 
ATOM     13  C   UNL     1      46.619   1.220   7.375  0.00  0.00    +0.000 A 
ATOM     14  F   UNL     1      46.929  -0.071   7.192  0.00  0.00    +0.000 F 
ATOM     15  C   UNL     1      45.954   1.605   8.539  0.00  0.00    +0.000 A 
ENDBRANCH   7   9
ENDBRANCH   1   3
BRANCH   1  16
ATOM     16  C   UNL     1      46.490   6.360  12.746  0.00  0.00    +0.000 C 
BRANCH  16  21
ATOM     17  C   UNL     1      47.760   4.552  15.848  0.00  0.00    +0.000 A 
ATOM     18  C   UNL     1      48.745   5.445  16.241  0.00  0.00    +0.000 A 
ATOM     19  N   UNL     1      49.058   6.566  15.549  0.00  0.00    +0.000 NA
ATOM     20  C   UNL     1      48.342   6.813  14.425  0.00  0.00    +0.000 A 
ATOM     21  C   UNL     1      47.320   5.995  13.947  0.00  0.00    +0.000 A 
ATOM     22  C   UNL     1      47.028   4.841  14.691  0.00  0.00    +0.000 A 
BRANCH  17  24
ATOM     23  N   UNL     1      48.538   2.471  16.834  0.00  0.00    +0.000 N 
ATOM     24  C   UNL     1      47.510   3.360  16.685  0.00  0.00    +0.000 C 
ATOM     25  O   UNL     1      46.439   3.189  17.252  0.00  0.00    +0.000 OA
ATOM     26  H   UNL     1      48.383   1.728  17.505  0.00  0.00    +0.000 HD
ATOM     27  H   UNL     1      49.496   2.711  16.623  0.00  0.00    +0.000 HD
ENDBRANCH  17  24
ENDBRANCH  16  21
ENDBRANCH   1  16
TORSDOF 5
ENDMDL
MODEL 5
REMARK VINA RESULT:    -8.051      1.977      2.305
REMARK INTER + INTRA:         -11.061
REMARK INTER:                 -10.302
REMARK INTRA:                  -0.759
REMARK UNBOUND:                -0.657
REMARK  Name = 
REMARK  5 active torsions:
REMARK  status: ('A' for Active; 'I' for Inactive)
REMARK    1  A    between atoms: C_2  and  C_4
REMARK    2  A    between atoms: C_8  and  C_9
REMARK    3  A    between atoms: C_9  and  N_10
REMARK    4  A    between atoms: N_10  and  C_11
REMARK    5  A    between atoms: C_15  and  C_16
REMARK                            x       y       z     vdW  Elec       q    Type
REMARK                         _______ _______ _______ _____ _____    ______ ____
ROOT
ATOM      1  N   UNL     1      44.308   6.367  12.209  0.00  0.00    +0.000 N 
ATOM      2  H   UNL     1      43.699   6.483  13.015  0.00  0.00    +0.000 HD
ENDROOT
BRANCH   1   3
ATOM      3  C   UNL     1      44.135   5.146  11.556  0.00  0.00    +0.000 A 
ATOM      4  C   UNL     1      43.279   4.180  12.088  0.00  0.00    +0.000 A 
ATOM      5  N   UNL     1      43.091   2.941  11.587  0.00  0.00    +0.000 NA
ATOM      6  C   UNL     1      43.834   2.614  10.505  0.00  0.00    +0.000 A 
ATOM      7  C   UNL     1      44.753   3.456   9.877  0.00  0.00    +0.000 A 
ATOM      8  C   UNL     1      44.886   4.740  10.444  0.00  0.00    +0.000 A 
BRANCH   7   9
ATOM      9  C   UNL     1      45.551   3.016   8.707  0.00  0.00    +0.000 A 
ATOM     10  C   UNL     1      45.937   3.922   7.695  0.00  0.00    +0.000 A 
ATOM     11  C   UNL     1      46.673   3.510   6.576  0.00  0.00    +0.000 A 
ATOM     12  C   UNL     1      47.057   2.181   6.450  0.00  0.00    +0.000 A 
ATOM     13  C   UNL     1      46.696   1.277   7.439  0.00  0.00    +0.000 A 
ATOM     14  F   UNL     1      47.068  -0.005   7.326  0.00  0.00    +0.000 F 
ATOM     15  C   UNL     1      45.952   1.678   8.548  0.00  0.00    +0.000 A 
ENDBRANCH   7   9
ENDBRANCH   1   3
BRANCH   1  16
ATOM     16  C   UNL     1      44.506   7.609  11.471  0.00  0.00    +0.000 C 
BRANCH  16  21
ATOM     17  C   UNL     1      48.131   8.107  12.528  0.00  0.00    +0.000 A 
ATOM     18  C   UNL     1      48.154   9.491  12.608  0.00  0.00    +0.000 A 
ATOM     19  N   UNL     1      47.095  10.276  12.300  0.00  0.00    +0.000 NA
ATOM     20  C   UNL     1      45.958   9.648  11.913  0.00  0.00    +0.000 A 
ATOM     21  C   UNL     1      45.817   8.264  11.814  0.00  0.00    +0.000 A 
ATOM     22  C   UNL     1      46.939   7.486  12.139  0.00  0.00    +0.000 A 
BRANCH  17  24
ATOM     23  N   UNL     1      50.402   7.409  12.014  0.00  0.00    +0.000 N 
ATOM     24  C   UNL     1      49.352   7.356  12.889  0.00  0.00    +0.000 C 
ATOM     25  O   UNL     1      49.437   6.739  13.942  0.00  0.00    +0.000 OA
ATOM     26  H   UNL     1      51.265   6.989  12.338  0.00  0.00    +0.000 HD
ATOM     27  H   UNL     1      50.473   8.116  11.297  0.00  0.00    +0.000 HD
ENDBRANCH  17  24
ENDBRANCH  16  21
ENDBRANCH   1  16
TORSDOF 5
ENDMDL
MODEL 6
REMARK VINA RESULT:    -7.700      3.482      7.329
REMARK INTER + INTRA:         -10.608
REMARK INTER:                  -9.972
REMARK INTRA:                  -0.636
REMARK UNBOUND:                -0.657
REMARK  Name = 
REMARK  5 active torsions:
REMARK  status: ('A' for Active; 'I' for Inactive)
REMARK    1  A    between atoms: C_2  and  C_4
REMARK    2  A    between atoms: C_8  and  C_9
REMARK    3  A    between atoms: C_9  and  N_10
REMARK    4  A    between atoms: N_10  and  C_11
REMARK    5  A    between atoms: C_15  and  C_16
REMARK                            x       y       z     vdW  Elec       q    Type
REMARK                         _______ _______ _______ _____ _____    ______ ____
ROOT
ATOM      1  N   UNL     1      44.432   4.682  11.121  0.00  0.00    +0.000 N 
ATOM      2  H   UNL     1      44.168   3.789  11.530  0.00  0.00    +0.000 HD
ENDROOT
BRANCH   1   3
ATOM      3  C   UNL     1      45.462   5.324  11.810  0.00  0.00    +0.000 A 
ATOM      4  C   UNL     1      46.212   6.321  11.182  0.00  0.00    +0.000 A 
ATOM      5  N   UNL     1      47.275   6.955  11.721  0.00  0.00    +0.000 NA
ATOM      6  C   UNL     1      47.653   6.547  12.954  0.00  0.00    +0.000 A 
ATOM      7  C   UNL     1      47.026   5.545  13.697  0.00  0.00    +0.000 A 
ATOM      8  C   UNL     1      45.913   4.938  13.079  0.00  0.00    +0.000 A 
BRANCH   7   9
ATOM      9  C   UNL     1      47.515   5.136  15.036  0.00  0.00    +0.000 A 
ATOM     10  C   UNL     1      48.486   5.893  15.729  0.00  0.00    +0.000 A 
ATOM     11  C   UNL     1      48.968   5.502  16.985  0.00  0.00    +0.000 A 
ATOM     12  C   UNL     1      48.479   4.350  17.588  0.00  0.00    +0.000 A 
ATOM     13  C   UNL     1      47.517   3.599  16.928  0.00  0.00    +0.000 A 
ATOM     14  F   UNL     1      47.036   2.491  17.508  0.00  0.00    +0.000 F 
ATOM     15  C   UNL     1      47.042   3.975  15.672  0.00  0.00    +0.000 A 
ENDBRANCH   7   9
ENDBRANCH   1   3
BRANCH   1  16
ATOM     16  C   UNL     1      44.375   4.672   9.664  0.00  0.00    +0.000 C 
BRANCH  16  21
ATOM     17  C   UNL     1      46.558   2.443   7.478  0.00  0.00    +0.000 A 
ATOM     18  C   UNL     1      46.125   1.202   7.920  0.00  0.00    +0.000 A 
ATOM     19  N   UNL     1      45.212   1.035   8.905  0.00  0.00    +0.000 NA
ATOM     20  C   UNL     1      44.697   2.159   9.460  0.00  0.00    +0.000 A 
ATOM     21  C   UNL     1      45.045   3.455   9.084  0.00  0.00    +0.000 A 
ATOM     22  C   UNL     1      45.997   3.585   8.061  0.00  0.00    +0.000 A 
BRANCH  17  24
ATOM     23  N   UNL     1      47.309   3.345   5.350  0.00  0.00    +0.000 N 
ATOM     24  C   UNL     1      47.562   2.499   6.395  0.00  0.00    +0.000 C 
ATOM     25  O   UNL     1      48.594   1.845   6.443  0.00  0.00    +0.000 OA
ATOM     26  H   UNL     1      48.064   3.457   4.683  0.00  0.00    +0.000 HD
ATOM     27  H   UNL     1      46.630   4.090   5.409  0.00  0.00    +0.000 HD
ENDBRANCH  17  24
ENDBRANCH  16  21
ENDBRANCH   1  16
TORSDOF 5
ENDMDL
MODEL 7
REMARK VINA RESULT:    -7.473      2.674      3.492
REMARK INTER + INTRA:         -10.314
REMARK INTER:                  -9.595
REMARK INTRA:                  -0.719
REMARK UNBOUND:                -0.657
REMARK  Name = 
REMARK  5 active torsions:
REMARK  status: ('A' for Active; 'I' for Inactive)
REMARK    1  A    between atoms: C_2  and  C_4
REMARK    2  A    between atoms: C_8  and  C_9
REMARK    3  A    between atoms: C_9  and  N_10
REMARK    4  A    between atoms: N_10  and  C_11
REMARK    5  A    between atoms: C_15  and  C_16
REMARK                            x       y       z     vdW  Elec       q    Type
REMARK                         _______ _______ _______ _____ _____    ______ ____
ROOT
ATOM      1  N   UNL     1      45.618   6.622  13.231  0.00  0.00    +0.000 N 
ATOM      2  H   UNL     1      45.316   7.593  13.252  0.00  0.00    +0.000 HD
ENDROOT
BRANCH   1   3
ATOM      3  C   UNL     1      44.920   5.845  12.304  0.00  0.00    +0.000 A 
ATOM      4  C   UNL     1      43.566   5.565  12.502  0.00  0.00    +0.000 A 
ATOM      5  N   UNL     1      42.811   4.767  11.717  0.00  0.00    +0.000 NA
ATOM      6  C   UNL     1      43.448   4.169  10.685  0.00  0.00    +0.000 A 
ATOM      7  C   UNL     1      44.800   4.325  10.374  0.00  0.00    +0.000 A 
ATOM      8  C   UNL     1      45.523   5.184  11.226  0.00  0.00    +0.000 A 
BRANCH   7   9
ATOM      9  C   UNL     1      45.432   3.613   9.237  0.00  0.00    +0.000 A 
ATOM     10  C   UNL     1      46.000   4.315   8.152  0.00  0.00    +0.000 A 
ATOM     11  C   UNL     1      46.582   3.651   7.064  0.00  0.00    +0.000 A 
ATOM     12  C   UNL     1      46.624   2.262   7.043  0.00  0.00    +0.000 A 
ATOM     13  C   UNL     1      46.081   1.554   8.105  0.00  0.00    +0.000 A 
ATOM     14  F   UNL     1      46.124   0.215   8.093  0.00  0.00    +0.000 F 
ATOM     15  C   UNL     1      45.489   2.209   9.184  0.00  0.00    +0.000 A 
ENDBRANCH   7   9
ENDBRANCH   1   3
BRANCH   1  16
ATOM     16  C   UNL     1      47.056   6.477  13.424  0.00  0.00    +0.000 C 
BRANCH  16  21
ATOM     17  C   UNL     1      49.906   8.348  11.725  0.00  0.00    +0.000 A 
ATOM     18  C   UNL     1      49.278   9.564  11.506  0.00  0.00    +0.000 A 
ATOM     19  N   UNL     1      47.985   9.807  11.828  0.00  0.00    +0.000 NA
ATOM     20  C   UNL     1      47.297   8.794  12.409  0.00  0.00    +0.000 A 
ATOM     21  C   UNL     1      47.832   7.538  12.691  0.00  0.00    +0.000 A 
ATOM     22  C   UNL     1      49.174   7.326  12.339  0.00  0.00    +0.000 A 
BRANCH  17  24
ATOM     23  N   UNL     1      51.674   7.054  10.671  0.00  0.00    +0.000 N 
ATOM     24  C   UNL     1      51.322   8.200  11.330  0.00  0.00    +0.000 C 
ATOM     25  O   UNL     1      52.144   9.080  11.550  0.00  0.00    +0.000 OA
ATOM     26  H   UNL     1      52.619   7.029  10.305  0.00  0.00    +0.000 HD
ATOM     27  H   UNL     1      50.992   6.452  10.232  0.00  0.00    +0.000 HD
ENDBRANCH  17  24
ENDBRANCH  16  21
ENDBRANCH   1  16
TORSDOF 5
ENDMDL
MODEL 8
REMARK VINA RESULT:    -7.464      2.932      4.076
REMARK INTER + INTRA:         -10.303
REMARK INTER:                  -9.757
REMARK INTRA:                  -0.546
REMARK UNBOUND:                -0.657
REMARK  Name = 
REMARK  5 active torsions:
REMARK  status: ('A' for Active; 'I' for Inactive)
REMARK    1  A    between atoms: C_2  and  C_4
REMARK    2  A    between atoms: C_8  and  C_9
REMARK    3  A    between atoms: C_9  and  N_10
REMARK    4  A    between atoms: N_10  and  C_11
REMARK    5  A    between atoms: C_15  and  C_16
REMARK                            x       y       z     vdW  Elec       q    Type
REMARK                         _______ _______ _______ _____ _____    ______ ____
ROOT
ATOM      1  N   UNL     1      45.616   6.502  13.273  0.00  0.00    +0.000 N 
ATOM      2  H   UNL     1      45.007   7.019  13.902  0.00  0.00    +0.000 HD
ENDROOT
BRANCH   1   3
ATOM      3  C   UNL     1      44.923   5.734  12.336  0.00  0.00    +0.000 A 
ATOM      4  C   UNL     1      43.576   5.429  12.539  0.00  0.00    +0.000 A 
ATOM      5  N   UNL     1      42.826   4.636  11.742  0.00  0.00    +0.000 NA
ATOM      6  C   UNL     1      43.464   4.069  10.693  0.00  0.00    +0.000 A 
ATOM      7  C   UNL     1      44.811   4.252  10.375  0.00  0.00    +0.000 A 
ATOM      8  C   UNL     1      45.527   5.105  11.240  0.00  0.00    +0.000 A 
BRANCH   7   9
ATOM      9  C   UNL     1      45.445   3.574   9.219  0.00  0.00    +0.000 A 
ATOM     10  C   UNL     1      45.990   4.307   8.142  0.00  0.00    +0.000 A 
ATOM     11  C   UNL     1      46.573   3.674   7.037  0.00  0.00    +0.000 A 
ATOM     12  C   UNL     1      46.640   2.287   6.989  0.00  0.00    +0.000 A 
ATOM     13  C   UNL     1      46.120   1.549   8.042  0.00  0.00    +0.000 A 
ATOM     14  F   UNL     1      46.188   0.212   8.003  0.00  0.00    +0.000 F 
ATOM     15  C   UNL     1      45.527   2.173   9.138  0.00  0.00    +0.000 A 
ENDBRANCH   7   9
ENDBRANCH   1   3
BRANCH   1  16
ATOM     16  C   UNL     1      46.817   7.249  12.915  0.00  0.00    +0.000 C 
BRANCH  16  21
ATOM     17  C   UNL     1      44.913  10.317  11.703  0.00  0.00    +0.000 A 
ATOM     18  C   UNL     1      45.973  11.200  11.565  0.00  0.00    +0.000 A 
ATOM     19  N   UNL     1      47.252  10.887  11.880  0.00  0.00    +0.000 NA
ATOM     20  C   UNL     1      47.482   9.632  12.335  0.00  0.00    +0.000 A 
ATOM     21  C   UNL     1      46.497   8.659  12.496  0.00  0.00    +0.000 A 
ATOM     22  C   UNL     1      45.184   9.023  12.161  0.00  0.00    +0.000 A 
BRANCH  17  24
ATOM     23  N   UNL     1      43.135  10.504  10.055  0.00  0.00    +0.000 N 
ATOM     24  C   UNL     1      43.558  10.773  11.328  0.00  0.00    +0.000 C 
ATOM     25  O   UNL     1      42.827  11.338  12.130  0.00  0.00    +0.000 OA
ATOM     26  H   UNL     1      42.164  10.717   9.860  0.00  0.00    +0.000 HD
ATOM     27  H   UNL     1      43.583   9.811   9.472  0.00  0.00    +0.000 HD
ENDBRANCH  17  24
ENDBRANCH  16  21
ENDBRANCH   1  16
TORSDOF 5
ENDMDL
MODEL 9
REMARK VINA RESULT:    -7.197      2.663      4.713
REMARK INTER + INTRA:          -9.957
REMARK INTER:                  -9.336
REMARK INTRA:                  -0.621
REMARK UNBOUND:                -0.657
REMARK  Name = 
REMARK  5 active torsions:
REMARK  status: ('A' for Active; 'I' for Inactive)
REMARK    1  A    between atoms: C_2  and  C_4
REMARK    2  A    between atoms: C_8  and  C_9
REMARK    3  A    between atoms: C_9  and  N_10
REMARK    4  A    between atoms: N_10  and  C_11
REMARK    5  A    between atoms: C_15  and  C_16
REMARK                            x       y       z     vdW  Elec       q    Type
REMARK                         _______ _______ _______ _____ _____    ______ ____
ROOT
ATOM      1  N   UNL     1      47.519   7.439  14.316  0.00  0.00    +0.000 N 
ATOM      2  H   UNL     1      47.885   8.362  14.536  0.00  0.00    +0.000 HD
ENDROOT
BRANCH   1   3
ATOM      3  C   UNL     1      46.654   7.433  13.221  0.00  0.00    +0.000 A 
ATOM      4  C   UNL     1      45.857   8.547  12.950  0.00  0.00    +0.000 A 
ATOM      5  N   UNL     1      44.934   8.626  11.967  0.00  0.00    +0.000 NA
ATOM      6  C   UNL     1      44.754   7.511  11.225  0.00  0.00    +0.000 A 
ATOM      7  C   UNL     1      45.449   6.312  11.391  0.00  0.00    +0.000 A 
ATOM      8  C   UNL     1      46.409   6.306  12.424  0.00  0.00    +0.000 A 
BRANCH   7   9
ATOM      9  C   UNL     1      45.176   5.122  10.551  0.00  0.00    +0.000 A 
ATOM     10  C   UNL     1      44.455   4.015  11.050  0.00  0.00    +0.000 A 
ATOM     11  C   UNL     1      44.210   2.879  10.270  0.00  0.00    +0.000 A 
ATOM     12  C   UNL     1      44.668   2.826   8.959  0.00  0.00    +0.000 A 
ATOM     13  C   UNL     1      45.370   3.907   8.445  0.00  0.00    +0.000 A 
ATOM     14  F   UNL     1      45.809   3.865   7.180  0.00  0.00    +0.000 F 
ATOM     15  C   UNL     1      45.629   5.036   9.222  0.00  0.00    +0.000 A 
ENDBRANCH   7   9
ENDBRANCH   1   3
BRANCH   1  16
ATOM     16  C   UNL     1      48.502   6.381  14.523  0.00  0.00    +0.000 C 
BRANCH  16  21
ATOM     17  C   UNL     1      48.345   4.601  17.886  0.00  0.00    +0.000 A 
ATOM     18  C   UNL     1      47.449   3.593  17.566  0.00  0.00    +0.000 A 
ATOM     19  N   UNL     1      46.857   3.475  16.353  0.00  0.00    +0.000 NA
ATOM     20  C   UNL     1      47.191   4.396  15.417  0.00  0.00    +0.000 A 
ATOM     21  C   UNL     1      48.091   5.440  15.623  0.00  0.00    +0.000 A 
ATOM     22  C   UNL     1      48.681   5.528  16.894  0.00  0.00    +0.000 A 
BRANCH  17  24
ATOM     23  N   UNL     1      48.548   3.635  20.108  0.00  0.00    +0.000 N 
ATOM     24  C   UNL     1      48.926   4.627  19.245  0.00  0.00    +0.000 C 
ATOM     25  O   UNL     1      49.739   5.478  19.578  0.00  0.00    +0.000 OA
ATOM     26  H   UNL     1      49.048   3.604  20.988  0.00  0.00    +0.000 HD
ATOM     27  H   UNL     1      48.115   2.779  19.792  0.00  0.00    +0.000 HD
ENDBRANCH  17  24
ENDBRANCH  16  21
ENDBRANCH   1  16
TORSDOF 5
ENDMDL
