MODEL 1
REMARK VINA RESULT:    -8.763      0.000      0.000
REMARK INTER + INTRA:         -13.020
REMARK INTER:                 -12.350
REMARK INTRA:                  -0.670
REMARK UNBOUND:                -0.670
REMARK  Name = 
REMARK  8 active torsions:
REMARK  status: ('A' for Active; 'I' for Inactive)
REMARK    1  A    between atoms: C_1  and  C_2
REMARK    2  A    between atoms: C_2  and  C_3
REMARK    3  A    between atoms: C_2  and  C_14
REMARK    4  A    between atoms: C_3  and  N_4
REMARK    5  A    between atoms: C_8  and  C_9
REMARK    6  A    between atoms: C_18  and  O_19
REMARK    7  A    between atoms: O_19  and  C_20
REMARK    8  A    between atoms: C_20  and  C_21
REMARK                            x       y       z     vdW  Elec       q    Type
REMARK                         _______ _______ _______ _____ _____    ______ ____
ROOT
ATOM      1  C   UNL     1      42.651   5.648  12.853  0.00  0.00    +0.000 C 
ATOM      2  C   UNL     1      43.750   4.777  12.326  0.00  0.00    +0.000 C 
ENDROOT
BRANCH   2   3
ATOM      3  C   UNL     1      45.155   5.155  12.627  0.00  0.00    +0.000 A 
ATOM      4  C   UNL     1      45.755   6.269  12.028  0.00  0.00    +0.000 A 
ATOM      5  C   UNL     1      47.068   6.635  12.353  0.00  0.00    +0.000 A 
ATOM      6  C   UNL     1      47.795   5.907  13.295  0.00  0.00    +0.000 A 
ATOM      7  C   UNL     1      47.205   4.811  13.917  0.00  0.00    +0.000 A 
ATOM      8  C   UNL     1      45.915   4.422  13.553  0.00  0.00    +0.000 A 
BRANCH   7   9
ATOM      9  O   UNL     1      47.801   4.034  14.871  0.00  0.00    +0.000 OA
BRANCH   9  10
ATOM     10  C   UNL     1      47.273   4.178  16.196  0.00  0.00    +0.000 C 
BRANCH  10  11
ATOM     11  C   UNL     1      47.850   3.131  17.147  0.00  0.00    +0.000 C 
ATOM     12  F   UNL     1      46.910   2.333  17.697  0.00  0.00    +0.000 F 
ATOM     13  F   UNL     1      48.734   2.332  16.501  0.00  0.00    +0.000 F 
ATOM     14  F   UNL     1      48.522   3.725  18.162  0.00  0.00    +0.000 F 
ENDBRANCH  10  11
ENDBRANCH   9  10
ENDBRANCH   7   9
ENDBRANCH   2   3
BRANCH   2  15
ATOM     15  C   UNL     1      43.514   3.924  11.108  0.00  0.00    +0.000 C 
BRANCH  15  16
ATOM     16  N   UNL     1      43.760   4.633   9.869  0.00  0.00    +0.000 N 
ATOM     17  C   UNL     1      44.668   3.928   9.070  0.00  0.00    +0.000 A 
ATOM     18  N   UNL     1      44.729   2.588   9.157  0.00  0.00    +0.000 NA
ATOM     19  C   UNL     1      45.672   1.948   8.435  0.00  0.00    +0.000 A 
ATOM     20  C   UNL     1      46.547   2.594   7.599  0.00  0.00    +0.000 A 
ATOM     21  C   UNL     1      46.407   3.963   7.565  0.00  0.00    +0.000 A 
ATOM     22  N   UNL     1      45.486   4.648   8.290  0.00  0.00    +0.000 NA
ATOM     23  H   UNL     1      44.136   5.568   9.955  0.00  0.00    +0.000 HD
BRANCH  20  24
ATOM     24  C   UNL     1      47.557   1.819   6.866  0.00  0.00    +0.000 C 
ATOM     25  N   UNL     1      48.652   2.481   6.386  0.00  0.00    +0.000 N 
ATOM     26  O   UNL     1      47.407   0.622   6.662  0.00  0.00    +0.000 OA
ATOM     27  H   UNL     1      48.707   3.487   6.304  0.00  0.00    +0.000 HD
ATOM     28  H   UNL     1      49.266   1.936   5.791  0.00  0.00    +0.000 HD
ENDBRANCH  20  24
ENDBRANCH  15  16
ENDBRANCH   2  15
TORSDOF 7
ENDMDL
MODEL 2
REMARK VINA RESULT:    -8.030      4.547      5.387
REMARK INTER + INTRA:         -11.987
REMARK INTER:                 -11.198
REMARK INTRA:                  -0.789
REMARK UNBOUND:                -0.670
REMARK  Name = 
REMARK  8 active torsions:
REMARK  status: ('A' for Active; 'I' for Inactive)
REMARK    1  A    between atoms: C_1  and  C_2
REMARK    2  A    between atoms: C_2  and  C_3
REMARK    3  A    between atoms: C_2  and  C_14
REMARK    4  A    between atoms: C_3  and  N_4
REMARK    5  A    between atoms: C_8  and  C_9
REMARK    6  A    between atoms: C_18  and  O_19
REMARK    7  A    between atoms: O_19  and  C_20
REMARK    8  A    between atoms: C_20  and  C_21
REMARK                            x       y       z     vdW  Elec       q    Type
REMARK                         _______ _______ _______ _____ _____    ______ ____
ROOT
ATOM      1  C   UNL     1      46.034   4.188  13.147  0.00  0.00    +0.000 C 
ATOM      2  C   UNL     1      45.630   5.144  12.067  0.00  0.00    +0.000 C 
ENDROOT
BRANCH   2   3
ATOM      3  C   UNL     1      46.098   6.551  12.160  0.00  0.00    +0.000 A 
ATOM      4  C   UNL     1      47.454   6.877  12.053  0.00  0.00    +0.000 A 
ATOM      5  C   UNL     1      47.875   8.213  12.103  0.00  0.00    +0.000 A 
ATOM      6  C   UNL     1      46.945   9.244  12.241  0.00  0.00    +0.000 A 
ATOM      7  C   UNL     1      45.591   8.939  12.325  0.00  0.00    +0.000 A 
ATOM      8  C   UNL     1      45.183   7.604  12.324  0.00  0.00    +0.000 A 
BRANCH   7   9
ATOM      9  O   UNL     1      44.583   9.856  12.437  0.00  0.00    +0.000 OA
BRANCH   9  10
ATOM     10  C   UNL     1      44.243  10.544  11.226  0.00  0.00    +0.000 C 
BRANCH  10  11
ATOM     11  C   UNL     1      42.876  10.111  10.700  0.00  0.00    +0.000 C 
ATOM     12  F   UNL     1      42.681   8.776  10.754  0.00  0.00    +0.000 F 
ATOM     13  F   UNL     1      41.881  10.696  11.410  0.00  0.00    +0.000 F 
ATOM     14  F   UNL     1      42.717  10.491   9.409  0.00  0.00    +0.000 F 
ENDBRANCH  10  11
ENDBRANCH   9  10
ENDBRANCH   7   9
ENDBRANCH   2   3
BRANCH   2  15
ATOM     15  C   UNL     1      44.383   4.886  11.264  0.00  0.00    +0.000 C 
BRANCH  15  16
ATOM     16  N   UNL     1      44.500   5.324   9.887  0.00  0.00    +0.000 N 
ATOM     17  C   UNL     1      45.160   4.359   9.119  0.00  0.00    +0.000 A 
ATOM     18  N   UNL     1      45.065   3.060   9.456  0.00  0.00    +0.000 NA
ATOM     19  C   UNL     1      45.782   2.166   8.744  0.00  0.00    +0.000 A 
ATOM     20  C   UNL     1      46.575   2.513   7.680  0.00  0.00    +0.000 A 
ATOM     21  C   UNL     1      46.606   3.861   7.400  0.00  0.00    +0.000 A 
ATOM     22  N   UNL     1      45.918   4.796   8.103  0.00  0.00    +0.000 NA
ATOM     23  H   UNL     1      45.001   6.189   9.734  0.00  0.00    +0.000 HD
BRANCH  20  24
ATOM     24  C   UNL     1      47.338   1.475   6.974  0.00  0.00    +0.000 C 
ATOM     25  N   UNL     1      48.375   1.870   6.177  0.00  0.00    +0.000 N 
ATOM     26  O   UNL     1      47.033   0.294   7.070  0.00  0.00    +0.000 OA
ATOM     27  H   UNL     1      48.512   2.821   5.865  0.00  0.00    +0.000 HD
ATOM     28  H   UNL     1      48.802   1.137   5.620  0.00  0.00    +0.000 HD
ENDBRANCH  20  24
ENDBRANCH  15  16
ENDBRANCH   2  15
TORSDOF 7
ENDMDL
MODEL 3
REMARK VINA RESULT:    -7.742      5.115      8.440
REMARK INTER + INTRA:         -11.581
REMARK INTER:                 -10.881
REMARK INTRA:                  -0.700
REMARK UNBOUND:                -0.670
REMARK  Name = 
REMARK  8 active torsions:
REMARK  status: ('A' for Active; 'I' for Inactive)
REMARK    1  A    between atoms: C_1  and  C_2
REMARK    2  A    between atoms: C_2  and  C_3
REMARK    3  A    between atoms: C_2  and  C_14
REMARK    4  A    between atoms: C_3  and  N_4
REMARK    5  A    between atoms: C_8  and  C_9
REMARK    6  A    between atoms: C_18  and  O_19
REMARK    7  A    between atoms: O_19  and  C_20
REMARK    8  A    between atoms: C_20  and  C_21
REMARK                            x       y       z     vdW  Elec       q    Type
REMARK                         _______ _______ _______ _____ _____    ______ ____
ROOT
ATOM      1  C   UNL     1      44.193   6.734  11.733  0.00  0.00    +0.000 C 
ATOM      2  C   UNL     1      45.076   5.528  11.839  0.00  0.00    +0.000 C 
ENDROOT
BRANCH   2   3
ATOM      3  C   UNL     1      44.977   4.487  10.784  0.00  0.00    +0.000 A 
ATOM      4  C   UNL     1      44.301   3.283  11.009  0.00  0.00    +0.000 A 
ATOM      5  C   UNL     1      44.183   2.328   9.989  0.00  0.00    +0.000 A 
ATOM      6  C   UNL     1      44.721   2.571   8.725  0.00  0.00    +0.000 A 
ATOM      7  C   UNL     1      45.376   3.773   8.478  0.00  0.00    +0.000 A 
ATOM      8  C   UNL     1      45.533   4.698   9.511  0.00  0.00    +0.000 A 
BRANCH   7   9
ATOM      9  O   UNL     1      45.922   4.139   7.280  0.00  0.00    +0.000 OA
BRANCH   9  10
ATOM     10  C   UNL     1      47.228   3.611   7.014  0.00  0.00    +0.000 C 
BRANCH  10  11
ATOM     11  C   UNL     1      47.174   2.457   6.014  0.00  0.00    +0.000 C 
ATOM     12  F   UNL     1      47.079   1.246   6.602  0.00  0.00    +0.000 F 
ATOM     13  F   UNL     1      46.111   2.591   5.185  0.00  0.00    +0.000 F 
ATOM     14  F   UNL     1      48.284   2.445   5.237  0.00  0.00    +0.000 F 
ENDBRANCH  10  11
ENDBRANCH   9  10
ENDBRANCH   7   9
ENDBRANCH   2   3
BRANCH   2  15
ATOM     15  C   UNL     1      45.601   5.097  13.183  0.00  0.00    +0.000 C 
BRANCH  15  16
ATOM     16  N   UNL     1      47.002   5.415  13.367  0.00  0.00    +0.000 N 
ATOM     17  C   UNL     1      47.407   5.115  14.674  0.00  0.00    +0.000 A 
ATOM     18  N   UNL     1      46.798   4.124  15.348  0.00  0.00    +0.000 NA
ATOM     19  C   UNL     1      47.155   3.918  16.633  0.00  0.00    +0.000 A 
ATOM     20  C   UNL     1      48.125   4.649  17.270  0.00  0.00    +0.000 A 
ATOM     21  C   UNL     1      48.701   5.636  16.502  0.00  0.00    +0.000 A 
ATOM     22  N   UNL     1      48.358   5.891  15.214  0.00  0.00    +0.000 NA
ATOM     23  H   UNL     1      47.268   6.378  13.210  0.00  0.00    +0.000 HD
BRANCH  20  24
ATOM     24  C   UNL     1      48.436   4.370  18.679  0.00  0.00    +0.000 C 
ATOM     25  N   UNL     1      48.270   3.092  19.133  0.00  0.00    +0.000 N 
ATOM     26  O   UNL     1      48.800   5.263  19.432  0.00  0.00    +0.000 OA
ATOM     27  H   UNL     1      47.744   2.385  18.639  0.00  0.00    +0.000 HD
ATOM     28  H   UNL     1      48.385   2.966  20.133  0.00  0.00    +0.000 HD
ENDBRANCH  20  24
ENDBRANCH  15  16
ENDBRANCH   2  15
TORSDOF 7
ENDMDL
MODEL 4
REMARK VINA RESULT:    -7.633      3.309      3.997
REMARK INTER + INTRA:         -11.427
REMARK INTER:                 -10.863
REMARK INTRA:                  -0.564
REMARK UNBOUND:                -0.670
REMARK  Name = 
REMARK  8 active torsions:
REMARK  status: ('A' for Active; 'I' for Inactive)
REMARK    1  A    between atoms: C_1  and  C_2
REMARK    2  A    between atoms: C_2  and  C_3
REMARK    3  A    between atoms: C_2  and  C_14
REMARK    4  A    between atoms: C_3  and  N_4
REMARK    5  A    between atoms: C_8  and  C_9
REMARK    6  A    between atoms: C_18  and  O_19
REMARK    7  A    between atoms: O_19  and  C_20
REMARK    8  A    between atoms: C_20  and  C_21
REMARK                            x       y       z     vdW  Elec       q    Type
REMARK                         _______ _______ _______ _____ _____    ______ ____
ROOT
ATOM      1  C   UNL     1      45.833   3.359  12.873  0.00  0.00    +0.000 C 
ATOM      2  C   UNL     1      45.366   4.525  12.056  0.00  0.00    +0.000 C 
ENDROOT
BRANCH   2   3
ATOM      3  C   UNL     1      45.848   5.882  12.424  0.00  0.00    +0.000 A 
ATOM      4  C   UNL     1      44.974   6.971  12.497  0.00  0.00    +0.000 A 
ATOM      5  C   UNL     1      45.438   8.236  12.885  0.00  0.00    +0.000 A 
ATOM      6  C   UNL     1      46.778   8.426  13.224  0.00  0.00    +0.000 A 
ATOM      7  C   UNL     1      47.655   7.348  13.179  0.00  0.00    +0.000 A 
ATOM      8  C   UNL     1      47.198   6.103  12.745  0.00  0.00    +0.000 A 
BRANCH   7   9
ATOM      9  O   UNL     1      48.981   7.398  13.509  0.00  0.00    +0.000 OA
BRANCH   9  10
ATOM     10  C   UNL     1      49.666   8.594  13.115  0.00  0.00    +0.000 C 
BRANCH  10  11
ATOM     11  C   UNL     1      50.270   8.459  11.718  0.00  0.00    +0.000 C 
ATOM     12  F   UNL     1      50.350   9.633  11.056  0.00  0.00    +0.000 F 
ATOM     13  F   UNL     1      51.520   7.943  11.783  0.00  0.00    +0.000 F 
ATOM     14  F   UNL     1      49.532   7.615  10.957  0.00  0.00    +0.000 F 
ENDBRANCH  10  11
ENDBRANCH   9  10
ENDBRANCH   7   9
ENDBRANCH   2   3
BRANCH   2  15
ATOM     15  C   UNL     1      44.068   4.440  11.297  0.00  0.00    +0.000 C 
BRANCH  15  16
ATOM     16  N   UNL     1      44.171   4.957   9.948  0.00  0.00    +0.000 N 
ATOM     17  C   UNL     1      44.920   4.090   9.144  0.00  0.00    +0.000 A 
ATOM     18  N   UNL     1      44.926   2.773   9.413  0.00  0.00    +0.000 NA
ATOM     19  C   UNL     1      45.724   1.978   8.670  0.00  0.00    +0.000 A 
ATOM     20  C   UNL     1      46.503   2.443   7.642  0.00  0.00    +0.000 A 
ATOM     21  C   UNL     1      46.429   3.801   7.432  0.00  0.00    +0.000 A 
ATOM     22  N   UNL     1      45.655   4.640   8.167  0.00  0.00    +0.000 NA
ATOM     23  H   UNL     1      44.603   5.867   9.849  0.00  0.00    +0.000 HD
BRANCH  20  24
ATOM     24  C   UNL     1      47.359   1.508   6.898  0.00  0.00    +0.000 C 
ATOM     25  N   UNL     1      48.545   1.975   6.406  0.00  0.00    +0.000 N 
ATOM     26  O   UNL     1      47.005   0.354   6.698  0.00  0.00    +0.000 OA
ATOM     27  H   UNL     1      48.769   2.957   6.322  0.00  0.00    +0.000 HD
ATOM     28  H   UNL     1      49.051   1.334   5.805  0.00  0.00    +0.000 HD
ENDBRANCH  20  24
ENDBRANCH  15  16
ENDBRANCH   2  15
TORSDOF 7
ENDMDL
MODEL 5
REMARK VINA RESULT:    -7.525      4.760      8.029
REMARK INTER + INTRA:         -11.275
REMARK INTER:                 -10.566
REMARK INTRA:                  -0.709
REMARK UNBOUND:                -0.670
REMARK  Name = 
REMARK  8 active torsions:
REMARK  status: ('A' for Active; 'I' for Inactive)
REMARK    1  A    between atoms: C_1  and  C_2
REMARK    2  A    between atoms: C_2  and  C_3
REMARK    3  A    between atoms: C_2  and  C_14
REMARK    4  A    between atoms: C_3  and  N_4
REMARK    5  A    between atoms: C_8  and  C_9
REMARK    6  A    between atoms: C_18  and  O_19
REMARK    7  A    between atoms: O_19  and  C_20
REMARK    8  A    between atoms: C_20  and  C_21
REMARK                            x       y       z     vdW  Elec       q    Type
REMARK                         _______ _______ _______ _____ _____    ______ ____
ROOT
ATOM      1  C   UNL     1      45.323   7.974  12.213  0.00  0.00    +0.000 C 
ATOM      2  C   UNL     1      46.037   6.685  11.942  0.00  0.00    +0.000 C 
ENDROOT
BRANCH   2   3
ATOM      3  C   UNL     1      45.447   5.747  10.952  0.00  0.00    +0.000 A 
ATOM      4  C   UNL     1      44.182   5.182  11.147  0.00  0.00    +0.000 A 
ATOM      5  C   UNL     1      43.624   4.330  10.184  0.00  0.00    +0.000 A 
ATOM      6  C   UNL     1      44.312   4.045   9.004  0.00  0.00    +0.000 A 
ATOM      7  C   UNL     1      45.561   4.617   8.785  0.00  0.00    +0.000 A 
ATOM      8  C   UNL     1      46.133   5.425   9.769  0.00  0.00    +0.000 A 
BRANCH   7   9
ATOM      9  O   UNL     1      46.323   4.438   7.664  0.00  0.00    +0.000 OA
BRANCH   9  10
ATOM     10  C   UNL     1      45.992   3.287   6.876  0.00  0.00    +0.000 C 
BRANCH  10  11
ATOM     11  C   UNL     1      46.945   2.125   7.153  0.00  0.00    +0.000 C 
ATOM     12  F   UNL     1      46.882   1.150   6.222  0.00  0.00    +0.000 F 
ATOM     13  F   UNL     1      48.227   2.557   7.203  0.00  0.00    +0.000 F 
ATOM     14  F   UNL     1      46.671   1.558   8.353  0.00  0.00    +0.000 F 
ENDBRANCH  10  11
ENDBRANCH   9  10
ENDBRANCH   7   9
ENDBRANCH   2   3
BRANCH   2  15
ATOM     15  C   UNL     1      46.949   6.098  12.986  0.00  0.00    +0.000 C 
BRANCH  15  16
ATOM     16  N   UNL     1      46.279   5.144  13.847  0.00  0.00    +0.000 N 
ATOM     17  C   UNL     1      47.081   4.826  14.948  0.00  0.00    +0.000 A 
ATOM     18  N   UNL     1      47.952   5.735  15.421  0.00  0.00    +0.000 NA
ATOM     19  C   UNL     1      48.768   5.366  16.430  0.00  0.00    +0.000 A 
ATOM     20  C   UNL     1      48.731   4.125  17.012  0.00  0.00    +0.000 A 
ATOM     21  C   UNL     1      47.805   3.262  16.471  0.00  0.00    +0.000 A 
ATOM     22  N   UNL     1      46.979   3.584  15.443  0.00  0.00    +0.000 NA
ATOM     23  H   UNL     1      46.027   4.260  13.424  0.00  0.00    +0.000 HD
BRANCH  20  24
ATOM     24  C   UNL     1      49.673   3.801  18.093  0.00  0.00    +0.000 C 
ATOM     25  N   UNL     1      49.160   3.506  19.325  0.00  0.00    +0.000 N 
ATOM     26  O   UNL     1      50.882   3.828  17.904  0.00  0.00    +0.000 OA
ATOM     27  H   UNL     1      48.210   3.711  19.601  0.00  0.00    +0.000 HD
ATOM     28  H   UNL     1      49.843   3.401  20.068  0.00  0.00    +0.000 HD
ENDBRANCH  20  24
ENDBRANCH  15  16
ENDBRANCH   2  15
TORSDOF 7
ENDMDL
MODEL 6
REMARK VINA RESULT:    -7.427      5.357      8.229
REMARK INTER + INTRA:         -11.136
REMARK INTER:                 -10.359
REMARK INTRA:                  -0.777
REMARK UNBOUND:                -0.670
REMARK  Name = 
REMARK  8 active torsions:
REMARK  status: ('A' for Active; 'I' for Inactive)
REMARK    1  A    between atoms: C_1  and  C_2
REMARK    2  A    between atoms: C_2  and  C_3
REMARK    3  A    between atoms: C_2  and  C_14
REMARK    4  A    between atoms: C_3  and  N_4
REMARK    5  A    between atoms: C_8  and  C_9
REMARK    6  A    between atoms: C_18  and  O_19
REMARK    7  A    between atoms: O_19  and  C_20
REMARK    8  A    between atoms: C_20  and  C_21
REMARK                            x       y       z     vdW  Elec       q    Type
REMARK                         _______ _______ _______ _____ _____    ______ ____
ROOT
ATOM      1  C   UNL     1      47.828   5.747  12.903  0.00  0.00    +0.000 C 
ATOM      2  C   UNL     1      46.838   4.853  13.586  0.00  0.00    +0.000 C 
ENDROOT
BRANCH   2   3
ATOM      3  C   UNL     1      45.516   4.643  12.941  0.00  0.00    +0.000 A 
ATOM      4  C   UNL     1      44.402   5.411  13.295  0.00  0.00    +0.000 A 
ATOM      5  C   UNL     1      43.172   5.227  12.648  0.00  0.00    +0.000 A 
ATOM      6  C   UNL     1      43.042   4.287  11.625  0.00  0.00    +0.000 A 
ATOM      7  C   UNL     1      44.146   3.531  11.246  0.00  0.00    +0.000 A 
ATOM      8  C   UNL     1      45.355   3.685  11.926  0.00  0.00    +0.000 A 
BRANCH   7   9
ATOM      9  O   UNL     1      44.155   2.599  10.246  0.00  0.00    +0.000 OA
BRANCH   9  10
ATOM     10  C   UNL     1      45.282   2.659   9.362  0.00  0.00    +0.000 C 
BRANCH  10  11
ATOM     11  C   UNL     1      45.173   3.835   8.393  0.00  0.00    +0.000 C 
ATOM     12  F   UNL     1      45.963   4.877   8.727  0.00  0.00    +0.000 F 
ATOM     13  F   UNL     1      45.510   3.455   7.137  0.00  0.00    +0.000 F 
ATOM     14  F   UNL     1      43.899   4.295   8.339  0.00  0.00    +0.000 F 
ENDBRANCH  10  11
ENDBRANCH   9  10
ENDBRANCH   7   9
ENDBRANCH   2   3
BRANCH   2  15
ATOM     15  C   UNL     1      46.917   4.643  15.074  0.00  0.00    +0.000 C 
BRANCH  15  16
ATOM     16  N   UNL     1      47.165   3.262  15.435  0.00  0.00    +0.000 N 
ATOM     17  C   UNL     1      48.359   3.148  16.156  0.00  0.00    +0.000 A 
ATOM     18  N   UNL     1      48.779   4.176  16.913  0.00  0.00    +0.000 NA
ATOM     19  C   UNL     1      49.976   4.064  17.527  0.00  0.00    +0.000 A 
ATOM     20  C   UNL     1      50.764   2.946  17.440  0.00  0.00    +0.000 A 
ATOM     21  C   UNL     1      50.253   1.940  16.652  0.00  0.00    +0.000 A 
ATOM     22  N   UNL     1      49.065   2.019  16.000  0.00  0.00    +0.000 NA
ATOM     23  H   UNL     1      47.242   2.606  14.668  0.00  0.00    +0.000 HD
BRANCH  20  24
ATOM     24  C   UNL     1      52.064   2.918  18.126  0.00  0.00    +0.000 C 
ATOM     25  N   UNL     1      52.581   1.702  18.475  0.00  0.00    +0.000 N 
ATOM     26  O   UNL     1      52.651   3.955  18.405  0.00  0.00    +0.000 OA
ATOM     27  H   UNL     1      52.039   0.849  18.499  0.00  0.00    +0.000 HD
ATOM     28  H   UNL     1      53.419   1.731  19.045  0.00  0.00    +0.000 HD
ENDBRANCH  20  24
ENDBRANCH  15  16
ENDBRANCH   2  15
TORSDOF 7
ENDMDL
MODEL 7
REMARK VINA RESULT:    -7.350      2.011      2.589
REMARK INTER + INTRA:         -11.028
REMARK INTER:                 -10.654
REMARK INTRA:                  -0.374
REMARK UNBOUND:                -0.670
REMARK  Name = 
REMARK  8 active torsions:
REMARK  status: ('A' for Active; 'I' for Inactive)
REMARK    1  A    between atoms: C_1  and  C_2
REMARK    2  A    between atoms: C_2  and  C_3
REMARK    3  A    between atoms: C_2  and  C_14
REMARK    4  A    between atoms: C_3  and  N_4
REMARK    5  A    between atoms: C_8  and  C_9
REMARK    6  A    between atoms: C_18  and  O_19
REMARK    7  A    between atoms: O_19  and  C_20
REMARK    8  A    between atoms: C_20  and  C_21
REMARK                            x       y       z     vdW  Elec       q    Type
REMARK                         _______ _______ _______ _____ _____    ______ ____
ROOT
ATOM      1  C   UNL     1      45.967   3.353  12.903  0.00  0.00    +0.000 C 
ATOM      2  C   UNL     1      45.453   4.516  12.112  0.00  0.00    +0.000 C 
ENDROOT
BRANCH   2   3
ATOM      3  C   UNL     1      45.895   5.881  12.498  0.00  0.00    +0.000 A 
ATOM      4  C   UNL     1      45.059   6.991  12.338  0.00  0.00    +0.000 A 
ATOM      5  C   UNL     1      45.478   8.266  12.743  0.00  0.00    +0.000 A 
ATOM      6  C   UNL     1      46.729   8.448  13.333  0.00  0.00    +0.000 A 
ATOM      7  C   UNL     1      47.563   7.351  13.520  0.00  0.00    +0.000 A 
ATOM      8  C   UNL     1      47.161   6.093  13.069  0.00  0.00    +0.000 A 
BRANCH   7   9
ATOM      9  O   UNL     1      48.798   7.392  14.105  0.00  0.00    +0.000 OA
BRANCH   9  10
ATOM     10  C   UNL     1      48.802   7.686  15.508  0.00  0.00    +0.000 C 
BRANCH  10  11
ATOM     11  C   UNL     1      49.896   6.910  16.240  0.00  0.00    +0.000 C 
ATOM     12  F   UNL     1      50.316   7.518  17.370  0.00  0.00    +0.000 F 
ATOM     13  F   UNL     1      49.462   5.674  16.581  0.00  0.00    +0.000 F 
ATOM     14  F   UNL     1      50.980   6.744  15.443  0.00  0.00    +0.000 F 
ENDBRANCH  10  11
ENDBRANCH   9  10
ENDBRANCH   7   9
ENDBRANCH   2   3
BRANCH   2  15
ATOM     15  C   UNL     1      44.149   4.401  11.368  0.00  0.00    +0.000 C 
BRANCH  15  16
ATOM     16  N   UNL     1      44.212   4.962  10.033  0.00  0.00    +0.000 N 
ATOM     17  C   UNL     1      44.975   4.144   9.192  0.00  0.00    +0.000 A 
ATOM     18  N   UNL     1      45.028   2.820   9.421  0.00  0.00    +0.000 NA
ATOM     19  C   UNL     1      45.839   2.074   8.642  0.00  0.00    +0.000 A 
ATOM     20  C   UNL     1      46.585   2.595   7.616  0.00  0.00    +0.000 A 
ATOM     21  C   UNL     1      46.463   3.955   7.448  0.00  0.00    +0.000 A 
ATOM     22  N   UNL     1      45.676   4.746   8.221  0.00  0.00    +0.000 NA
ATOM     23  H   UNL     1      44.612   5.888   9.955  0.00  0.00    +0.000 HD
BRANCH  20  24
ATOM     24  C   UNL     1      47.458   1.711   6.831  0.00  0.00    +0.000 C 
ATOM     25  N   UNL     1      48.619   2.232   6.332  0.00  0.00    +0.000 N 
ATOM     26  O   UNL     1      47.140   0.551   6.604  0.00  0.00    +0.000 OA
ATOM     27  H   UNL     1      48.807   3.223   6.271  0.00  0.00    +0.000 HD
ATOM     28  H   UNL     1      49.134   1.626   5.703  0.00  0.00    +0.000 HD
ENDBRANCH  20  24
ENDBRANCH  15  16
ENDBRANCH   2  15
TORSDOF 7
ENDMDL
MODEL 8
REMARK VINA RESULT:    -6.773      4.965      7.694
REMARK INTER + INTRA:         -10.214
REMARK INTER:                  -9.282
REMARK INTRA:                  -0.933
REMARK UNBOUND:                -0.670
REMARK  Name = 
REMARK  8 active torsions:
REMARK  status: ('A' for Active; 'I' for Inactive)
REMARK    1  A    between atoms: C_1  and  C_2
REMARK    2  A    between atoms: C_2  and  C_3
REMARK    3  A    between atoms: C_2  and  C_14
REMARK    4  A    between atoms: C_3  and  N_4
REMARK    5  A    between atoms: C_8  and  C_9
REMARK    6  A    between atoms: C_18  and  O_19
REMARK    7  A    between atoms: O_19  and  C_20
REMARK    8  A    between atoms: C_20  and  C_21
REMARK                            x       y       z     vdW  Elec       q    Type
REMARK                         _______ _______ _______ _____ _____    ______ ____
ROOT
ATOM      1  C   UNL     1      49.875   7.371  13.959  0.00  0.00    +0.000 C 
ATOM      2  C   UNL     1      48.586   6.771  14.433  0.00  0.00    +0.000 C 
ENDROOT
BRANCH   2   3
ATOM      3  C   UNL     1      47.382   6.921  13.576  0.00  0.00    +0.000 A 
ATOM      4  C   UNL     1      46.735   8.153  13.437  0.00  0.00    +0.000 A 
ATOM      5  C   UNL     1      45.624   8.286  12.593  0.00  0.00    +0.000 A 
ATOM      6  C   UNL     1      45.155   7.195  11.860  0.00  0.00    +0.000 A 
ATOM      7  C   UNL     1      45.801   5.968  11.970  0.00  0.00    +0.000 A 
ATOM      8  C   UNL     1      46.877   5.830  12.848  0.00  0.00    +0.000 A 
BRANCH   7   9
ATOM      9  O   UNL     1      45.456   4.834  11.289  0.00  0.00    +0.000 OA
BRANCH   9  10
ATOM     10  C   UNL     1      45.168   3.692  12.106  0.00  0.00    +0.000 C 
BRANCH  10  11
ATOM     11  C   UNL     1      43.664   3.487  12.272  0.00  0.00    +0.000 C 
ATOM     12  F   UNL     1      43.135   4.205  13.285  0.00  0.00    +0.000 F 
ATOM     13  F   UNL     1      43.004   3.833  11.141  0.00  0.00    +0.000 F 
ATOM     14  F   UNL     1      43.382   2.183  12.511  0.00  0.00    +0.000 F 
ENDBRANCH  10  11
ENDBRANCH   9  10
ENDBRANCH   7   9
ENDBRANCH   2   3
BRANCH   2  15
ATOM     15  C   UNL     1      48.359   6.545  15.904  0.00  0.00    +0.000 C 
BRANCH  15  16
ATOM     16  N   UNL     1      47.753   5.259  16.188  0.00  0.00    +0.000 N 
ATOM     17  C   UNL     1      48.723   4.339  16.603  0.00  0.00    +0.000 A 
ATOM     18  N   UNL     1      49.822   4.775  17.243  0.00  0.00    +0.000 NA
ATOM     19  C   UNL     1      50.775   3.872  17.554  0.00  0.00    +0.000 A 
ATOM     20  C   UNL     1      50.663   2.533  17.275  0.00  0.00    +0.000 A 
ATOM     21  C   UNL     1      49.503   2.176  16.626  0.00  0.00    +0.000 A 
ATOM     22  N   UNL     1      48.528   3.054  16.277  0.00  0.00    +0.000 NA
ATOM     23  H   UNL     1      47.263   4.817  15.422  0.00  0.00    +0.000 HD
BRANCH  20  24
ATOM     24  C   UNL     1      51.760   1.623  17.631  0.00  0.00    +0.000 C 
ATOM     25  N   UNL     1      51.437   0.385  18.112  0.00  0.00    +0.000 N 
ATOM     26  O   UNL     1      52.928   1.974  17.530  0.00  0.00    +0.000 OA
ATOM     27  H   UNL     1      50.518   0.136  18.448  0.00  0.00    +0.000 HD
ATOM     28  H   UNL     1      52.217  -0.168  18.451  0.00  0.00    +0.000 HD
ENDBRANCH  20  24
ENDBRANCH  15  16
ENDBRANCH   2  15
TORSDOF 7
ENDMDL
MODEL 9
REMARK VINA RESULT:    -6.707      4.751      7.559
REMARK INTER + INTRA:         -10.122
REMARK INTER:                  -9.308
REMARK INTRA:                  -0.814
REMARK UNBOUND:                -0.670
REMARK  Name = 
REMARK  8 active torsions:
REMARK  status: ('A' for Active; 'I' for Inactive)
REMARK    1  A    between atoms: C_1  and  C_2
REMARK    2  A    between atoms: C_2  and  C_3
REMARK    3  A    between atoms: C_2  and  C_14
REMARK    4  A    between atoms: C_3  and  N_4
REMARK    5  A    between atoms: C_8  and  C_9
REMARK    6  A    between atoms: C_18  and  O_19
REMARK    7  A    between atoms: O_19  and  C_20
REMARK    8  A    between atoms: C_20  and  C_21
REMARK                            x       y       z     vdW  Elec       q    Type
REMARK                         _______ _______ _______ _____ _____    ______ ____
ROOT
ATOM      1  C   UNL     1      49.563   8.240  11.604  0.00  0.00    +0.000 C 
ATOM      2  C   UNL     1      48.575   7.842  12.657  0.00  0.00    +0.000 C 
ENDROOT
BRANCH   2   3
ATOM      3  C   UNL     1      47.168   7.601  12.248  0.00  0.00    +0.000 A 
ATOM      4  C   UNL     1      46.220   8.630  12.252  0.00  0.00    +0.000 A 
ATOM      5  C   UNL     1      44.906   8.394  11.824  0.00  0.00    +0.000 A 
ATOM      6  C   UNL     1      44.524   7.132  11.369  0.00  0.00    +0.000 A 
ATOM      7  C   UNL     1      45.460   6.104  11.337  0.00  0.00    +0.000 A 
ATOM      8  C   UNL     1      46.753   6.332  11.810  0.00  0.00    +0.000 A 
BRANCH   7   9
ATOM      9  O   UNL     1      45.218   4.834  10.891  0.00  0.00    +0.000 OA
BRANCH   9  10
ATOM     10  C   UNL     1      44.971   3.861  11.915  0.00  0.00    +0.000 C 
BRANCH  10  11
ATOM     11  C   UNL     1      43.475   3.671  12.158  0.00  0.00    +0.000 C 
ATOM     12  F   UNL     1      43.044   4.240  13.304  0.00  0.00    +0.000 F 
ATOM     13  F   UNL     1      42.752   4.203  11.143  0.00  0.00    +0.000 F 
ATOM     14  F   UNL     1      43.163   2.354  12.218  0.00  0.00    +0.000 F 
ENDBRANCH  10  11
ENDBRANCH   9  10
ENDBRANCH   7   9
ENDBRANCH   2   3
BRANCH   2  15
ATOM     15  C   UNL     1      48.818   8.216  14.095  0.00  0.00    +0.000 C 
BRANCH  15  16
ATOM     16  N   UNL     1      49.886   7.448  14.703  0.00  0.00    +0.000 N 
ATOM     17  C   UNL     1      49.363   6.392  15.458  0.00  0.00    +0.000 A 
ATOM     18  N   UNL     1      48.189   5.840  15.106  0.00  0.00    +0.000 NA
ATOM     19  C   UNL     1      47.674   4.881  15.905  0.00  0.00    +0.000 A 
ATOM     20  C   UNL     1      48.303   4.425  17.035  0.00  0.00    +0.000 A 
ATOM     21  C   UNL     1      49.503   5.040  17.314  0.00  0.00    +0.000 A 
ATOM     22  N   UNL     1      50.047   6.021  16.550  0.00  0.00    +0.000 NA
ATOM     23  H   UNL     1      50.503   7.953  15.325  0.00  0.00    +0.000 HD
BRANCH  20  24
ATOM     24  C   UNL     1      47.660   3.392  17.857  0.00  0.00    +0.000 C 
ATOM     25  N   UNL     1      48.310   2.968  18.982  0.00  0.00    +0.000 N 
ATOM     26  O   UNL     1      46.588   2.901  17.528  0.00  0.00    +0.000 OA
ATOM     27  H   UNL     1      49.288   3.146  19.165  0.00  0.00    +0.000 HD
ATOM     28  H   UNL     1      47.890   2.177  19.458  0.00  0.00    +0.000 HD
ENDBRANCH  20  24
ENDBRANCH  15  16
ENDBRANCH   2  15
TORSDOF 7
ENDMDL
