MODEL 1
REMARK VINA RESULT:    -7.581      0.000      0.000
REMARK INTER + INTRA:         -10.141
REMARK INTER:                  -9.576
REMARK INTRA:                  -0.565
REMARK UNBOUND:                -0.565
REMARK  Name = 
REMARK  5 active torsions:
REMARK  status: ('A' for Active; 'I' for Inactive)
REMARK    1  A    between atoms: N_1  and  C_2
REMARK    2  A    between atoms: C_2  and  C_3
REMARK    3  A    between atoms: C_3  and  C_4
REMARK    4  A    between atoms: C_7  and  C_8
REMARK    5  A    between atoms: C_8  and  N_9
REMARK                            x       y       z     vdW  Elec       q    Type
REMARK                         _______ _______ _______ _____ _____    ______ ____
ROOT
ATOM      1  C   UNL     1      45.976   2.653   8.273  0.00  0.00    +0.000 A 
ATOM      2  C   UNL     1      46.002   4.053   8.241  0.00  0.00    +0.000 A 
ATOM      3  C   UNL     1      45.179   4.805   9.085  0.00  0.00    +0.000 A 
ATOM      4  C   UNL     1      44.292   4.176   9.968  0.00  0.00    +0.000 A 
ATOM      5  C   UNL     1      44.254   2.775   9.992  0.00  0.00    +0.000 A 
ATOM      6  C   UNL     1      45.083   2.027   9.155  0.00  0.00    +0.000 A 
ENDROOT
BRANCH   1   7
ATOM      7  C   UNL     1      46.798   1.793   7.339  0.00  0.00    +0.000 C 
BRANCH   7   8
ATOM      8  C   UNL     1      47.999   2.487   6.682  0.00  0.00    +0.000 C 
BRANCH   8   9
ATOM      9  N   UNL     1      48.448   1.758   5.497  0.00  0.00    +0.000 NA
ATOM     10  H   UNL     1      48.811   2.418   4.811  0.00  0.00    +0.000 HD
ATOM     11  H   UNL     1      47.651   1.300   5.053  0.00  0.00    +0.000 HD
ENDBRANCH   8   9
ENDBRANCH   7   8
ENDBRANCH   1   7
BRANCH   4  12
ATOM     12  C   UNL     1      43.288   4.980  10.765  0.00  0.00    +0.000 C 
BRANCH  12  13
ATOM     13  N   UNL     1      43.996   5.929  11.613  0.00  0.00    +0.000 N 
ATOM     14  N   UNL     1      44.033   7.233  11.263  0.00  0.00    +0.000 NA
ATOM     15  N   UNL     1      45.169   7.734  11.734  0.00  0.00    +0.000 NA
ATOM     16  C   UNL     1      45.794   6.752  12.463  0.00  0.00    +0.000 A 
ATOM     17  C   UNL     1      47.050   6.724  13.081  0.00  0.00    +0.000 A 
ATOM     18  C   UNL     1      47.428   5.567  13.776  0.00  0.00    +0.000 A 
ATOM     19  C   UNL     1      46.561   4.474  13.881  0.00  0.00    +0.000 A 
ATOM     20  C   UNL     1      45.317   4.474  13.244  0.00  0.00    +0.000 A 
ATOM     21  C   UNL     1      44.989   5.621  12.514  0.00  0.00    +0.000 A 
ENDBRANCH  12  13
ENDBRANCH   4  12
TORSDOF 5
ENDMDL
MODEL 2
REMARK VINA RESULT:    -7.464      1.640      2.507
REMARK INTER + INTRA:          -9.992
REMARK INTER:                  -9.498
REMARK INTRA:                  -0.494
REMARK UNBOUND:                -0.565
REMARK  Name = 
REMARK  5 active torsions:
REMARK  status: ('A' for Active; 'I' for Inactive)
REMARK    1  A    between atoms: N_1  and  C_2
REMARK    2  A    between atoms: C_2  and  C_3
REMARK    3  A    between atoms: C_3  and  C_4
REMARK    4  A    between atoms: C_7  and  C_8
REMARK    5  A    between atoms: C_8  and  N_9
REMARK                            x       y       z     vdW  Elec       q    Type
REMARK                         _______ _______ _______ _____ _____    ______ ____
ROOT
ATOM      1  C   UNL     1      45.825   3.073   7.771  0.00  0.00    +0.000 A 
ATOM      2  C   UNL     1      45.256   2.258   8.758  0.00  0.00    +0.000 A 
ATOM      3  C   UNL     1      44.819   2.800   9.971  0.00  0.00    +0.000 A 
ATOM      4  C   UNL     1      44.962   4.167  10.237  0.00  0.00    +0.000 A 
ATOM      5  C   UNL     1      45.544   4.982   9.258  0.00  0.00    +0.000 A 
ATOM      6  C   UNL     1      45.970   4.441   8.044  0.00  0.00    +0.000 A 
ENDROOT
BRANCH   1   7
ATOM      7  C   UNL     1      46.371   2.530   6.468  0.00  0.00    +0.000 C 
BRANCH   7   8
ATOM      8  C   UNL     1      47.522   1.523   6.600  0.00  0.00    +0.000 C 
BRANCH   8   9
ATOM      9  N   UNL     1      48.607   1.836   5.673  0.00  0.00    +0.000 NA
ATOM     10  H   UNL     1      49.292   1.081   5.685  0.00  0.00    +0.000 HD
ATOM     11  H   UNL     1      49.102   2.671   5.993  0.00  0.00    +0.000 HD
ENDBRANCH   8   9
ENDBRANCH   7   8
ENDBRANCH   1   7
BRANCH   4  12
ATOM     12  C   UNL     1      44.641   4.730  11.605  0.00  0.00    +0.000 C 
BRANCH  12  13
ATOM     13  N   UNL     1      45.811   4.603  12.463  0.00  0.00    +0.000 N 
ATOM     14  N   UNL     1      45.820   3.670  13.440  0.00  0.00    +0.000 NA
ATOM     15  N   UNL     1      46.587   4.133  14.419  0.00  0.00    +0.000 NA
ATOM     16  C   UNL     1      47.132   5.323  14.002  0.00  0.00    +0.000 A 
ATOM     17  C   UNL     1      47.923   6.260  14.679  0.00  0.00    +0.000 A 
ATOM     18  C   UNL     1      48.349   7.401  13.985  0.00  0.00    +0.000 A 
ATOM     19  C   UNL     1      48.022   7.589  12.638  0.00  0.00    +0.000 A 
ATOM     20  C   UNL     1      47.208   6.680  11.958  0.00  0.00    +0.000 A 
ATOM     21  C   UNL     1      46.754   5.578  12.690  0.00  0.00    +0.000 A 
ENDBRANCH  12  13
ENDBRANCH   4  12
TORSDOF 5
ENDMDL
MODEL 3
REMARK VINA RESULT:    -6.736      2.193      6.004
REMARK INTER + INTRA:          -9.072
REMARK INTER:                  -8.468
REMARK INTRA:                  -0.604
REMARK UNBOUND:                -0.565
REMARK  Name = 
REMARK  5 active torsions:
REMARK  status: ('A' for Active; 'I' for Inactive)
REMARK    1  A    between atoms: N_1  and  C_2
REMARK    2  A    between atoms: C_2  and  C_3
REMARK    3  A    between atoms: C_3  and  C_4
REMARK    4  A    between atoms: C_7  and  C_8
REMARK    5  A    between atoms: C_8  and  N_9
REMARK                            x       y       z     vdW  Elec       q    Type
REMARK                         _______ _______ _______ _____ _____    ______ ____
ROOT
ATOM      1  C   UNL     1      47.600   6.252  13.001  0.00  0.00    +0.000 A 
ATOM      2  C   UNL     1      46.772   5.204  13.425  0.00  0.00    +0.000 A 
ATOM      3  C   UNL     1      45.560   4.941  12.778  0.00  0.00    +0.000 A 
ATOM      4  C   UNL     1      45.135   5.734  11.704  0.00  0.00    +0.000 A 
ATOM      5  C   UNL     1      45.955   6.791  11.287  0.00  0.00    +0.000 A 
ATOM      6  C   UNL     1      47.168   7.046  11.929  0.00  0.00    +0.000 A 
ENDROOT
BRANCH   1   7
ATOM      7  C   UNL     1      48.888   6.620  13.705  0.00  0.00    +0.000 C 
BRANCH   7   8
ATOM      8  C   UNL     1      48.764   6.910  15.207  0.00  0.00    +0.000 C 
BRANCH   8   9
ATOM      9  N   UNL     1      49.216   5.772  16.005  0.00  0.00    +0.000 NA
ATOM     10  H   UNL     1      49.584   6.107  16.894  0.00  0.00    +0.000 HD
ATOM     11  H   UNL     1      49.995   5.310  15.533  0.00  0.00    +0.000 HD
ENDBRANCH   8   9
ENDBRANCH   7   8
ENDBRANCH   1   7
BRANCH   4  12
ATOM     12  C   UNL     1      43.756   5.556  11.106  0.00  0.00    +0.000 C 
BRANCH  12  13
ATOM     13  N   UNL     1      43.688   4.267  10.430  0.00  0.00    +0.000 N 
ATOM     14  N   UNL     1      43.138   3.211  11.070  0.00  0.00    +0.000 NA
ATOM     15  N   UNL     1      43.734   2.119  10.607  0.00  0.00    +0.000 NA
ATOM     16  C   UNL     1      44.594   2.498   9.605  0.00  0.00    +0.000 A 
ATOM     17  C   UNL     1      45.524   1.760   8.863  0.00  0.00    +0.000 A 
ATOM     18  C   UNL     1      46.272   2.423   7.880  0.00  0.00    +0.000 A 
ATOM     19  C   UNL     1      46.074   3.783   7.619  0.00  0.00    +0.000 A 
ATOM     20  C   UNL     1      45.171   4.540   8.371  0.00  0.00    +0.000 A 
ATOM     21  C   UNL     1      44.478   3.864   9.380  0.00  0.00    +0.000 A 
ENDBRANCH  12  13
ENDBRANCH   4  12
TORSDOF 5
ENDMDL
MODEL 4
REMARK VINA RESULT:    -6.553      2.175      6.298
REMARK INTER + INTRA:          -8.842
REMARK INTER:                  -8.427
REMARK INTRA:                  -0.415
REMARK UNBOUND:                -0.565
REMARK  Name = 
REMARK  5 active torsions:
REMARK  status: ('A' for Active; 'I' for Inactive)
REMARK    1  A    between atoms: N_1  and  C_2
REMARK    2  A    between atoms: C_2  and  C_3
REMARK    3  A    between atoms: C_3  and  C_4
REMARK    4  A    between atoms: C_7  and  C_8
REMARK    5  A    between atoms: C_8  and  N_9
REMARK                            x       y       z     vdW  Elec       q    Type
REMARK                         _______ _______ _______ _____ _____    ______ ____
ROOT
ATOM      1  C   UNL     1      46.549   5.586  12.612  0.00  0.00    +0.000 A 
ATOM      2  C   UNL     1      45.699   4.475  12.677  0.00  0.00    +0.000 A 
ATOM      3  C   UNL     1      44.968   4.065  11.556  0.00  0.00    +0.000 A 
ATOM      4  C   UNL     1      45.053   4.770  10.349  0.00  0.00    +0.000 A 
ATOM      5  C   UNL     1      45.891   5.891  10.286  0.00  0.00    +0.000 A 
ATOM      6  C   UNL     1      46.626   6.293  11.403  0.00  0.00    +0.000 A 
ENDROOT
BRANCH   1   7
ATOM      7  C   UNL     1      47.312   6.110  13.810  0.00  0.00    +0.000 C 
BRANCH   7   8
ATOM      8  C   UNL     1      47.816   7.555  13.695  0.00  0.00    +0.000 C 
BRANCH   8   9
ATOM      9  N   UNL     1      46.778   8.509  14.080  0.00  0.00    +0.000 NA
ATOM     10  H   UNL     1      45.881   8.030  14.133  0.00  0.00    +0.000 HD
ATOM     11  H   UNL     1      46.677   9.219  13.353  0.00  0.00    +0.000 HD
ENDBRANCH   8   9
ENDBRANCH   7   8
ENDBRANCH   1   7
BRANCH   4  12
ATOM     12  C   UNL     1      44.146   4.430   9.186  0.00  0.00    +0.000 C 
BRANCH  12  13
ATOM     13  N   UNL     1      44.554   3.153   8.616  0.00  0.00    +0.000 N 
ATOM     14  N   UNL     1      44.183   2.006   9.225  0.00  0.00    +0.000 NA
ATOM     15  N   UNL     1      45.124   1.104   8.972  0.00  0.00    +0.000 NA
ATOM     16  C   UNL     1      46.038   1.676   8.120  0.00  0.00    +0.000 A 
ATOM     17  C   UNL     1      47.259   1.199   7.627  0.00  0.00    +0.000 A 
ATOM     18  C   UNL     1      47.990   2.012   6.749  0.00  0.00    +0.000 A 
ATOM     19  C   UNL     1      47.500   3.259   6.347  0.00  0.00    +0.000 A 
ATOM     20  C   UNL     1      46.298   3.762   6.853  0.00  0.00    +0.000 A 
ATOM     21  C   UNL     1      45.617   2.952   7.767  0.00  0.00    +0.000 A 
ENDBRANCH  12  13
ENDBRANCH   4  12
TORSDOF 5
ENDMDL
MODEL 5
REMARK VINA RESULT:    -6.280      2.467      3.255
REMARK INTER + INTRA:          -8.497
REMARK INTER:                  -7.979
REMARK INTRA:                  -0.517
REMARK UNBOUND:                -0.565
REMARK  Name = 
REMARK  5 active torsions:
REMARK  status: ('A' for Active; 'I' for Inactive)
REMARK    1  A    between atoms: N_1  and  C_2
REMARK    2  A    between atoms: C_2  and  C_3
REMARK    3  A    between atoms: C_3  and  C_4
REMARK    4  A    between atoms: C_7  and  C_8
REMARK    5  A    between atoms: C_8  and  N_9
REMARK                            x       y       z     vdW  Elec       q    Type
REMARK                         _______ _______ _______ _____ _____    ______ ____
ROOT
ATOM      1  C   UNL     1      45.143   3.901   9.168  0.00  0.00    +0.000 A 
ATOM      2  C   UNL     1      45.555   5.196   9.508  0.00  0.00    +0.000 A 
ATOM      3  C   UNL     1      45.644   5.592  10.847  0.00  0.00    +0.000 A 
ATOM      4  C   UNL     1      45.302   4.710  11.879  0.00  0.00    +0.000 A 
ATOM      5  C   UNL     1      44.875   3.418  11.542  0.00  0.00    +0.000 A 
ATOM      6  C   UNL     1      44.796   3.022  10.205  0.00  0.00    +0.000 A 
ENDROOT
BRANCH   1   7
ATOM      7  C   UNL     1      44.968   3.441   7.737  0.00  0.00    +0.000 C 
BRANCH   7   8
ATOM      8  C   UNL     1      46.250   2.988   7.025  0.00  0.00    +0.000 C 
BRANCH   8   9
ATOM      9  N   UNL     1      46.889   4.102   6.329  0.00  0.00    +0.000 NA
ATOM     10  H   UNL     1      46.207   4.563   5.729  0.00  0.00    +0.000 HD
ATOM     11  H   UNL     1      47.617   3.747   5.707  0.00  0.00    +0.000 HD
ENDBRANCH   8   9
ENDBRANCH   7   8
ENDBRANCH   1   7
BRANCH   4  12
ATOM     12  C   UNL     1      45.241   5.182  13.316  0.00  0.00    +0.000 C 
BRANCH  12  13
ATOM     13  N   UNL     1      46.546   4.997  13.937  0.00  0.00    +0.000 N 
ATOM     14  N   UNL     1      46.725   3.985  14.814  0.00  0.00    +0.000 NA
ATOM     15  N   UNL     1      47.657   4.373  15.676  0.00  0.00    +0.000 NA
ATOM     16  C   UNL     1      48.123   5.600  15.271  0.00  0.00    +0.000 A 
ATOM     17  C   UNL     1      49.026   6.485  15.872  0.00  0.00    +0.000 A 
ATOM     18  C   UNL     1      49.326   7.686  15.213  0.00  0.00    +0.000 A 
ATOM     19  C   UNL     1      48.764   7.983  13.967  0.00  0.00    +0.000 A 
ATOM     20  C   UNL     1      47.838   7.124  13.368  0.00  0.00    +0.000 A 
ATOM     21  C   UNL     1      47.518   5.960  14.074  0.00  0.00    +0.000 A 
ENDBRANCH  12  13
ENDBRANCH   4  12
TORSDOF 5
ENDMDL
MODEL 6
REMARK VINA RESULT:    -5.816      2.464      3.612
REMARK INTER + INTRA:          -7.911
REMARK INTER:                  -7.390
REMARK INTRA:                  -0.521
REMARK UNBOUND:                -0.565
REMARK  Name = 
REMARK  5 active torsions:
REMARK  status: ('A' for Active; 'I' for Inactive)
REMARK    1  A    between atoms: N_1  and  C_2
REMARK    2  A    between atoms: C_2  and  C_3
REMARK    3  A    between atoms: C_3  and  C_4
REMARK    4  A    between atoms: C_7  and  C_8
REMARK    5  A    between atoms: C_8  and  N_9
REMARK                            x       y       z     vdW  Elec       q    Type
REMARK                         _______ _______ _______ _____ _____    ______ ____
ROOT
ATOM      1  C   UNL     1      45.026   3.610   9.616  0.00  0.00    +0.000 A 
ATOM      2  C   UNL     1      44.824   3.173  10.932  0.00  0.00    +0.000 A 
ATOM      3  C   UNL     1      44.996   4.046  12.011  0.00  0.00    +0.000 A 
ATOM      4  C   UNL     1      45.397   5.371  11.804  0.00  0.00    +0.000 A 
ATOM      5  C   UNL     1      45.614   5.807  10.490  0.00  0.00    +0.000 A 
ATOM      6  C   UNL     1      45.433   4.937   9.413  0.00  0.00    +0.000 A 
ENDROOT
BRANCH   1   7
ATOM      7  C   UNL     1      44.915   2.692   8.418  0.00  0.00    +0.000 C 
BRANCH   7   8
ATOM      8  C   UNL     1      45.901   2.972   7.275  0.00  0.00    +0.000 C 
BRANCH   8   9
ATOM      9  N   UNL     1      47.076   2.108   7.368  0.00  0.00    +0.000 NA
ATOM     10  H   UNL     1      47.342   2.002   8.345  0.00  0.00    +0.000 HD
ATOM     11  H   UNL     1      47.869   2.556   6.906  0.00  0.00    +0.000 HD
ENDBRANCH   8   9
ENDBRANCH   7   8
ENDBRANCH   1   7
BRANCH   4  12
ATOM     12  C   UNL     1      45.741   6.271  12.972  0.00  0.00    +0.000 C 
BRANCH  12  13
ATOM     13  N   UNL     1      47.163   6.156  13.265  0.00  0.00    +0.000 N 
ATOM     14  N   UNL     1      47.562   5.447  14.344  0.00  0.00    +0.000 NA
ATOM     15  N   UNL     1      48.699   5.984  14.768  0.00  0.00    +0.000 NA
ATOM     16  C   UNL     1      49.053   6.976  13.886  0.00  0.00    +0.000 A 
ATOM     17  C   UNL     1      50.098   7.908  13.920  0.00  0.00    +0.000 A 
ATOM     18  C   UNL     1      50.221   8.813  12.857  0.00  0.00    +0.000 A 
ATOM     19  C   UNL     1      49.344   8.771  11.768  0.00  0.00    +0.000 A 
ATOM     20  C   UNL     1      48.278   7.867  11.734  0.00  0.00    +0.000 A 
ATOM     21  C   UNL     1      48.148   7.012  12.832  0.00  0.00    +0.000 A 
ENDBRANCH  12  13
ENDBRANCH   4  12
TORSDOF 5
ENDMDL
MODEL 7
REMARK VINA RESULT:    -5.516      5.033      7.739
REMARK INTER + INTRA:          -7.532
REMARK INTER:                  -7.281
REMARK INTRA:                  -0.251
REMARK UNBOUND:                -0.565
REMARK  Name = 
REMARK  5 active torsions:
REMARK  status: ('A' for Active; 'I' for Inactive)
REMARK    1  A    between atoms: N_1  and  C_2
REMARK    2  A    between atoms: C_2  and  C_3
REMARK    3  A    between atoms: C_3  and  C_4
REMARK    4  A    between atoms: C_7  and  C_8
REMARK    5  A    between atoms: C_8  and  N_9
REMARK                            x       y       z     vdW  Elec       q    Type
REMARK                         _______ _______ _______ _____ _____    ______ ____
ROOT
ATOM      1  C   UNL     1      51.003   2.813  17.627  0.00  0.00    +0.000 A 
ATOM      2  C   UNL     1      50.622   4.147  17.823  0.00  0.00    +0.000 A 
ATOM      3  C   UNL     1      49.372   4.605  17.394  0.00  0.00    +0.000 A 
ATOM      4  C   UNL     1      48.480   3.747  16.739  0.00  0.00    +0.000 A 
ATOM      5  C   UNL     1      48.865   2.416  16.529  0.00  0.00    +0.000 A 
ATOM      6  C   UNL     1      50.110   1.958  16.966  0.00  0.00    +0.000 A 
ENDROOT
BRANCH   1   7
ATOM      7  C   UNL     1      52.367   2.282  18.014  0.00  0.00    +0.000 C 
BRANCH   7   8
ATOM      8  C   UNL     1      52.753   0.932  17.392  0.00  0.00    +0.000 C 
BRANCH   8   9
ATOM      9  N   UNL     1      52.632  -0.151  18.365  0.00  0.00    +0.000 NA
ATOM     10  H   UNL     1      53.447  -0.759  18.297  0.00  0.00    +0.000 HD
ATOM     11  H   UNL     1      51.826  -0.733  18.133  0.00  0.00    +0.000 HD
ENDBRANCH   8   9
ENDBRANCH   7   8
ENDBRANCH   1   7
BRANCH   4  12
ATOM     12  C   UNL     1      47.198   4.275  16.132  0.00  0.00    +0.000 C 
BRANCH  12  13
ATOM     13  N   UNL     1      47.481   4.821  14.812  0.00  0.00    +0.000 N 
ATOM     14  N   UNL     1      48.177   5.974  14.706  0.00  0.00    +0.000 NA
ATOM     15  N   UNL     1      47.769   6.579  13.597  0.00  0.00    +0.000 NA
ATOM     16  C   UNL     1      46.880   5.744  12.963  0.00  0.00    +0.000 A 
ATOM     17  C   UNL     1      46.091   5.937  11.822  0.00  0.00    +0.000 A 
ATOM     18  C   UNL     1      45.268   4.887  11.393  0.00  0.00    +0.000 A 
ATOM     19  C   UNL     1      45.255   3.660  12.067  0.00  0.00    +0.000 A 
ATOM     20  C   UNL     1      46.013   3.463  13.224  0.00  0.00    +0.000 A 
ATOM     21  C   UNL     1      46.784   4.546  13.659  0.00  0.00    +0.000 A 
ENDBRANCH  12  13
ENDBRANCH   4  12
TORSDOF 5
ENDMDL
MODEL 8
REMARK VINA RESULT:    -5.450      2.588      6.851
REMARK INTER + INTRA:          -7.449
REMARK INTER:                  -7.284
REMARK INTRA:                  -0.165
REMARK UNBOUND:                -0.565
REMARK  Name = 
REMARK  5 active torsions:
REMARK  status: ('A' for Active; 'I' for Inactive)
REMARK    1  A    between atoms: N_1  and  C_2
REMARK    2  A    between atoms: C_2  and  C_3
REMARK    3  A    between atoms: C_3  and  C_4
REMARK    4  A    between atoms: C_7  and  C_8
REMARK    5  A    between atoms: C_8  and  N_9
REMARK                            x       y       z     vdW  Elec       q    Type
REMARK                         _______ _______ _______ _____ _____    ______ ____
ROOT
ATOM      1  C   UNL     1      48.260   5.393  16.124  0.00  0.00    +0.000 A 
ATOM      2  C   UNL     1      48.690   6.654  15.690  0.00  0.00    +0.000 A 
ATOM      3  C   UNL     1      48.328   7.140  14.429  0.00  0.00    +0.000 A 
ATOM      4  C   UNL     1      47.545   6.368  13.562  0.00  0.00    +0.000 A 
ATOM      5  C   UNL     1      47.126   5.101  13.988  0.00  0.00    +0.000 A 
ATOM      6  C   UNL     1      47.481   4.621  15.250  0.00  0.00    +0.000 A 
ENDROOT
BRANCH   1   7
ATOM      7  C   UNL     1      48.675   4.794  17.450  0.00  0.00    +0.000 C 
BRANCH   7   8
ATOM      8  C   UNL     1      47.986   5.384  18.689  0.00  0.00    +0.000 C 
BRANCH   8   9
ATOM      9  N   UNL     1      46.532   5.300  18.575  0.00  0.00    +0.000 NA
ATOM     10  H   UNL     1      46.113   5.411  19.497  0.00  0.00    +0.000 HD
ATOM     11  H   UNL     1      46.266   4.367  18.255  0.00  0.00    +0.000 HD
ENDBRANCH   8   9
ENDBRANCH   7   8
ENDBRANCH   1   7
BRANCH   4  12
ATOM     12  C   UNL     1      47.286   6.819  12.140  0.00  0.00    +0.000 C 
BRANCH  12  13
ATOM     13  N   UNL     1      45.887   6.585  11.809  0.00  0.00    +0.000 N 
ATOM     14  N   UNL     1      44.942   6.769  12.757  0.00  0.00    +0.000 NA
ATOM     15  N   UNL     1      43.945   5.935  12.484  0.00  0.00    +0.000 NA
ATOM     16  C   UNL     1      44.238   5.299  11.302  0.00  0.00    +0.000 A 
ATOM     17  C   UNL     1      43.578   4.266  10.626  0.00  0.00    +0.000 A 
ATOM     18  C   UNL     1      44.113   3.813   9.411  0.00  0.00    +0.000 A 
ATOM     19  C   UNL     1      45.261   4.398   8.867  0.00  0.00    +0.000 A 
ATOM     20  C   UNL     1      45.948   5.409   9.544  0.00  0.00    +0.000 A 
ATOM     21  C   UNL     1      45.422   5.804  10.778  0.00  0.00    +0.000 A 
ENDBRANCH  12  13
ENDBRANCH   4  12
TORSDOF 5
ENDMDL
MODEL 9
REMARK VINA RESULT:    -5.450      2.422      3.712
REMARK INTER + INTRA:          -7.448
REMARK INTER:                  -6.977
REMARK INTRA:                  -0.471
REMARK UNBOUND:                -0.565
REMARK  Name = 
REMARK  5 active torsions:
REMARK  status: ('A' for Active; 'I' for Inactive)
REMARK    1  A    between atoms: N_1  and  C_2
REMARK    2  A    between atoms: C_2  and  C_3
REMARK    3  A    between atoms: C_3  and  C_4
REMARK    4  A    between atoms: C_7  and  C_8
REMARK    5  A    between atoms: C_8  and  N_9
REMARK                            x       y       z     vdW  Elec       q    Type
REMARK                         _______ _______ _______ _____ _____    ______ ____
ROOT
ATOM      1  C   UNL     1      44.711   3.072  10.162  0.00  0.00    +0.000 A 
ATOM      2  C   UNL     1      45.083   2.891  11.501  0.00  0.00    +0.000 A 
ATOM      3  C   UNL     1      45.086   3.966  12.396  0.00  0.00    +0.000 A 
ATOM      4  C   UNL     1      44.739   5.254  11.969  0.00  0.00    +0.000 A 
ATOM      5  C   UNL     1      44.381   5.441  10.627  0.00  0.00    +0.000 A 
ATOM      6  C   UNL     1      44.370   4.364   9.738  0.00  0.00    +0.000 A 
ENDROOT
BRANCH   1   7
ATOM      7  C   UNL     1      44.751   1.958   9.139  0.00  0.00    +0.000 C 
BRANCH   7   8
ATOM      8  C   UNL     1      46.027   1.884   8.289  0.00  0.00    +0.000 C 
BRANCH   8   9
ATOM      9  N   UNL     1      46.399   0.498   8.014  0.00  0.00    +0.000 NA
ATOM     10  H   UNL     1      45.931   0.184   7.165  0.00  0.00    +0.000 HD
ATOM     11  H   UNL     1      46.057  -0.105   8.764  0.00  0.00    +0.000 HD
ENDBRANCH   8   9
ENDBRANCH   7   8
ENDBRANCH   1   7
BRANCH   4  12
ATOM     12  C   UNL     1      44.896   6.446  12.889  0.00  0.00    +0.000 C 
BRANCH  12  13
ATOM     13  N   UNL     1      45.887   7.356  12.332  0.00  0.00    +0.000 N 
ATOM     14  N   UNL     1      47.197   7.152  12.596  0.00  0.00    +0.000 NA
ATOM     15  N   UNL     1      47.790   8.340  12.577  0.00  0.00    +0.000 NA
ATOM     16  C   UNL     1      46.854   9.274  12.206  0.00  0.00    +0.000 A 
ATOM     17  C   UNL     1      46.928  10.670  12.129  0.00  0.00    +0.000 A 
ATOM     18  C   UNL     1      45.796  11.378  11.702  0.00  0.00    +0.000 A 
ATOM     19  C   UNL     1      44.626  10.708  11.330  0.00  0.00    +0.000 A 
ATOM     20  C   UNL     1      44.525   9.318  11.430  0.00  0.00    +0.000 A 
ATOM     21  C   UNL     1      45.652   8.643  11.909  0.00  0.00    +0.000 A 
ENDBRANCH  12  13
ENDBRANCH   4  12
TORSDOF 5
ENDMDL
