MODEL 1
REMARK VINA RESULT:    -8.169      0.000      0.000
REMARK INTER + INTRA:         -10.376
REMARK INTER:                 -10.079
REMARK INTRA:                  -0.298
REMARK UNBOUND:                -0.298
REMARK  Name = 
REMARK  5 active torsions:
REMARK  status: ('A' for Active; 'I' for Inactive)
REMARK    1  A    between atoms: C_1  and  C_2
REMARK    2  A    between atoms: C_2  and  O_3
REMARK    3  A    between atoms: C_2  and  C_13
REMARK    4  A    between atoms: O_3  and  C_4
REMARK    5  A    between atoms: C_7  and  C_8
REMARK                            x       y       z     vdW  Elec       q    Type
REMARK                         _______ _______ _______ _____ _____    ______ ____
ROOT
ATOM      1  C   UNL     1      44.753   4.098   9.172  0.00  0.00    +0.000 A 
ATOM      2  C   UNL     1      44.732   2.723   9.328  0.00  0.00    +0.000 A 
ATOM      3  C   UNL     1      45.636   1.953   8.606  0.00  0.00    +0.000 A 
ATOM      4  C   UNL     1      46.499   2.599   7.736  0.00  0.00    +0.000 A 
ATOM      5  N   UNL     1      46.497   3.950   7.591  0.00  0.00    +0.000 NA
ATOM      6  N   UNL     1      45.608   4.712   8.325  0.00  0.00    +0.000 NA
ENDROOT
BRANCH   4   7
ATOM      7  C   UNL     1      47.447   1.807   6.901  0.00  0.00    +0.000 C 
ATOM      8  N   UNL     1      48.543   2.466   6.406  0.00  0.00    +0.000 N 
ATOM      9  O   UNL     1      47.260   0.620   6.648  0.00  0.00    +0.000 OA
ATOM     10  H   UNL     1      48.693   3.450   6.594  0.00  0.00    +0.000 HD
ATOM     11  H   UNL     1      49.188   1.962   5.812  0.00  0.00    +0.000 HD
ENDBRANCH   4   7
BRANCH   1  12
ATOM     12  O   UNL     1      43.801   4.803   9.871  0.00  0.00    +0.000 OA
BRANCH  12  14
ATOM     13  C   UNL     1      42.457   5.218  11.872  0.00  0.00    +0.000 C 
ATOM     14  C   UNL     1      43.616   4.434  11.246  0.00  0.00    +0.000 C 
BRANCH  14  15
ATOM     15  C   UNL     1      44.925   4.785  11.955  0.00  0.00    +0.000 A 
ATOM     16  C   UNL     1      45.501   6.045  11.791  0.00  0.00    +0.000 A 
ATOM     17  C   UNL     1      46.662   6.356  12.500  0.00  0.00    +0.000 A 
ATOM     18  C   UNL     1      47.220   5.411  13.350  0.00  0.00    +0.000 A 
ATOM     19  C   UNL     1      46.594   4.183  13.457  0.00  0.00    +0.000 A 
ATOM     20  N   UNL     1      45.467   3.855  12.789  0.00  0.00    +0.000 NA
ENDBRANCH  14  15
ENDBRANCH  12  14
ENDBRANCH   1  12
TORSDOF 4
ENDMDL
MODEL 2
REMARK VINA RESULT:    -6.705      2.919      6.296
REMARK INTER + INTRA:          -8.570
REMARK INTER:                  -8.065
REMARK INTRA:                  -0.506
REMARK UNBOUND:                -0.298
REMARK  Name = 
REMARK  5 active torsions:
REMARK  status: ('A' for Active; 'I' for Inactive)
REMARK    1  A    between atoms: C_1  and  C_2
REMARK    2  A    between atoms: C_2  and  O_3
REMARK    3  A    between atoms: C_2  and  C_13
REMARK    4  A    between atoms: O_3  and  C_4
REMARK    5  A    between atoms: C_7  and  C_8
REMARK                            x       y       z     vdW  Elec       q    Type
REMARK                         _______ _______ _______ _____ _____    ______ ____
ROOT
ATOM      1  C   UNL     1      46.096   4.472  13.108  0.00  0.00    +0.000 A 
ATOM      2  C   UNL     1      46.421   5.752  12.693  0.00  0.00    +0.000 A 
ATOM      3  C   UNL     1      47.345   6.481  13.433  0.00  0.00    +0.000 A 
ATOM      4  C   UNL     1      47.874   5.901  14.574  0.00  0.00    +0.000 A 
ATOM      5  N   UNL     1      47.534   4.647  14.969  0.00  0.00    +0.000 NA
ATOM      6  N   UNL     1      46.629   3.919  14.220  0.00  0.00    +0.000 NA
ENDROOT
BRANCH   4   7
ATOM      7  C   UNL     1      48.825   6.670  15.428  0.00  0.00    +0.000 C 
ATOM      8  N   UNL     1      48.284   7.464  16.406  0.00  0.00    +0.000 N 
ATOM      9  O   UNL     1      50.041   6.614  15.265  0.00  0.00    +0.000 OA
ATOM     10  H   UNL     1      47.281   7.530  16.534  0.00  0.00    +0.000 HD
ATOM     11  H   UNL     1      48.903   8.020  16.981  0.00  0.00    +0.000 HD
ENDBRANCH   4   7
BRANCH   1  12
ATOM     12  O   UNL     1      45.138   3.819  12.367  0.00  0.00    +0.000 OA
BRANCH  12  14
ATOM     13  C   UNL     1      43.011   4.528  11.388  0.00  0.00    +0.000 C 
ATOM     14  C   UNL     1      44.541   4.565  11.296  0.00  0.00    +0.000 C 
BRANCH  14  15
ATOM     15  C   UNL     1      45.001   3.887  10.005  0.00  0.00    +0.000 A 
ATOM     16  C   UNL     1      45.560   4.639   8.972  0.00  0.00    +0.000 A 
ATOM     17  C   UNL     1      46.026   3.984   7.832  0.00  0.00    +0.000 A 
ATOM     18  C   UNL     1      45.927   2.601   7.747  0.00  0.00    +0.000 A 
ATOM     19  C   UNL     1      45.357   1.925   8.810  0.00  0.00    +0.000 A 
ATOM     20  N   UNL     1      44.902   2.531   9.928  0.00  0.00    +0.000 NA
ENDBRANCH  14  15
ENDBRANCH  12  14
ENDBRANCH   1  12
TORSDOF 4
ENDMDL
MODEL 3
REMARK VINA RESULT:    -6.453      2.470      5.974
REMARK INTER + INTRA:          -8.259
REMARK INTER:                  -8.325
REMARK INTRA:                   0.066
REMARK UNBOUND:                -0.298
REMARK  Name = 
REMARK  5 active torsions:
REMARK  status: ('A' for Active; 'I' for Inactive)
REMARK    1  A    between atoms: C_1  and  C_2
REMARK    2  A    between atoms: C_2  and  O_3
REMARK    3  A    between atoms: C_2  and  C_13
REMARK    4  A    between atoms: O_3  and  C_4
REMARK    5  A    between atoms: C_7  and  C_8
REMARK                            x       y       z     vdW  Elec       q    Type
REMARK                         _______ _______ _______ _____ _____    ______ ____
ROOT
ATOM      1  C   UNL     1      44.522   5.071  10.001  0.00  0.00    +0.000 A 
ATOM      2  C   UNL     1      45.808   5.573   9.900  0.00  0.00    +0.000 A 
ATOM      3  C   UNL     1      46.249   6.482  10.856  0.00  0.00    +0.000 A 
ATOM      4  C   UNL     1      45.365   6.866  11.851  0.00  0.00    +0.000 A 
ATOM      5  N   UNL     1      44.103   6.368  11.926  0.00  0.00    +0.000 NA
ATOM      6  N   UNL     1      43.676   5.452  10.983  0.00  0.00    +0.000 NA
ENDROOT
BRANCH   4   7
ATOM      7  C   UNL     1      45.778   7.880  12.863  0.00  0.00    +0.000 C 
ATOM      8  N   UNL     1      45.053   9.043  12.914  0.00  0.00    +0.000 N 
ATOM      9  O   UNL     1      46.731   7.701  13.616  0.00  0.00    +0.000 OA
ATOM     10  H   UNL     1      44.277   9.206  12.283  0.00  0.00    +0.000 HD
ATOM     11  H   UNL     1      45.328   9.761  13.570  0.00  0.00    +0.000 HD
ENDBRANCH   4   7
BRANCH   1  12
ATOM     12  O   UNL     1      44.124   4.218   8.998  0.00  0.00    +0.000 OA
BRANCH  12  14
ATOM     13  C   UNL     1      44.874   2.565  10.637  0.00  0.00    +0.000 C 
ATOM     14  C   UNL     1      44.375   2.822   9.211  0.00  0.00    +0.000 C 
BRANCH  14  15
ATOM     15  C   UNL     1      45.458   2.431   8.204  0.00  0.00    +0.000 A 
ATOM     16  C   UNL     1      45.826   3.311   7.185  0.00  0.00    +0.000 A 
ATOM     17  C   UNL     1      46.859   2.952   6.320  0.00  0.00    +0.000 A 
ATOM     18  C   UNL     1      47.501   1.732   6.487  0.00  0.00    +0.000 A 
ATOM     19  C   UNL     1      47.078   0.912   7.516  0.00  0.00    +0.000 A 
ATOM     20  N   UNL     1      46.084   1.234   8.373  0.00  0.00    +0.000 NA
ENDBRANCH  14  15
ENDBRANCH  12  14
ENDBRANCH   1  12
TORSDOF 4
ENDMDL
MODEL 4
REMARK VINA RESULT:    -6.416      3.051      6.142
REMARK INTER + INTRA:          -8.213
REMARK INTER:                  -7.727
REMARK INTRA:                  -0.486
REMARK UNBOUND:                -0.298
REMARK  Name = 
REMARK  5 active torsions:
REMARK  status: ('A' for Active; 'I' for Inactive)
REMARK    1  A    between atoms: C_1  and  C_2
REMARK    2  A    between atoms: C_2  and  O_3
REMARK    3  A    between atoms: C_2  and  C_13
REMARK    4  A    between atoms: O_3  and  C_4
REMARK    5  A    between atoms: C_7  and  C_8
REMARK                            x       y       z     vdW  Elec       q    Type
REMARK                         _______ _______ _______ _____ _____    ______ ____
ROOT
ATOM      1  C   UNL     1      45.492   5.818  11.889  0.00  0.00    +0.000 A 
ATOM      2  C   UNL     1      46.777   6.235  12.188  0.00  0.00    +0.000 A 
ATOM      3  C   UNL     1      47.030   7.598  12.300  0.00  0.00    +0.000 A 
ATOM      4  C   UNL     1      45.986   8.479  12.073  0.00  0.00    +0.000 A 
ATOM      5  N   UNL     1      44.733   8.048  11.771  0.00  0.00    +0.000 NA
ATOM      6  N   UNL     1      44.482   6.692  11.680  0.00  0.00    +0.000 NA
ENDROOT
BRANCH   4   7
ATOM      7  C   UNL     1      46.226   9.949  12.127  0.00  0.00    +0.000 C 
ATOM      8  N   UNL     1      45.123  10.761  12.194  0.00  0.00    +0.000 N 
ATOM      9  O   UNL     1      47.357  10.428  12.100  0.00  0.00    +0.000 OA
ATOM     10  H   UNL     1      44.186  10.374  12.196  0.00  0.00    +0.000 HD
ATOM     11  H   UNL     1      45.254  11.763  12.201  0.00  0.00    +0.000 HD
ENDBRANCH   4   7
BRANCH   1  12
ATOM     12  O   UNL     1      45.313   4.463  11.740  0.00  0.00    +0.000 OA
BRANCH  12  14
ATOM     13  C   UNL     1      43.426   2.937  11.434  0.00  0.00    +0.000 C 
ATOM     14  C   UNL     1      44.285   4.051  10.827  0.00  0.00    +0.000 C 
BRANCH  14  15
ATOM     15  C   UNL     1      45.011   3.531   9.585  0.00  0.00    +0.000 A 
ATOM     16  C   UNL     1      45.557   4.421   8.661  0.00  0.00    +0.000 A 
ATOM     17  C   UNL     1      46.267   3.916   7.571  0.00  0.00    +0.000 A 
ATOM     18  C   UNL     1      46.416   2.543   7.427  0.00  0.00    +0.000 A 
ATOM     19  C   UNL     1      45.842   1.724   8.382  0.00  0.00    +0.000 A 
ATOM     20  N   UNL     1      45.155   2.183   9.450  0.00  0.00    +0.000 NA
ENDBRANCH  14  15
ENDBRANCH  12  14
ENDBRANCH   1  12
TORSDOF 4
ENDMDL
MODEL 5
REMARK VINA RESULT:    -6.412      4.093      6.293
REMARK INTER + INTRA:          -8.209
REMARK INTER:                  -7.738
REMARK INTRA:                  -0.471
REMARK UNBOUND:                -0.298
REMARK  Name = 
REMARK  5 active torsions:
REMARK  status: ('A' for Active; 'I' for Inactive)
REMARK    1  A    between atoms: C_1  and  C_2
REMARK    2  A    between atoms: C_2  and  O_3
REMARK    3  A    between atoms: C_2  and  C_13
REMARK    4  A    between atoms: O_3  and  C_4
REMARK    5  A    between atoms: C_7  and  C_8
REMARK                            x       y       z     vdW  Elec       q    Type
REMARK                         _______ _______ _______ _____ _____    ______ ____
ROOT
ATOM      1  C   UNL     1      47.051   4.485  14.398  0.00  0.00    +0.000 A 
ATOM      2  C   UNL     1      46.536   5.572  13.715  0.00  0.00    +0.000 A 
ATOM      3  C   UNL     1      45.706   5.345  12.623  0.00  0.00    +0.000 A 
ATOM      4  C   UNL     1      45.459   4.034  12.250  0.00  0.00    +0.000 A 
ATOM      5  N   UNL     1      45.983   2.980  12.930  0.00  0.00    +0.000 NA
ATOM      6  N   UNL     1      46.793   3.212  14.025  0.00  0.00    +0.000 NA
ENDROOT
BRANCH   4   7
ATOM      7  C   UNL     1      44.620   3.746  11.052  0.00  0.00    +0.000 C 
ATOM      8  N   UNL     1      44.706   2.485  10.518  0.00  0.00    +0.000 N 
ATOM      9  O   UNL     1      43.890   4.594  10.545  0.00  0.00    +0.000 OA
ATOM     10  H   UNL     1      45.320   1.786  10.918  0.00  0.00    +0.000 HD
ATOM     11  H   UNL     1      44.171   2.269   9.688  0.00  0.00    +0.000 HD
ENDBRANCH   4   7
BRANCH   1  12
ATOM     12  O   UNL     1      47.908   4.771  15.437  0.00  0.00    +0.000 OA
BRANCH  12  14
ATOM     13  C   UNL     1      47.182   4.783  17.772  0.00  0.00    +0.000 C 
ATOM     14  C   UNL     1      47.771   3.967  16.617  0.00  0.00    +0.000 C 
BRANCH  14  15
ATOM     15  C   UNL     1      49.184   3.503  16.975  0.00  0.00    +0.000 A 
ATOM     16  C   UNL     1      50.058   4.356  17.649  0.00  0.00    +0.000 A 
ATOM     17  C   UNL     1      51.318   3.884  18.016  0.00  0.00    +0.000 A 
ATOM     18  C   UNL     1      51.678   2.579  17.705  0.00  0.00    +0.000 A 
ATOM     19  C   UNL     1      50.760   1.795  17.032  0.00  0.00    +0.000 A 
ATOM     20  N   UNL     1      49.531   2.223  16.669  0.00  0.00    +0.000 NA
ENDBRANCH  14  15
ENDBRANCH  12  14
ENDBRANCH   1  12
TORSDOF 4
ENDMDL
MODEL 6
REMARK VINA RESULT:    -6.391      3.924      6.088
REMARK INTER + INTRA:          -8.184
REMARK INTER:                  -7.757
REMARK INTRA:                  -0.426
REMARK UNBOUND:                -0.298
REMARK  Name = 
REMARK  5 active torsions:
REMARK  status: ('A' for Active; 'I' for Inactive)
REMARK    1  A    between atoms: C_1  and  C_2
REMARK    2  A    between atoms: C_2  and  O_3
REMARK    3  A    between atoms: C_2  and  C_13
REMARK    4  A    between atoms: O_3  and  C_4
REMARK    5  A    between atoms: C_7  and  C_8
REMARK                            x       y       z     vdW  Elec       q    Type
REMARK                         _______ _______ _______ _____ _____    ______ ____
ROOT
ATOM      1  C   UNL     1      46.863   4.924  13.564  0.00  0.00    +0.000 A 
ATOM      2  C   UNL     1      46.052   5.967  13.152  0.00  0.00    +0.000 A 
ATOM      3  C   UNL     1      44.820   5.670  12.580  0.00  0.00    +0.000 A 
ATOM      4  C   UNL     1      44.475   4.338  12.421  0.00  0.00    +0.000 A 
ATOM      5  N   UNL     1      45.291   3.330  12.824  0.00  0.00    +0.000 NA
ATOM      6  N   UNL     1      46.507   3.630  13.409  0.00  0.00    +0.000 NA
ENDROOT
BRANCH   4   7
ATOM      7  C   UNL     1      43.188   3.975  11.761  0.00  0.00    +0.000 C 
ATOM      8  N   UNL     1      42.257   4.972  11.618  0.00  0.00    +0.000 N 
ATOM      9  O   UNL     1      42.953   2.835  11.370  0.00  0.00    +0.000 OA
ATOM     10  H   UNL     1      42.436   5.910  11.956  0.00  0.00    +0.000 HD
ATOM     11  H   UNL     1      41.363   4.749  11.202  0.00  0.00    +0.000 HD
ENDBRANCH   4   7
BRANCH   1  12
ATOM     12  O   UNL     1      48.092   5.276  14.074  0.00  0.00    +0.000 OA
BRANCH  12  14
ATOM     13  C   UNL     1      49.223   7.014  15.371  0.00  0.00    +0.000 C 
ATOM     14  C   UNL     1      48.085   5.988  15.320  0.00  0.00    +0.000 C 
BRANCH  14  15
ATOM     15  C   UNL     1      48.288   4.932  16.408  0.00  0.00    +0.000 A 
ATOM     16  C   UNL     1      47.207   4.188  16.880  0.00  0.00    +0.000 A 
ATOM     17  C   UNL     1      47.434   3.190  17.828  0.00  0.00    +0.000 A 
ATOM     18  C   UNL     1      48.725   2.956  18.281  0.00  0.00    +0.000 A 
ATOM     19  C   UNL     1      49.745   3.737  17.769  0.00  0.00    +0.000 A 
ATOM     20  N   UNL     1      49.557   4.706  16.848  0.00  0.00    +0.000 NA
ENDBRANCH  14  15
ENDBRANCH  12  14
ENDBRANCH   1  12
TORSDOF 4
ENDMDL
MODEL 7
REMARK VINA RESULT:    -5.703      3.982      5.944
REMARK INTER + INTRA:          -7.334
REMARK INTER:                  -6.831
REMARK INTRA:                  -0.503
REMARK UNBOUND:                -0.298
REMARK  Name = 
REMARK  5 active torsions:
REMARK  status: ('A' for Active; 'I' for Inactive)
REMARK    1  A    between atoms: C_1  and  C_2
REMARK    2  A    between atoms: C_2  and  O_3
REMARK    3  A    between atoms: C_2  and  C_13
REMARK    4  A    between atoms: O_3  and  C_4
REMARK    5  A    between atoms: C_7  and  C_8
REMARK                            x       y       z     vdW  Elec       q    Type
REMARK                         _______ _______ _______ _____ _____    ______ ____
ROOT
ATOM      1  C   UNL     1      47.046   5.441  12.982  0.00  0.00    +0.000 A 
ATOM      2  C   UNL     1      46.480   6.099  11.904  0.00  0.00    +0.000 A 
ATOM      3  C   UNL     1      45.194   5.748  11.507  0.00  0.00    +0.000 A 
ATOM      4  C   UNL     1      44.552   4.730  12.192  0.00  0.00    +0.000 A 
ATOM      5  N   UNL     1      45.130   4.091  13.242  0.00  0.00    +0.000 NA
ATOM      6  N   UNL     1      46.401   4.456  13.644  0.00  0.00    +0.000 NA
ENDROOT
BRANCH   4   7
ATOM      7  C   UNL     1      43.195   4.284  11.763  0.00  0.00    +0.000 C 
ATOM      8  N   UNL     1      42.190   5.218  11.799  0.00  0.00    +0.000 N 
ATOM      9  O   UNL     1      42.969   3.132  11.403  0.00  0.00    +0.000 OA
ATOM     10  H   UNL     1      42.365   6.165  12.114  0.00  0.00    +0.000 HD
ATOM     11  H   UNL     1      41.254   4.937  11.543  0.00  0.00    +0.000 HD
ENDBRANCH   4   7
BRANCH   1  12
ATOM     12  O   UNL     1      48.339   5.793  13.296  0.00  0.00    +0.000 OA
BRANCH  12  14
ATOM     13  C   UNL     1      49.777   7.693  12.746  0.00  0.00    +0.000 C 
ATOM     14  C   UNL     1      48.577   7.185  13.552  0.00  0.00    +0.000 C 
BRANCH  14  15
ATOM     15  C   UNL     1      48.873   7.291  15.049  0.00  0.00    +0.000 A 
ATOM     16  C   UNL     1      48.578   8.463  15.746  0.00  0.00    +0.000 A 
ATOM     17  C   UNL     1      48.801   8.508  17.122  0.00  0.00    +0.000 A 
ATOM     18  C   UNL     1      49.312   7.391  17.770  0.00  0.00    +0.000 A 
ATOM     19  C   UNL     1      49.584   6.268  17.011  0.00  0.00    +0.000 A 
ATOM     20  N   UNL     1      49.372   6.193  15.679  0.00  0.00    +0.000 NA
ENDBRANCH  14  15
ENDBRANCH  12  14
ENDBRANCH   1  12
TORSDOF 4
ENDMDL
MODEL 8
REMARK VINA RESULT:    -5.618      4.551      7.419
REMARK INTER + INTRA:          -7.230
REMARK INTER:                  -6.822
REMARK INTRA:                  -0.408
REMARK UNBOUND:                -0.298
REMARK  Name = 
REMARK  5 active torsions:
REMARK  status: ('A' for Active; 'I' for Inactive)
REMARK    1  A    between atoms: C_1  and  C_2
REMARK    2  A    between atoms: C_2  and  O_3
REMARK    3  A    between atoms: C_2  and  C_13
REMARK    4  A    between atoms: O_3  and  C_4
REMARK    5  A    between atoms: C_7  and  C_8
REMARK                            x       y       z     vdW  Elec       q    Type
REMARK                         _______ _______ _______ _____ _____    ______ ____
ROOT
ATOM      1  C   UNL     1      47.503   4.601  15.497  0.00  0.00    +0.000 A 
ATOM      2  C   UNL     1      47.516   3.275  15.893  0.00  0.00    +0.000 A 
ATOM      3  C   UNL     1      48.546   2.831  16.714  0.00  0.00    +0.000 A 
ATOM      4  C   UNL     1      49.532   3.735  17.074  0.00  0.00    +0.000 A 
ATOM      5  N   UNL     1      49.505   5.031  16.667  0.00  0.00    +0.000 NA
ATOM      6  N   UNL     1      48.470   5.471  15.865  0.00  0.00    +0.000 NA
ENDROOT
BRANCH   4   7
ATOM      7  C   UNL     1      50.685   3.287  17.908  0.00  0.00    +0.000 C 
ATOM      8  N   UNL     1      51.007   1.955  17.863  0.00  0.00    +0.000 N 
ATOM      9  O   UNL     1      51.318   4.063  18.619  0.00  0.00    +0.000 OA
ATOM     10  H   UNL     1      50.477   1.305  17.295  0.00  0.00    +0.000 HD
ATOM     11  H   UNL     1      51.765   1.617  18.441  0.00  0.00    +0.000 HD
ENDBRANCH   4   7
BRANCH   1  12
ATOM     12  O   UNL     1      46.490   4.970  14.643  0.00  0.00    +0.000 OA
BRANCH  12  14
ATOM     13  C   UNL     1      47.167   6.508  12.866  0.00  0.00    +0.000 C 
ATOM     14  C   UNL     1      46.831   5.063  13.252  0.00  0.00    +0.000 C 
BRANCH  14  15
ATOM     15  C   UNL     1      45.593   4.595  12.485  0.00  0.00    +0.000 A 
ATOM     16  C   UNL     1      45.280   5.149  11.243  0.00  0.00    +0.000 A 
ATOM     17  C   UNL     1      44.180   4.657  10.540  0.00  0.00    +0.000 A 
ATOM     18  C   UNL     1      43.420   3.631  11.085  0.00  0.00    +0.000 A 
ATOM     19  C   UNL     1      43.790   3.136  12.322  0.00  0.00    +0.000 A 
ATOM     20  N   UNL     1      44.853   3.587  13.023  0.00  0.00    +0.000 NA
ENDBRANCH  14  15
ENDBRANCH  12  14
ENDBRANCH   1  12
TORSDOF 4
ENDMDL
