MODEL 1
REMARK VINA RESULT:    -7.868      0.000      0.000
REMARK INTER + INTRA:         -11.611
REMARK INTER:                 -10.628
REMARK INTRA:                  -0.983
REMARK UNBOUND:                -0.983
REMARK  Name = 
REMARK  6 active torsions:
REMARK  status: ('A' for Active; 'I' for Inactive)
REMARK    1  A    between atoms: C_2  and  C_25
REMARK    2  A    between atoms: N_3  and  C_4
REMARK    3  A    between atoms: C_4  and  C_5
REMARK    4  A    between atoms: C_8  and  C_9
REMARK    5  A    between atoms: C_9  and  N_10
REMARK    6  A    between atoms: C_11  and  C_13
REMARK                            x       y       z     vdW  Elec       q    Type
REMARK                         _______ _______ _______ _____ _____    ______ ____
ROOT
ATOM      1  C   UNL     1      44.619   5.701  10.810  0.00  0.00    +0.000 A 
ATOM      2  C   UNL     1      44.015   6.376  11.873  0.00  0.00    +0.000 A 
ATOM      3  C   UNL     1      44.785   7.186  12.706  0.00  0.00    +0.000 A 
ATOM      4  C   UNL     1      46.149   7.301  12.458  0.00  0.00    +0.000 A 
ATOM      5  N   UNL     1      46.749   6.691  11.404  0.00  0.00    +0.000 NA
ATOM      6  C   UNL     1      45.978   5.914  10.611  0.00  0.00    +0.000 A 
ENDROOT
BRANCH   1   7
ATOM      7  C   UNL     1      43.848   4.759   9.940  0.00  0.00    +0.000 C 
BRANCH   7  10
ATOM      8  O   UNL     1      45.088   2.336  10.137  0.00  0.00    +0.000 OA
ATOM      9  C   UNL     1      45.235   2.945   9.080  0.00  0.00    +0.000 C 
ATOM     10  N   UNL     1      44.642   4.178   8.888  0.00  0.00    +0.000 N 
ATOM     11  H   UNL     1      44.743   4.654   7.999  0.00  0.00    +0.000 HD
BRANCH   9  12
ATOM     12  C   UNL     1      46.028   2.421   7.991  0.00  0.00    +0.000 A 
ATOM     13  C   UNL     1      46.477   1.119   7.851  0.00  0.00    +0.000 A 
ATOM     14  N   UNL     1      47.240   0.857   6.730  0.00  0.00    +0.000 NA
ATOM     15  C   UNL     1      47.368   1.963   6.031  0.00  0.00    +0.000 A 
ATOM     16  S   UNL     1      46.580   3.351   6.662  0.00  0.00    +0.000 S 
ENDBRANCH   9  12
ENDBRANCH   7  10
ENDBRANCH   1   7
BRANCH   4  17
ATOM     17  C   UNL     1      47.022   8.131  13.367  0.00  0.00    +0.000 C 
BRANCH  17  18
ATOM     18  N   UNL     1      47.467   7.388  14.521  0.00  0.00    +0.000 N 
ATOM     19  C   UNL     1      48.709   6.817  14.599  0.00  0.00    +0.000 C 
ATOM     20  O   UNL     1      49.526   6.910  13.687  0.00  0.00    +0.000 OA
ATOM     21  H   UNL     1      46.739   7.115  15.176  0.00  0.00    +0.000 HD
BRANCH  19  22
ATOM     22  C   UNL     1      49.041   6.142  15.861  0.00  0.00    +0.000 A 
ATOM     23  C   UNL     1      50.110   6.598  16.620  0.00  0.00    +0.000 A 
ATOM     24  S   UNL     1      50.339   5.732  18.071  0.00  0.00    +0.000 S 
ATOM     25  C   UNL     1      49.044   4.687  17.717  0.00  0.00    +0.000 A 
ATOM     26  N   UNL     1      48.715   3.673  18.561  0.00  0.00    +0.000 NA
ATOM     27  C   UNL     1      47.733   2.940  18.155  0.00  0.00    +0.000 A 
ATOM     28  N   UNL     1      47.044   3.135  16.987  0.00  0.00    +0.000 N 
ATOM     29  C   UNL     1      47.309   4.175  16.129  0.00  0.00    +0.000 A 
ATOM     30  O   UNL     1      46.621   4.368  15.133  0.00  0.00    +0.000 OA
ATOM     31  C   UNL     1      48.427   5.012  16.521  0.00  0.00    +0.000 A 
ATOM     32  H   UNL     1      46.268   2.539  16.736  0.00  0.00    +0.000 HD
ENDBRANCH  19  22
ENDBRANCH  17  18
ENDBRANCH   4  17
TORSDOF 6
ENDMDL
MODEL 2
REMARK VINA RESULT:    -7.349      1.985      2.388
REMARK INTER + INTRA:         -10.909
REMARK INTER:                 -10.219
REMARK INTRA:                  -0.689
REMARK UNBOUND:                -0.983
REMARK  Name = 
REMARK  6 active torsions:
REMARK  status: ('A' for Active; 'I' for Inactive)
REMARK    1  A    between atoms: C_2  and  C_25
REMARK    2  A    between atoms: N_3  and  C_4
REMARK    3  A    between atoms: C_4  and  C_5
REMARK    4  A    between atoms: C_8  and  C_9
REMARK    5  A    between atoms: C_9  and  N_10
REMARK    6  A    between atoms: C_11  and  C_13
REMARK                            x       y       z     vdW  Elec       q    Type
REMARK                         _______ _______ _______ _____ _____    ______ ____
ROOT
ATOM      1  C   UNL     1      44.463   4.618  11.666  0.00  0.00    +0.000 A 
ATOM      2  C   UNL     1      45.493   4.708  12.605  0.00  0.00    +0.000 A 
ATOM      3  C   UNL     1      45.943   5.958  13.022  0.00  0.00    +0.000 A 
ATOM      4  C   UNL     1      45.353   7.098  12.486  0.00  0.00    +0.000 A 
ATOM      5  N   UNL     1      44.320   7.036  11.608  0.00  0.00    +0.000 NA
ATOM      6  C   UNL     1      43.901   5.810  11.222  0.00  0.00    +0.000 A 
ENDROOT
BRANCH   1   7
ATOM      7  C   UNL     1      44.003   3.299  11.129  0.00  0.00    +0.000 C 
BRANCH   7  10
ATOM      8  O   UNL     1      44.287   4.008   8.509  0.00  0.00    +0.000 OA
ATOM      9  C   UNL     1      45.021   3.112   8.920  0.00  0.00    +0.000 C 
ATOM     10  N   UNL     1      44.952   2.688  10.233  0.00  0.00    +0.000 N 
ATOM     11  H   UNL     1      45.587   1.973  10.567  0.00  0.00    +0.000 HD
BRANCH   9  12
ATOM     12  C   UNL     1      45.986   2.453   8.067  0.00  0.00    +0.000 A 
ATOM     13  C   UNL     1      46.281   1.101   8.048  0.00  0.00    +0.000 A 
ATOM     14  N   UNL     1      47.259   0.706   7.157  0.00  0.00    +0.000 NA
ATOM     15  C   UNL     1      47.700   1.760   6.509  0.00  0.00    +0.000 A 
ATOM     16  S   UNL     1      46.968   3.259   6.918  0.00  0.00    +0.000 S 
ENDBRANCH   9  12
ENDBRANCH   7  10
ENDBRANCH   1   7
BRANCH   4  17
ATOM     17  C   UNL     1      45.847   8.469  12.879  0.00  0.00    +0.000 C 
BRANCH  17  18
ATOM     18  N   UNL     1      46.640   8.437  14.084  0.00  0.00    +0.000 N 
ATOM     19  C   UNL     1      47.923   8.914  14.138  0.00  0.00    +0.000 C 
ATOM     20  O   UNL     1      48.476   9.406  13.158  0.00  0.00    +0.000 OA
ATOM     21  H   UNL     1      46.286   7.840  14.827  0.00  0.00    +0.000 HD
BRANCH  19  22
ATOM     22  C   UNL     1      48.584   8.866  15.449  0.00  0.00    +0.000 A 
ATOM     23  C   UNL     1      48.925  10.052  16.086  0.00  0.00    +0.000 A 
ATOM     24  S   UNL     1      49.650   9.826  17.612  0.00  0.00    +0.000 S 
ATOM     25  C   UNL     1      49.573   8.133  17.459  0.00  0.00    +0.000 A 
ATOM     26  N   UNL     1      50.064   7.322  18.435  0.00  0.00    +0.000 NA
ATOM     27  C   UNL     1      49.969   6.061  18.176  0.00  0.00    +0.000 A 
ATOM     28  N   UNL     1      49.420   5.537  17.035  0.00  0.00    +0.000 N 
ATOM     29  C   UNL     1      48.868   6.316  16.046  0.00  0.00    +0.000 A 
ATOM     30  O   UNL     1      48.313   5.813  15.076  0.00  0.00    +0.000 OA
ATOM     31  C   UNL     1      48.978   7.746  16.272  0.00  0.00    +0.000 A 
ATOM     32  H   UNL     1      49.354   4.538  16.901  0.00  0.00    +0.000 HD
ENDBRANCH  19  22
ENDBRANCH  17  18
ENDBRANCH   4  17
TORSDOF 6
ENDMDL
MODEL 3
REMARK VINA RESULT:    -7.031      2.411      2.785
REMARK INTER + INTRA:         -10.480
REMARK INTER:                  -9.669
REMARK INTRA:                  -0.811
REMARK UNBOUND:                -0.983
REMARK  Name = 
REMARK  6 active torsions:
REMARK  status: ('A' for Active; 'I' for Inactive)
REMARK    1  A    between atoms: C_2  and  C_25
REMARK    2  A    between atoms: N_3  and  C_4
REMARK    3  A    between atoms: C_4  and  C_5
REMARK    4  A    between atoms: C_8  and  C_9
REMARK    5  A    between atoms: C_9  and  N_10
REMARK    6  A    between atoms: C_11  and  C_13
REMARK                            x       y       z     vdW  Elec       q    Type
REMARK                         _______ _______ _______ _____ _____    ______ ____
ROOT
ATOM      1  C   UNL     1      45.082   5.756  11.562  0.00  0.00    +0.000 A 
ATOM      2  C   UNL     1      45.892   5.004  12.415  0.00  0.00    +0.000 A 
ATOM      3  C   UNL     1      46.833   5.644  13.218  0.00  0.00    +0.000 A 
ATOM      4  C   UNL     1      46.947   7.028  13.148  0.00  0.00    +0.000 A 
ATOM      5  N   UNL     1      46.140   7.784  12.361  0.00  0.00    +0.000 NA
ATOM      6  C   UNL     1      45.233   7.138  11.594  0.00  0.00    +0.000 A 
ENDROOT
BRANCH   1   7
ATOM      7  C   UNL     1      44.114   5.106  10.624  0.00  0.00    +0.000 C 
BRANCH   7  10
ATOM      8  O   UNL     1      45.835   5.245   8.510  0.00  0.00    +0.000 OA
ATOM      9  C   UNL     1      45.521   4.120   8.892  0.00  0.00    +0.000 C 
ATOM     10  N   UNL     1      44.658   3.950   9.957  0.00  0.00    +0.000 N 
ATOM     11  H   UNL     1      44.435   3.017  10.283  0.00  0.00    +0.000 HD
BRANCH   9  12
ATOM     12  C   UNL     1      46.025   2.922   8.258  0.00  0.00    +0.000 A 
ATOM     13  C   UNL     1      45.819   1.619   8.676  0.00  0.00    +0.000 A 
ATOM     14  N   UNL     1      46.421   0.635   7.917  0.00  0.00    +0.000 NA
ATOM     15  C   UNL     1      47.081   1.198   6.930  0.00  0.00    +0.000 A 
ATOM     16  S   UNL     1      47.005   2.912   6.853  0.00  0.00    +0.000 S 
ENDBRANCH   9  12
ENDBRANCH   7  10
ENDBRANCH   1   7
BRANCH   4  17
ATOM     17  C   UNL     1      47.988   7.751  13.968  0.00  0.00    +0.000 C 
BRANCH  17  18
ATOM     18  N   UNL     1      47.982   7.330  15.348  0.00  0.00    +0.000 N 
ATOM     19  C   UNL     1      49.073   6.771  15.956  0.00  0.00    +0.000 C 
ATOM     20  O   UNL     1      50.133   6.598  15.360  0.00  0.00    +0.000 OA
ATOM     21  H   UNL     1      47.064   7.259  15.781  0.00  0.00    +0.000 HD
BRANCH  19  22
ATOM     22  C   UNL     1      48.934   6.446  17.382  0.00  0.00    +0.000 A 
ATOM     23  C   UNL     1      49.355   5.208  17.846  0.00  0.00    +0.000 A 
ATOM     24  S   UNL     1      49.160   5.002  19.527  0.00  0.00    +0.000 S 
ATOM     25  C   UNL     1      48.464   6.546  19.690  0.00  0.00    +0.000 A 
ATOM     26  N   UNL     1      48.036   6.994  20.902  0.00  0.00    +0.000 NA
ATOM     27  C   UNL     1      47.501   8.168  20.876  0.00  0.00    +0.000 A 
ATOM     28  N   UNL     1      47.363   8.940  19.752  0.00  0.00    +0.000 N 
ATOM     29  C   UNL     1      47.825   8.549  18.518  0.00  0.00    +0.000 A 
ATOM     30  O   UNL     1      47.758   9.296  17.549  0.00  0.00    +0.000 OA
ATOM     31  C   UNL     1      48.406   7.220  18.483  0.00  0.00    +0.000 A 
ATOM     32  H   UNL     1      46.955   9.862  19.802  0.00  0.00    +0.000 HD
ENDBRANCH  19  22
ENDBRANCH  17  18
ENDBRANCH   4  17
TORSDOF 6
ENDMDL
MODEL 4
REMARK VINA RESULT:    -6.968      4.873      9.193
REMARK INTER + INTRA:         -10.395
REMARK INTER:                  -9.627
REMARK INTRA:                  -0.767
REMARK UNBOUND:                -0.983
REMARK  Name = 
REMARK  6 active torsions:
REMARK  status: ('A' for Active; 'I' for Inactive)
REMARK    1  A    between atoms: C_2  and  C_25
REMARK    2  A    between atoms: N_3  and  C_4
REMARK    3  A    between atoms: C_4  and  C_5
REMARK    4  A    between atoms: C_8  and  C_9
REMARK    5  A    between atoms: C_9  and  N_10
REMARK    6  A    between atoms: C_11  and  C_13
REMARK                            x       y       z     vdW  Elec       q    Type
REMARK                         _______ _______ _______ _____ _____    ______ ____
ROOT
ATOM      1  C   UNL     1      51.541   2.922  17.763  0.00  0.00    +0.000 A 
ATOM      2  C   UNL     1      50.891   4.032  18.307  0.00  0.00    +0.000 A 
ATOM      3  C   UNL     1      49.528   4.213  18.087  0.00  0.00    +0.000 A 
ATOM      4  C   UNL     1      48.840   3.277  17.322  0.00  0.00    +0.000 A 
ATOM      5  N   UNL     1      49.440   2.167  16.822  0.00  0.00    +0.000 NA
ATOM      6  C   UNL     1      50.763   2.015  17.053  0.00  0.00    +0.000 A 
ENDROOT
BRANCH   1   7
ATOM      7  C   UNL     1      53.018   2.729  17.905  0.00  0.00    +0.000 C 
BRANCH   7  10
ATOM      8  O   UNL     1      54.176   0.786  19.432  0.00  0.00    +0.000 OA
ATOM      9  C   UNL     1      54.057   0.546  18.233  0.00  0.00    +0.000 C 
ATOM     10  N   UNL     1      53.480   1.469  17.382  0.00  0.00    +0.000 N 
ATOM     11  H   UNL     1      53.357   1.243  16.402  0.00  0.00    +0.000 HD
BRANCH   9  12
ATOM     12  C   UNL     1      54.510  -0.695  17.646  0.00  0.00    +0.000 A 
ATOM     13  C   UNL     1      54.709  -0.947  16.300  0.00  0.00    +0.000 A 
ATOM     14  N   UNL     1      55.127  -2.222  15.975  0.00  0.00    +0.000 NA
ATOM     15  C   UNL     1      55.240  -2.930  17.077  0.00  0.00    +0.000 A 
ATOM     16  S   UNL     1      54.869  -2.112  18.541  0.00  0.00    +0.000 S 
ENDBRANCH   9  12
ENDBRANCH   7  10
ENDBRANCH   1   7
BRANCH   4  17
ATOM     17  C   UNL     1      47.373   3.466  17.023  0.00  0.00    +0.000 C 
BRANCH  17  18
ATOM     18  N   UNL     1      47.148   4.469  16.010  0.00  0.00    +0.000 N 
ATOM     19  C   UNL     1      47.127   4.178  14.673  0.00  0.00    +0.000 C 
ATOM     20  O   UNL     1      47.294   3.037  14.253  0.00  0.00    +0.000 OA
ATOM     21  H   UNL     1      47.233   5.433  16.322  0.00  0.00    +0.000 HD
BRANCH  19  22
ATOM     22  C   UNL     1      46.829   5.294  13.765  0.00  0.00    +0.000 A 
ATOM     23  C   UNL     1      47.778   6.289  13.570  0.00  0.00    +0.000 A 
ATOM     24  S   UNL     1      47.294   7.489  12.460  0.00  0.00    +0.000 S 
ATOM     25  C   UNL     1      45.780   6.747  12.233  0.00  0.00    +0.000 A 
ATOM     26  N   UNL     1      44.851   7.295  11.404  0.00  0.00    +0.000 NA
ATOM     27  C   UNL     1      43.737   6.646  11.348  0.00  0.00    +0.000 A 
ATOM     28  N   UNL     1      43.471   5.492  12.039  0.00  0.00    +0.000 N 
ATOM     29  C   UNL     1      44.395   4.876  12.847  0.00  0.00    +0.000 A 
ATOM     30  O   UNL     1      44.152   3.803  13.387  0.00  0.00    +0.000 OA
ATOM     31  C   UNL     1      45.656   5.584  12.972  0.00  0.00    +0.000 A 
ATOM     32  H   UNL     1      42.586   5.017  11.935  0.00  0.00    +0.000 HD
ENDBRANCH  19  22
ENDBRANCH  17  18
ENDBRANCH   4  17
TORSDOF 6
ENDMDL
MODEL 5
REMARK VINA RESULT:    -6.786      3.210      3.831
REMARK INTER + INTRA:         -10.150
REMARK INTER:                  -9.572
REMARK INTRA:                  -0.578
REMARK UNBOUND:                -0.983
REMARK  Name = 
REMARK  6 active torsions:
REMARK  status: ('A' for Active; 'I' for Inactive)
REMARK    1  A    between atoms: C_2  and  C_25
REMARK    2  A    between atoms: N_3  and  C_4
REMARK    3  A    between atoms: C_4  and  C_5
REMARK    4  A    between atoms: C_8  and  C_9
REMARK    5  A    between atoms: C_9  and  N_10
REMARK    6  A    between atoms: C_11  and  C_13
REMARK                            x       y       z     vdW  Elec       q    Type
REMARK                         _______ _______ _______ _____ _____    ______ ____
ROOT
ATOM      1  C   UNL     1      44.283   4.429  11.606  0.00  0.00    +0.000 A 
ATOM      2  C   UNL     1      45.319   4.535  12.537  0.00  0.00    +0.000 A 
ATOM      3  C   UNL     1      45.708   5.789  13.001  0.00  0.00    +0.000 A 
ATOM      4  C   UNL     1      45.052   6.917  12.520  0.00  0.00    +0.000 A 
ATOM      5  N   UNL     1      44.012   6.837  11.652  0.00  0.00    +0.000 NA
ATOM      6  C   UNL     1      43.653   5.607  11.220  0.00  0.00    +0.000 A 
ENDROOT
BRANCH   1   7
ATOM      7  C   UNL     1      43.886   3.111  11.020  0.00  0.00    +0.000 C 
BRANCH   7  10
ATOM      8  O   UNL     1      44.245   3.967   8.453  0.00  0.00    +0.000 OA
ATOM      9  C   UNL     1      44.981   3.062   8.841  0.00  0.00    +0.000 C 
ATOM     10  N   UNL     1      44.876   2.566  10.126  0.00  0.00    +0.000 N 
ATOM     11  H   UNL     1      45.512   1.844  10.442  0.00  0.00    +0.000 HD
BRANCH   9  12
ATOM     12  C   UNL     1      45.986   2.467   7.987  0.00  0.00    +0.000 A 
ATOM     13  C   UNL     1      46.389   1.144   7.988  0.00  0.00    +0.000 A 
ATOM     14  N   UNL     1      47.386   0.811   7.091  0.00  0.00    +0.000 NA
ATOM     15  C   UNL     1      47.733   1.886   6.420  0.00  0.00    +0.000 A 
ATOM     16  S   UNL     1      46.887   3.328   6.811  0.00  0.00    +0.000 S 
ENDBRANCH   9  12
ENDBRANCH   7  10
ENDBRANCH   1   7
BRANCH   4  17
ATOM     17  C   UNL     1      45.478   8.295  12.965  0.00  0.00    +0.000 C 
BRANCH  17  18
ATOM     18  N   UNL     1      46.720   8.270  13.700  0.00  0.00    +0.000 N 
ATOM     19  C   UNL     1      47.759   9.118  13.425  0.00  0.00    +0.000 C 
ATOM     20  O   UNL     1      47.693   9.960  12.534  0.00  0.00    +0.000 OA
ATOM     21  H   UNL     1      46.872   7.447  14.276  0.00  0.00    +0.000 HD
BRANCH  19  22
ATOM     22  C   UNL     1      48.937   9.013  14.295  0.00  0.00    +0.000 A 
ATOM     23  C   UNL     1      48.806   9.256  15.656  0.00  0.00    +0.000 A 
ATOM     24  S   UNL     1      50.256   9.056  16.531  0.00  0.00    +0.000 S 
ATOM     25  C   UNL     1      51.122   8.679  15.116  0.00  0.00    +0.000 A 
ATOM     26  N   UNL     1      52.457   8.422  15.163  0.00  0.00    +0.000 NA
ATOM     27  C   UNL     1      52.994   8.181  14.014  0.00  0.00    +0.000 A 
ATOM     28  N   UNL     1      52.316   8.165  12.824  0.00  0.00    +0.000 N 
ATOM     29  C   UNL     1      50.960   8.370  12.735  0.00  0.00    +0.000 A 
ATOM     30  O   UNL     1      50.372   8.269  11.664  0.00  0.00    +0.000 OA
ATOM     31  C   UNL     1      50.311   8.679  13.995  0.00  0.00    +0.000 A 
ATOM     32  H   UNL     1      52.790   7.947  11.959  0.00  0.00    +0.000 HD
ENDBRANCH  19  22
ENDBRANCH  17  18
ENDBRANCH   4  17
TORSDOF 6
ENDMDL
MODEL 6
REMARK VINA RESULT:    -6.761      3.520      8.394
REMARK INTER + INTRA:         -10.116
REMARK INTER:                  -9.119
REMARK INTRA:                  -0.997
REMARK UNBOUND:                -0.983
REMARK  Name = 
REMARK  6 active torsions:
REMARK  status: ('A' for Active; 'I' for Inactive)
REMARK    1  A    between atoms: C_2  and  C_25
REMARK    2  A    between atoms: N_3  and  C_4
REMARK    3  A    between atoms: C_4  and  C_5
REMARK    4  A    between atoms: C_8  and  C_9
REMARK    5  A    between atoms: C_9  and  N_10
REMARK    6  A    between atoms: C_11  and  C_13
REMARK                            x       y       z     vdW  Elec       q    Type
REMARK                         _______ _______ _______ _____ _____    ______ ____
ROOT
ATOM      1  C   UNL     1      49.549   4.594  17.599  0.00  0.00    +0.000 A 
ATOM      2  C   UNL     1      50.227   5.797  17.393  0.00  0.00    +0.000 A 
ATOM      3  C   UNL     1      49.812   6.662  16.383  0.00  0.00    +0.000 A 
ATOM      4  C   UNL     1      48.724   6.301  15.595  0.00  0.00    +0.000 A 
ATOM      5  N   UNL     1      48.021   5.160  15.806  0.00  0.00    +0.000 NA
ATOM      6  C   UNL     1      48.444   4.340  16.795  0.00  0.00    +0.000 A 
ENDROOT
BRANCH   1   7
ATOM      7  C   UNL     1      50.009   3.599  18.618  0.00  0.00    +0.000 C 
BRANCH   7  10
ATOM      8  O   UNL     1      50.793   1.432  17.155  0.00  0.00    +0.000 OA
ATOM      9  C   UNL     1      51.684   2.088  17.689  0.00  0.00    +0.000 C 
ATOM     10  N   UNL     1      51.384   3.204  18.446  0.00  0.00    +0.000 N 
ATOM     11  H   UNL     1      52.131   3.755  18.851  0.00  0.00    +0.000 HD
BRANCH   9  12
ATOM     12  C   UNL     1      53.082   1.737  17.563  0.00  0.00    +0.000 A 
ATOM     13  C   UNL     1      53.594   0.485  17.270  0.00  0.00    +0.000 A 
ATOM     14  N   UNL     1      54.970   0.387  17.222  0.00  0.00    +0.000 NA
ATOM     15  C   UNL     1      55.493   1.565  17.482  0.00  0.00    +0.000 A 
ATOM     16  S   UNL     1      54.378   2.836  17.780  0.00  0.00    +0.000 S 
ENDBRANCH   9  12
ENDBRANCH   7  10
ENDBRANCH   1   7
BRANCH   4  17
ATOM     17  C   UNL     1      48.275   7.191  14.461  0.00  0.00    +0.000 C 
BRANCH  17  18
ATOM     18  N   UNL     1      47.026   6.753  13.887  0.00  0.00    +0.000 N 
ATOM     19  C   UNL     1      46.774   6.797  12.542  0.00  0.00    +0.000 C 
ATOM     20  O   UNL     1      47.605   7.208  11.737  0.00  0.00    +0.000 OA
ATOM     21  H   UNL     1      46.261   6.625  14.545  0.00  0.00    +0.000 HD
BRANCH  19  22
ATOM     22  C   UNL     1      45.478   6.263  12.101  0.00  0.00    +0.000 A 
ATOM     23  C   UNL     1      44.535   7.122  11.555  0.00  0.00    +0.000 A 
ATOM     24  S   UNL     1      43.102   6.342  11.059  0.00  0.00    +0.000 S 
ATOM     25  C   UNL     1      43.673   4.832  11.597  0.00  0.00    +0.000 A 
ATOM     26  N   UNL     1      42.903   3.716  11.490  0.00  0.00    +0.000 NA
ATOM     27  C   UNL     1      43.447   2.646  11.965  0.00  0.00    +0.000 A 
ATOM     28  N   UNL     1      44.695   2.588  12.528  0.00  0.00    +0.000 N 
ATOM     29  C   UNL     1      45.526   3.679  12.612  0.00  0.00    +0.000 A 
ATOM     30  O   UNL     1      46.667   3.575  13.048  0.00  0.00    +0.000 OA
ATOM     31  C   UNL     1      44.951   4.917  12.123  0.00  0.00    +0.000 A 
ATOM     32  H   UNL     1      45.074   1.714  12.861  0.00  0.00    +0.000 HD
ENDBRANCH  19  22
ENDBRANCH  17  18
ENDBRANCH   4  17
TORSDOF 6
ENDMDL
MODEL 7
REMARK VINA RESULT:    -6.568      2.986      8.187
REMARK INTER + INTRA:          -9.854
REMARK INTER:                  -9.120
REMARK INTRA:                  -0.734
REMARK UNBOUND:                -0.983
REMARK  Name = 
REMARK  6 active torsions:
REMARK  status: ('A' for Active; 'I' for Inactive)
REMARK    1  A    between atoms: C_2  and  C_25
REMARK    2  A    between atoms: N_3  and  C_4
REMARK    3  A    between atoms: C_4  and  C_5
REMARK    4  A    between atoms: C_8  and  C_9
REMARK    5  A    between atoms: C_9  and  N_10
REMARK    6  A    between atoms: C_11  and  C_13
REMARK                            x       y       z     vdW  Elec       q    Type
REMARK                         _______ _______ _______ _____ _____    ______ ____
ROOT
ATOM      1  C   UNL     1      50.328   7.011  15.798  0.00  0.00    +0.000 A 
ATOM      2  C   UNL     1      49.020   6.565  15.598  0.00  0.00    +0.000 A 
ATOM      3  C   UNL     1      48.344   6.900  14.427  0.00  0.00    +0.000 A 
ATOM      4  C   UNL     1      48.994   7.681  13.477  0.00  0.00    +0.000 A 
ATOM      5  N   UNL     1      50.281   8.086  13.627  0.00  0.00    +0.000 NA
ATOM      6  C   UNL     1      50.913   7.745  14.772  0.00  0.00    +0.000 A 
ENDROOT
BRANCH   1   7
ATOM      7  C   UNL     1      51.062   6.743  17.074  0.00  0.00    +0.000 C 
BRANCH   7  10
ATOM      8  O   UNL     1      49.884   4.598  18.281  0.00  0.00    +0.000 OA
ATOM      9  C   UNL     1      50.981   4.404  17.762  0.00  0.00    +0.000 C 
ATOM     10  N   UNL     1      51.652   5.429  17.125  0.00  0.00    +0.000 N 
ATOM     11  H   UNL     1      52.540   5.247  16.672  0.00  0.00    +0.000 HD
BRANCH   9  12
ATOM     12  C   UNL     1      51.629   3.111  17.789  0.00  0.00    +0.000 A 
ATOM     13  C   UNL     1      51.097   1.913  17.349  0.00  0.00    +0.000 A 
ATOM     14  N   UNL     1      51.900   0.800  17.496  0.00  0.00    +0.000 NA
ATOM     15  C   UNL     1      53.035   1.162  18.051  0.00  0.00    +0.000 A 
ATOM     16  S   UNL     1      53.203   2.833  18.407  0.00  0.00    +0.000 S 
ENDBRANCH   9  12
ENDBRANCH   7  10
ENDBRANCH   1   7
BRANCH   4  17
ATOM     17  C   UNL     1      48.278   8.103  12.217  0.00  0.00    +0.000 C 
BRANCH  17  18
ATOM     18  N   UNL     1      47.564   7.009  11.604  0.00  0.00    +0.000 N 
ATOM     19  C   UNL     1      46.200   6.898  11.649  0.00  0.00    +0.000 C 
ATOM     20  O   UNL     1      45.498   7.733  12.213  0.00  0.00    +0.000 OA
ATOM     21  H   UNL     1      48.132   6.210  11.336  0.00  0.00    +0.000 HD
BRANCH  19  22
ATOM     22  C   UNL     1      45.612   5.760  10.930  0.00  0.00    +0.000 A 
ATOM     23  C   UNL     1      45.787   5.655   9.557  0.00  0.00    +0.000 A 
ATOM     24  S   UNL     1      45.076   4.261   8.880  0.00  0.00    +0.000 S 
ATOM     25  C   UNL     1      44.470   3.769  10.392  0.00  0.00    +0.000 A 
ATOM     26  N   UNL     1      43.726   2.637  10.510  0.00  0.00    +0.000 NA
ATOM     27  C   UNL     1      43.305   2.398  11.707  0.00  0.00    +0.000 A 
ATOM     28  N   UNL     1      43.569   3.185  12.799  0.00  0.00    +0.000 N 
ATOM     29  C   UNL     1      44.356   4.309  12.735  0.00  0.00    +0.000 A 
ATOM     30  O   UNL     1      44.638   4.945  13.744  0.00  0.00    +0.000 OA
ATOM     31  C   UNL     1      44.829   4.642  11.404  0.00  0.00    +0.000 A 
ATOM     32  H   UNL     1      43.229   2.932  13.715  0.00  0.00    +0.000 HD
ENDBRANCH  19  22
ENDBRANCH  17  18
ENDBRANCH   4  17
TORSDOF 6
ENDMDL
MODEL 8
REMARK VINA RESULT:    -6.560      1.901      2.098
REMARK INTER + INTRA:          -9.844
REMARK INTER:                  -9.124
REMARK INTRA:                  -0.719
REMARK UNBOUND:                -0.983
REMARK  Name = 
REMARK  6 active torsions:
REMARK  status: ('A' for Active; 'I' for Inactive)
REMARK    1  A    between atoms: C_2  and  C_25
REMARK    2  A    between atoms: N_3  and  C_4
REMARK    3  A    between atoms: C_4  and  C_5
REMARK    4  A    between atoms: C_8  and  C_9
REMARK    5  A    between atoms: C_9  and  N_10
REMARK    6  A    between atoms: C_11  and  C_13
REMARK                            x       y       z     vdW  Elec       q    Type
REMARK                         _______ _______ _______ _____ _____    ______ ____
ROOT
ATOM      1  C   UNL     1      45.008   5.605  11.421  0.00  0.00    +0.000 A 
ATOM      2  C   UNL     1      45.873   4.950  12.301  0.00  0.00    +0.000 A 
ATOM      3  C   UNL     1      46.780   5.688  13.058  0.00  0.00    +0.000 A 
ATOM      4  C   UNL     1      46.805   7.071  12.916  0.00  0.00    +0.000 A 
ATOM      5  N   UNL     1      45.944   7.733  12.102  0.00  0.00    +0.000 NA
ATOM      6  C   UNL     1      45.072   6.993  11.381  0.00  0.00    +0.000 A 
ENDROOT
BRANCH   1   7
ATOM      7  C   UNL     1      44.074   4.848  10.530  0.00  0.00    +0.000 C 
BRANCH   7  10
ATOM      8  O   UNL     1      45.782   5.337   8.458  0.00  0.00    +0.000 OA
ATOM      9  C   UNL     1      45.575   4.158   8.735  0.00  0.00    +0.000 C 
ATOM     10  N   UNL     1      44.728   3.813   9.770  0.00  0.00    +0.000 N 
ATOM     11  H   UNL     1      44.594   2.837  10.009  0.00  0.00    +0.000 HD
BRANCH   9  12
ATOM     12  C   UNL     1      46.193   3.074   8.002  0.00  0.00    +0.000 A 
ATOM     13  C   UNL     1      47.046   3.192   6.920  0.00  0.00    +0.000 A 
ATOM     14  N   UNL     1      47.497   2.009   6.369  0.00  0.00    +0.000 NA
ATOM     15  C   UNL     1      46.979   1.001   7.036  0.00  0.00    +0.000 A 
ATOM     16  S   UNL     1      45.950   1.413   8.348  0.00  0.00    +0.000 S 
ENDBRANCH   9  12
ENDBRANCH   7  10
ENDBRANCH   1   7
BRANCH   4  17
ATOM     17  C   UNL     1      47.807   7.899  13.684  0.00  0.00    +0.000 C 
BRANCH  17  18
ATOM     18  N   UNL     1      47.835   7.555  15.086  0.00  0.00    +0.000 N 
ATOM     19  C   UNL     1      48.768   8.059  15.952  0.00  0.00    +0.000 C 
ATOM     20  O   UNL     1      49.639   8.843  15.586  0.00  0.00    +0.000 OA
ATOM     21  H   UNL     1      47.274   6.750  15.352  0.00  0.00    +0.000 HD
BRANCH  19  22
ATOM     22  C   UNL     1      48.635   7.663  17.360  0.00  0.00    +0.000 A 
ATOM     23  C   UNL     1      48.445   8.639  18.330  0.00  0.00    +0.000 A 
ATOM     24  S   UNL     1      48.272   8.014  19.906  0.00  0.00    +0.000 S 
ATOM     25  C   UNL     1      48.486   6.418  19.357  0.00  0.00    +0.000 A 
ATOM     26  N   UNL     1      48.476   5.373  20.228  0.00  0.00    +0.000 NA
ATOM     27  C   UNL     1      48.681   4.222  19.681  0.00  0.00    +0.000 A 
ATOM     28  N   UNL     1      48.885   4.020  18.341  0.00  0.00    +0.000 N 
ATOM     29  C   UNL     1      48.855   5.039  17.419  0.00  0.00    +0.000 A 
ATOM     30  O   UNL     1      48.961   4.813  16.219  0.00  0.00    +0.000 OA
ATOM     31  C   UNL     1      48.661   6.360  17.985  0.00  0.00    +0.000 A 
ATOM     32  H   UNL     1      49.018   3.090  17.970  0.00  0.00    +0.000 HD
ENDBRANCH  19  22
ENDBRANCH  17  18
ENDBRANCH   4  17
TORSDOF 6
ENDMDL
MODEL 9
REMARK VINA RESULT:    -6.509      3.523      5.562
REMARK INTER + INTRA:          -9.775
REMARK INTER:                  -9.047
REMARK INTRA:                  -0.728
REMARK UNBOUND:                -0.983
REMARK  Name = 
REMARK  6 active torsions:
REMARK  status: ('A' for Active; 'I' for Inactive)
REMARK    1  A    between atoms: C_2  and  C_25
REMARK    2  A    between atoms: N_3  and  C_4
REMARK    3  A    between atoms: C_4  and  C_5
REMARK    4  A    between atoms: C_8  and  C_9
REMARK    5  A    between atoms: C_9  and  N_10
REMARK    6  A    between atoms: C_11  and  C_13
REMARK                            x       y       z     vdW  Elec       q    Type
REMARK                         _______ _______ _______ _____ _____    ______ ____
ROOT
ATOM      1  C   UNL     1      47.649   5.794  14.630  0.00  0.00    +0.000 A 
ATOM      2  C   UNL     1      46.966   4.578  14.700  0.00  0.00    +0.000 A 
ATOM      3  C   UNL     1      47.147   3.744  15.801  0.00  0.00    +0.000 A 
ATOM      4  C   UNL     1      48.014   4.145  16.812  0.00  0.00    +0.000 A 
ATOM      5  N   UNL     1      48.653   5.342  16.789  0.00  0.00    +0.000 NA
ATOM      6  C   UNL     1      48.457   6.133  15.709  0.00  0.00    +0.000 A 
ENDROOT
BRANCH   1   7
ATOM      7  C   UNL     1      47.548   6.683  13.430  0.00  0.00    +0.000 C 
BRANCH   7  10
ATOM      8  O   UNL     1      44.997   6.810  12.468  0.00  0.00    +0.000 OA
ATOM      9  C   UNL     1      45.791   6.114  11.837  0.00  0.00    +0.000 C 
ATOM     10  N   UNL     1      47.104   5.992  12.247  0.00  0.00    +0.000 N 
ATOM     11  H   UNL     1      47.755   5.443  11.698  0.00  0.00    +0.000 HD
BRANCH   9  12
ATOM     12  C   UNL     1      45.403   5.388  10.648  0.00  0.00    +0.000 A 
ATOM     13  C   UNL     1      45.998   5.469   9.402  0.00  0.00    +0.000 A 
ATOM     14  N   UNL     1      45.437   4.692   8.408  0.00  0.00    +0.000 NA
ATOM     15  C   UNL     1      44.418   4.029   8.907  0.00  0.00    +0.000 A 
ATOM     16  S   UNL     1      44.091   4.288  10.572  0.00  0.00    +0.000 S 
ENDBRANCH   9  12
ENDBRANCH   7  10
ENDBRANCH   1   7
BRANCH   4  17
ATOM     17  C   UNL     1      48.271   3.246  17.998  0.00  0.00    +0.000 C 
BRANCH  17  18
ATOM     18  N   UNL     1      49.675   2.959  18.169  0.00  0.00    +0.000 N 
ATOM     19  C   UNL     1      50.391   2.211  17.274  0.00  0.00    +0.000 C 
ATOM     20  O   UNL     1      49.879   1.741  16.262  0.00  0.00    +0.000 OA
ATOM     21  H   UNL     1      50.051   3.145  19.095  0.00  0.00    +0.000 HD
BRANCH  19  22
ATOM     22  C   UNL     1      51.825   2.053  17.553  0.00  0.00    +0.000 A 
ATOM     23  C   UNL     1      52.361   0.778  17.674  0.00  0.00    +0.000 A 
ATOM     24  S   UNL     1      54.042   0.765  17.960  0.00  0.00    +0.000 S 
ATOM     25  C   UNL     1      54.107   2.465  17.976  0.00  0.00    +0.000 A 
ATOM     26  N   UNL     1      55.280   3.116  18.203  0.00  0.00    +0.000 NA
ATOM     27  C   UNL     1      55.180   4.403  18.218  0.00  0.00    +0.000 A 
ATOM     28  N   UNL     1      54.016   5.099  18.017  0.00  0.00    +0.000 N 
ATOM     29  C   UNL     1      52.820   4.485  17.735  0.00  0.00    +0.000 A 
ATOM     30  O   UNL     1      51.815   5.139  17.481  0.00  0.00    +0.000 OA
ATOM     31  C   UNL     1      52.868   3.035  17.739  0.00  0.00    +0.000 A 
ATOM     32  H   UNL     1      54.008   6.108  18.019  0.00  0.00    +0.000 HD
ENDBRANCH  19  22
ENDBRANCH  17  18
ENDBRANCH   4  17
TORSDOF 6
ENDMDL
