MODEL 1
REMARK VINA RESULT:    -8.332      0.000      0.000
REMARK INTER + INTRA:         -11.867
REMARK INTER:                 -11.011
REMARK INTRA:                  -0.856
REMARK UNBOUND:                -0.856
REMARK  Name = 
REMARK  6 active torsions:
REMARK  status: ('A' for Active; 'I' for Inactive)
REMARK    1  A    between atoms: C_2  and  C_19
REMARK    2  A    between atoms: N_3  and  C_4
REMARK    3  A    between atoms: C_4  and  C_5
REMARK    4  A    between atoms: C_8  and  C_9
REMARK    5  A    between atoms: C_9  and  O_10
REMARK    6  A    between atoms: C_9  and  C_11
REMARK                            x       y       z     vdW  Elec       q    Type
REMARK                         _______ _______ _______ _____ _____    ______ ____
ROOT
ATOM      1  C   UNL     1      46.781   8.383  13.171  0.00  0.00    +0.000 C 
ENDROOT
BRANCH   1   2
ATOM      2  C   UNL     1      46.119   7.252  12.415  0.00  0.00    +0.000 A 
ATOM      3  N   UNL     1      44.880   6.883  12.789  0.00  0.00    +0.000 NA
ATOM      4  C   UNL     1      44.277   5.945  12.035  0.00  0.00    +0.000 A 
ATOM      5  C   UNL     1      44.852   5.374  10.919  0.00  0.00    +0.000 A 
ATOM      6  C   UNL     1      46.162   5.744  10.690  0.00  0.00    +0.000 A 
ATOM      7  N   UNL     1      46.818   6.670  11.418  0.00  0.00    +0.000 NA
BRANCH   5   8
ATOM      8  C   UNL     1      44.080   4.473  10.001  0.00  0.00    +0.000 C 
BRANCH   8   9
ATOM      9  C   UNL     1      44.920   3.630   9.040  0.00  0.00    +0.000 A 
ATOM     10  C   UNL     1      45.598   4.241   7.970  0.00  0.00    +0.000 A 
ATOM     11  C   UNL     1      46.423   3.502   7.120  0.00  0.00    +0.000 A 
ATOM     12  C   UNL     1      46.609   2.140   7.336  0.00  0.00    +0.000 A 
ATOM     13  C   UNL     1      45.967   1.515   8.401  0.00  0.00    +0.000 A 
ATOM     14  C   UNL     1      45.136   2.253   9.248  0.00  0.00    +0.000 A 
ENDBRANCH   8   9
BRANCH   8  15
ATOM     15  O   UNL     1      43.235   3.682  10.837  0.00  0.00    +0.000 OA
ATOM     16  H   UNL     1      43.613   2.790  10.889  0.00  0.00    +0.000 HD
ENDBRANCH   8  15
ENDBRANCH   5   8
ENDBRANCH   1   2
BRANCH   1  19
ATOM     17  O   UNL     1      49.306   7.202  13.647  0.00  0.00    +0.000 OA
ATOM     18  C   UNL     1      48.506   7.332  14.565  0.00  0.00    +0.000 C 
ATOM     19  N   UNL     1      47.288   7.950  14.454  0.00  0.00    +0.000 N 
ATOM     20  H   UNL     1      46.586   7.766  15.153  0.00  0.00    +0.000 HD
BRANCH  18  21
ATOM     21  C   UNL     1      48.632   6.660  15.848  0.00  0.00    +0.000 A 
ATOM     22  C   UNL     1      49.276   7.236  16.928  0.00  0.00    +0.000 A 
ATOM     23  S   UNL     1      49.779   6.052  18.061  0.00  0.00    +0.000 S 
ATOM     24  C   UNL     1      48.998   4.806  17.200  0.00  0.00    +0.000 A 
ATOM     25  N   UNL     1      49.137   3.494  17.520  0.00  0.00    +0.000 NA
ATOM     26  C   UNL     1      48.427   2.692  16.794  0.00  0.00    +0.000 A 
ATOM     27  N   UNL     1      47.561   3.084  15.802  0.00  0.00    +0.000 N 
ATOM     28  C   UNL     1      47.389   4.405  15.433  0.00  0.00    +0.000 A 
ATOM     29  O   UNL     1      46.555   4.742  14.603  0.00  0.00    +0.000 OA
ATOM     30  C   UNL     1      48.253   5.306  16.143  0.00  0.00    +0.000 A 
ATOM     31  H   UNL     1      46.963   2.414  15.337  0.00  0.00    +0.000 HD
ENDBRANCH  18  21
ENDBRANCH   1  19
TORSDOF 6
ENDMDL
MODEL 2
REMARK VINA RESULT:    -8.008      2.408      3.122
REMARK INTER + INTRA:         -11.439
REMARK INTER:                 -10.843
REMARK INTRA:                  -0.596
REMARK UNBOUND:                -0.856
REMARK  Name = 
REMARK  6 active torsions:
REMARK  status: ('A' for Active; 'I' for Inactive)
REMARK    1  A    between atoms: C_2  and  C_19
REMARK    2  A    between atoms: N_3  and  C_4
REMARK    3  A    between atoms: C_4  and  C_5
REMARK    4  A    between atoms: C_8  and  C_9
REMARK    5  A    between atoms: C_9  and  O_10
REMARK    6  A    between atoms: C_9  and  C_11
REMARK                            x       y       z     vdW  Elec       q    Type
REMARK                         _______ _______ _______ _____ _____    ______ ____
ROOT
ATOM      1  C   UNL     1      46.892   4.232  14.926  0.00  0.00    +0.000 C 
ENDROOT
BRANCH   1   2
ATOM      2  C   UNL     1      46.255   4.454  13.573  0.00  0.00    +0.000 A 
ATOM      3  N   UNL     1      46.689   5.490  12.833  0.00  0.00    +0.000 NA
ATOM      4  C   UNL     1      46.176   5.603  11.593  0.00  0.00    +0.000 A 
ATOM      5  C   UNL     1      45.264   4.717  11.058  0.00  0.00    +0.000 A 
ATOM      6  C   UNL     1      44.808   3.756  11.939  0.00  0.00    +0.000 A 
ATOM      7  N   UNL     1      45.277   3.604  13.194  0.00  0.00    +0.000 NA
BRANCH   5   8
ATOM      8  C   UNL     1      44.860   4.768   9.615  0.00  0.00    +0.000 C 
BRANCH   8   9
ATOM      9  C   UNL     1      45.530   3.739   8.702  0.00  0.00    +0.000 A 
ATOM     10  C   UNL     1      46.353   4.164   7.644  0.00  0.00    +0.000 A 
ATOM     11  C   UNL     1      47.028   3.243   6.839  0.00  0.00    +0.000 A 
ATOM     12  C   UNL     1      46.915   1.879   7.091  0.00  0.00    +0.000 A 
ATOM     13  C   UNL     1      46.124   1.435   8.145  0.00  0.00    +0.000 A 
ATOM     14  C   UNL     1      45.443   2.355   8.947  0.00  0.00    +0.000 A 
ENDBRANCH   8   9
BRANCH   8  15
ATOM     15  O   UNL     1      43.435   4.678   9.598  0.00  0.00    +0.000 OA
ATOM     16  H   UNL     1      43.097   5.356   8.993  0.00  0.00    +0.000 HD
ENDBRANCH   8  15
ENDBRANCH   5   8
ENDBRANCH   1   2
BRANCH   1  19
ATOM     17  O   UNL     1      49.152   4.432  16.615  0.00  0.00    +0.000 OA
ATOM     18  C   UNL     1      48.507   5.433  16.332  0.00  0.00    +0.000 C 
ATOM     19  N   UNL     1      47.440   5.454  15.471  0.00  0.00    +0.000 N 
ATOM     20  H   UNL     1      46.800   6.230  15.513  0.00  0.00    +0.000 HD
BRANCH  18  21
ATOM     21  C   UNL     1      48.634   6.702  17.031  0.00  0.00    +0.000 A 
ATOM     22  C   UNL     1      49.312   7.781  16.493  0.00  0.00    +0.000 A 
ATOM     23  S   UNL     1      49.800   8.884  17.712  0.00  0.00    +0.000 S 
ATOM     24  C   UNL     1      48.968   8.014  18.919  0.00  0.00    +0.000 A 
ATOM     25  N   UNL     1      49.074   8.308  20.240  0.00  0.00    +0.000 NA
ATOM     26  C   UNL     1      48.328   7.580  21.008  0.00  0.00    +0.000 A 
ATOM     27  N   UNL     1      47.458   6.610  20.572  0.00  0.00    +0.000 N 
ATOM     28  C   UNL     1      47.319   6.268  19.240  0.00  0.00    +0.000 A 
ATOM     29  O   UNL     1      46.481   5.459  18.864  0.00  0.00    +0.000 OA
ATOM     30  C   UNL     1      48.220   6.979  18.378  0.00  0.00    +0.000 A 
ATOM     31  H   UNL     1      46.833   6.144  21.216  0.00  0.00    +0.000 HD
ENDBRANCH  18  21
ENDBRANCH   1  19
TORSDOF 6
ENDMDL
MODEL 3
REMARK VINA RESULT:    -7.998      1.819      3.430
REMARK INTER + INTRA:         -11.426
REMARK INTER:                 -10.892
REMARK INTRA:                  -0.534
REMARK UNBOUND:                -0.856
REMARK  Name = 
REMARK  6 active torsions:
REMARK  status: ('A' for Active; 'I' for Inactive)
REMARK    1  A    between atoms: C_2  and  C_19
REMARK    2  A    between atoms: N_3  and  C_4
REMARK    3  A    between atoms: C_4  and  C_5
REMARK    4  A    between atoms: C_8  and  C_9
REMARK    5  A    between atoms: C_9  and  O_10
REMARK    6  A    between atoms: C_9  and  C_11
REMARK                            x       y       z     vdW  Elec       q    Type
REMARK                         _______ _______ _______ _____ _____    ______ ____
ROOT
ATOM      1  C   UNL     1      46.616   4.457  14.639  0.00  0.00    +0.000 C 
ENDROOT
BRANCH   1   2
ATOM      2  C   UNL     1      46.068   4.549  13.232  0.00  0.00    +0.000 A 
ATOM      3  N   UNL     1      46.393   5.629  12.497  0.00  0.00    +0.000 NA
ATOM      4  C   UNL     1      45.975   5.635  11.218  0.00  0.00    +0.000 A 
ATOM      5  C   UNL     1      45.265   4.605  10.639  0.00  0.00    +0.000 A 
ATOM      6  C   UNL     1      44.894   3.598  11.509  0.00  0.00    +0.000 A 
ATOM      7  N   UNL     1      45.274   3.546  12.801  0.00  0.00    +0.000 NA
BRANCH   5   8
ATOM      8  C   UNL     1      44.981   4.564   9.167  0.00  0.00    +0.000 C 
BRANCH   8   9
ATOM      9  C   UNL     1      45.701   3.465   8.383  0.00  0.00    +0.000 A 
ATOM     10  C   UNL     1      46.619   3.802   7.372  0.00  0.00    +0.000 A 
ATOM     11  C   UNL     1      47.336   2.818   6.688  0.00  0.00    +0.000 A 
ATOM     12  C   UNL     1      47.172   1.476   7.019  0.00  0.00    +0.000 A 
ATOM     13  C   UNL     1      46.287   1.118   8.031  0.00  0.00    +0.000 A 
ATOM     14  C   UNL     1      45.562   2.102   8.710  0.00  0.00    +0.000 A 
ENDBRANCH   8   9
BRANCH   8  15
ATOM     15  O   UNL     1      43.562   4.497   9.037  0.00  0.00    +0.000 OA
ATOM     16  H   UNL     1      43.175   4.534   9.926  0.00  0.00    +0.000 HD
ENDBRANCH   8  15
ENDBRANCH   5   8
ENDBRANCH   1   2
BRANCH   1  19
ATOM     17  O   UNL     1      48.706   4.480  16.543  0.00  0.00    +0.000 OA
ATOM     18  C   UNL     1      48.403   5.508  15.952  0.00  0.00    +0.000 C 
ATOM     19  N   UNL     1      47.454   5.588  14.966  0.00  0.00    +0.000 N 
ATOM     20  H   UNL     1      47.066   6.490  14.740  0.00  0.00    +0.000 HD
BRANCH  18  21
ATOM     21  C   UNL     1      48.842   6.833  16.358  0.00  0.00    +0.000 A 
ATOM     22  C   UNL     1      48.904   7.221  17.685  0.00  0.00    +0.000 A 
ATOM     23  S   UNL     1      48.877   8.928  17.840  0.00  0.00    +0.000 S 
ATOM     24  C   UNL     1      48.951   9.145  16.150  0.00  0.00    +0.000 A 
ATOM     25  N   UNL     1      48.815  10.360  15.560  0.00  0.00    +0.000 NA
ATOM     26  C   UNL     1      48.955  10.343  14.274  0.00  0.00    +0.000 A 
ATOM     27  N   UNL     1      49.257   9.230  13.527  0.00  0.00    +0.000 N 
ATOM     28  C   UNL     1      49.399   7.971  14.079  0.00  0.00    +0.000 A 
ATOM     29  O   UNL     1      49.747   7.007  13.410  0.00  0.00    +0.000 OA
ATOM     30  C   UNL     1      49.132   7.940  15.489  0.00  0.00    +0.000 A 
ATOM     31  H   UNL     1      49.449   9.303  12.537  0.00  0.00    +0.000 HD
ENDBRANCH  18  21
ENDBRANCH   1  19
TORSDOF 6
ENDMDL
MODEL 4
REMARK VINA RESULT:    -7.765      2.093      3.274
REMARK INTER + INTRA:         -11.117
REMARK INTER:                 -10.322
REMARK INTRA:                  -0.795
REMARK UNBOUND:                -0.856
REMARK  Name = 
REMARK  6 active torsions:
REMARK  status: ('A' for Active; 'I' for Inactive)
REMARK    1  A    between atoms: C_2  and  C_19
REMARK    2  A    between atoms: N_3  and  C_4
REMARK    3  A    between atoms: C_4  and  C_5
REMARK    4  A    between atoms: C_8  and  C_9
REMARK    5  A    between atoms: C_9  and  O_10
REMARK    6  A    between atoms: C_9  and  C_11
REMARK                            x       y       z     vdW  Elec       q    Type
REMARK                         _______ _______ _______ _____ _____    ______ ____
ROOT
ATOM      1  C   UNL     1      46.204   4.772  14.715  0.00  0.00    +0.000 C 
ENDROOT
BRANCH   1   2
ATOM      2  C   UNL     1      45.946   4.501  13.249  0.00  0.00    +0.000 A 
ATOM      3  N   UNL     1      45.553   3.263  12.896  0.00  0.00    +0.000 NA
ATOM      4  C   UNL     1      45.234   3.078  11.602  0.00  0.00    +0.000 A 
ATOM      5  C   UNL     1      45.275   4.078  10.653  0.00  0.00    +0.000 A 
ATOM      6  C   UNL     1      45.794   5.278  11.099  0.00  0.00    +0.000 A 
ATOM      7  N   UNL     1      46.139   5.515  12.381  0.00  0.00    +0.000 NA
BRANCH   5   8
ATOM      8  C   UNL     1      44.736   3.881   9.268  0.00  0.00    +0.000 C 
BRANCH   8   9
ATOM      9  C   UNL     1      45.653   3.132   8.299  0.00  0.00    +0.000 A 
ATOM     10  C   UNL     1      45.923   1.766   8.495  0.00  0.00    +0.000 A 
ATOM     11  C   UNL     1      46.704   1.045   7.588  0.00  0.00    +0.000 A 
ATOM     12  C   UNL     1      47.208   1.669   6.450  0.00  0.00    +0.000 A 
ATOM     13  C   UNL     1      46.936   3.014   6.222  0.00  0.00    +0.000 A 
ATOM     14  C   UNL     1      46.161   3.737   7.133  0.00  0.00    +0.000 A 
ENDBRANCH   8   9
BRANCH   8  15
ATOM     15  O   UNL     1      43.463   3.253   9.422  0.00  0.00    +0.000 OA
ATOM     16  H   UNL     1      43.302   2.702   8.640  0.00  0.00    +0.000 HD
ENDBRANCH   8  15
ENDBRANCH   5   8
ENDBRANCH   1   2
BRANCH   1  19
ATOM     17  O   UNL     1      46.606   3.349  17.125  0.00  0.00    +0.000 OA
ATOM     18  C   UNL     1      47.550   3.571  16.379  0.00  0.00    +0.000 C 
ATOM     19  N   UNL     1      47.450   4.191  15.160  0.00  0.00    +0.000 N 
ATOM     20  H   UNL     1      48.280   4.588  14.750  0.00  0.00    +0.000 HD
BRANCH  18  21
ATOM     21  C   UNL     1      48.942   3.412  16.767  0.00  0.00    +0.000 A 
ATOM     22  C   UNL     1      49.600   2.197  16.693  0.00  0.00    +0.000 A 
ATOM     23  S   UNL     1      50.970   2.163  17.723  0.00  0.00    +0.000 S 
ATOM     24  C   UNL     1      50.781   3.808  18.131  0.00  0.00    +0.000 A 
ATOM     25  N   UNL     1      51.524   4.415  19.092  0.00  0.00    +0.000 NA
ATOM     26  C   UNL     1      51.285   5.679  19.228  0.00  0.00    +0.000 A 
ATOM     27  N   UNL     1      50.397   6.401  18.466  0.00  0.00    +0.000 N 
ATOM     28  C   UNL     1      49.614   5.828  17.482  0.00  0.00    +0.000 A 
ATOM     29  O   UNL     1      48.889   6.501  16.760  0.00  0.00    +0.000 OA
ATOM     30  C   UNL     1      49.774   4.405  17.389  0.00  0.00    +0.000 A 
ATOM     31  H   UNL     1      50.328   7.405  18.558  0.00  0.00    +0.000 HD
ENDBRANCH  18  21
ENDBRANCH   1  19
TORSDOF 6
ENDMDL
MODEL 5
REMARK VINA RESULT:    -7.692      3.051      4.084
REMARK INTER + INTRA:         -11.022
REMARK INTER:                 -10.304
REMARK INTRA:                  -0.718
REMARK UNBOUND:                -0.856
REMARK  Name = 
REMARK  6 active torsions:
REMARK  status: ('A' for Active; 'I' for Inactive)
REMARK    1  A    between atoms: C_2  and  C_19
REMARK    2  A    between atoms: N_3  and  C_4
REMARK    3  A    between atoms: C_4  and  C_5
REMARK    4  A    between atoms: C_8  and  C_9
REMARK    5  A    between atoms: C_9  and  O_10
REMARK    6  A    between atoms: C_9  and  C_11
REMARK                            x       y       z     vdW  Elec       q    Type
REMARK                         _______ _______ _______ _____ _____    ______ ____
ROOT
ATOM      1  C   UNL     1      45.945   6.763  12.922  0.00  0.00    +0.000 C 
ENDROOT
BRANCH   1   2
ATOM      2  C   UNL     1      45.449   5.773  11.892  0.00  0.00    +0.000 A 
ATOM      3  N   UNL     1      45.686   6.040  10.594  0.00  0.00    +0.000 NA
ATOM      4  C   UNL     1      45.323   5.095   9.708  0.00  0.00    +0.000 A 
ATOM      5  C   UNL     1      44.752   3.891  10.063  0.00  0.00    +0.000 A 
ATOM      6  C   UNL     1      44.455   3.766  11.406  0.00  0.00    +0.000 A 
ATOM      7  N   UNL     1      44.785   4.685  12.336  0.00  0.00    +0.000 NA
BRANCH   5   8
ATOM      8  C   UNL     1      44.535   2.790   9.068  0.00  0.00    +0.000 C 
BRANCH   8   9
ATOM      9  C   UNL     1      45.656   2.589   8.046  0.00  0.00    +0.000 A 
ATOM     10  C   UNL     1      46.455   1.433   8.092  0.00  0.00    +0.000 A 
ATOM     11  C   UNL     1      47.441   1.196   7.131  0.00  0.00    +0.000 A 
ATOM     12  C   UNL     1      47.630   2.097   6.088  0.00  0.00    +0.000 A 
ATOM     13  C   UNL     1      46.837   3.237   6.007  0.00  0.00    +0.000 A 
ATOM     14  C   UNL     1      45.856   3.479   6.973  0.00  0.00    +0.000 A 
ENDBRANCH   8   9
BRANCH   8  15
ATOM     15  O   UNL     1      44.264   1.614   9.830  0.00  0.00    +0.000 OA
ATOM     16  H   UNL     1      45.106   1.273  10.169  0.00  0.00    +0.000 HD
ENDBRANCH   8  15
ENDBRANCH   5   8
ENDBRANCH   1   2
BRANCH   1  19
ATOM     17  O   UNL     1      48.547   5.705  13.243  0.00  0.00    +0.000 OA
ATOM     18  C   UNL     1      48.393   6.823  12.769  0.00  0.00    +0.000 C 
ATOM     19  N   UNL     1      47.176   7.398  12.511  0.00  0.00    +0.000 N 
ATOM     20  H   UNL     1      47.128   8.398  12.400  0.00  0.00    +0.000 HD
BRANCH  18  21
ATOM     21  C   UNL     1      49.468   7.791  12.617  0.00  0.00    +0.000 A 
ATOM     22  C   UNL     1      50.257   7.852  11.482  0.00  0.00    +0.000 A 
ATOM     23  S   UNL     1      51.748   8.637  11.798  0.00  0.00    +0.000 S 
ATOM     24  C   UNL     1      51.271   9.037  13.385  0.00  0.00    +0.000 A 
ATOM     25  N   UNL     1      52.121   9.591  14.288  0.00  0.00    +0.000 NA
ATOM     26  C   UNL     1      51.573   9.881  15.424  0.00  0.00    +0.000 A 
ATOM     27  N   UNL     1      50.244   9.702  15.727  0.00  0.00    +0.000 N 
ATOM     28  C   UNL     1      49.342   9.137  14.847  0.00  0.00    +0.000 A 
ATOM     29  O   UNL     1      48.148   9.060  15.104  0.00  0.00    +0.000 OA
ATOM     30  C   UNL     1      49.948   8.698  13.621  0.00  0.00    +0.000 A 
ATOM     31  H   UNL     1      49.860  10.039  16.600  0.00  0.00    +0.000 HD
ENDBRANCH  18  21
ENDBRANCH   1  19
TORSDOF 6
ENDMDL
MODEL 6
REMARK VINA RESULT:    -7.453      3.485      4.567
REMARK INTER + INTRA:         -10.706
REMARK INTER:                  -9.913
REMARK INTRA:                  -0.793
REMARK UNBOUND:                -0.856
REMARK  Name = 
REMARK  6 active torsions:
REMARK  status: ('A' for Active; 'I' for Inactive)
REMARK    1  A    between atoms: C_2  and  C_19
REMARK    2  A    between atoms: N_3  and  C_4
REMARK    3  A    between atoms: C_4  and  C_5
REMARK    4  A    between atoms: C_8  and  C_9
REMARK    5  A    between atoms: C_9  and  O_10
REMARK    6  A    between atoms: C_9  and  C_11
REMARK                            x       y       z     vdW  Elec       q    Type
REMARK                         _______ _______ _______ _____ _____    ______ ____
ROOT
ATOM      1  C   UNL     1      45.271   7.949  12.764  0.00  0.00    +0.000 C 
ENDROOT
BRANCH   1   2
ATOM      2  C   UNL     1      44.902   6.642  12.098  0.00  0.00    +0.000 A 
ATOM      3  N   UNL     1      43.736   6.583  11.427  0.00  0.00    +0.000 NA
ATOM      4  C   UNL     1      43.482   5.442  10.761  0.00  0.00    +0.000 A 
ATOM      5  C   UNL     1      44.346   4.368  10.723  0.00  0.00    +0.000 A 
ATOM      6  C   UNL     1      45.460   4.494  11.531  0.00  0.00    +0.000 A 
ATOM      7  N   UNL     1      45.759   5.608  12.228  0.00  0.00    +0.000 NA
BRANCH   5   8
ATOM      8  C   UNL     1      44.114   3.192   9.822  0.00  0.00    +0.000 C 
BRANCH   8   9
ATOM      9  C   UNL     1      45.229   2.898   8.816  0.00  0.00    +0.000 A 
ATOM     10  C   UNL     1      45.717   1.587   8.665  0.00  0.00    +0.000 A 
ATOM     11  C   UNL     1      46.687   1.282   7.707  0.00  0.00    +0.000 A 
ATOM     12  C   UNL     1      47.170   2.276   6.861  0.00  0.00    +0.000 A 
ATOM     13  C   UNL     1      46.687   3.575   6.975  0.00  0.00    +0.000 A 
ATOM     14  C   UNL     1      45.722   3.883   7.938  0.00  0.00    +0.000 A 
ENDBRANCH   8   9
BRANCH   8  15
ATOM     15  O   UNL     1      43.835   2.084  10.677  0.00  0.00    +0.000 OA
ATOM     16  H   UNL     1      44.345   2.198  11.494  0.00  0.00    +0.000 HD
ENDBRANCH   8  15
ENDBRANCH   5   8
ENDBRANCH   1   2
BRANCH   1  19
ATOM     17  O   UNL     1      47.396   8.801  14.425  0.00  0.00    +0.000 OA
ATOM     18  C   UNL     1      47.496   8.884  13.208  0.00  0.00    +0.000 C 
ATOM     19  N   UNL     1      46.556   8.439  12.316  0.00  0.00    +0.000 N 
ATOM     20  H   UNL     1      46.575   8.795  11.374  0.00  0.00    +0.000 HD
BRANCH  18  21
ATOM     21  C   UNL     1      48.522   9.664  12.533  0.00  0.00    +0.000 A 
ATOM     22  C   UNL     1      48.239  10.840  11.863  0.00  0.00    +0.000 A 
ATOM     23  S   UNL     1      49.455  11.214  10.714  0.00  0.00    +0.000 S 
ATOM     24  C   UNL     1      50.427   9.910  11.226  0.00  0.00    +0.000 A 
ATOM     25  N   UNL     1      51.559   9.539  10.574  0.00  0.00    +0.000 NA
ATOM     26  C   UNL     1      52.199   8.566  11.137  0.00  0.00    +0.000 A 
ATOM     27  N   UNL     1      51.832   7.953  12.311  0.00  0.00    +0.000 N 
ATOM     28  C   UNL     1      50.686   8.289  13.007  0.00  0.00    +0.000 A 
ATOM     29  O   UNL     1      50.418   7.789  14.092  0.00  0.00    +0.000 OA
ATOM     30  C   UNL     1      49.895   9.287  12.344  0.00  0.00    +0.000 A 
ATOM     31  H   UNL     1      52.429   7.264  12.748  0.00  0.00    +0.000 HD
ENDBRANCH  18  21
ENDBRANCH   1  19
TORSDOF 6
ENDMDL
MODEL 7
REMARK VINA RESULT:    -7.284      3.134      4.319
REMARK INTER + INTRA:         -10.482
REMARK INTER:                  -9.839
REMARK INTRA:                  -0.643
REMARK UNBOUND:                -0.856
REMARK  Name = 
REMARK  6 active torsions:
REMARK  status: ('A' for Active; 'I' for Inactive)
REMARK    1  A    between atoms: C_2  and  C_19
REMARK    2  A    between atoms: N_3  and  C_4
REMARK    3  A    between atoms: C_4  and  C_5
REMARK    4  A    between atoms: C_8  and  C_9
REMARK    5  A    between atoms: C_9  and  O_10
REMARK    6  A    between atoms: C_9  and  C_11
REMARK                            x       y       z     vdW  Elec       q    Type
REMARK                         _______ _______ _______ _____ _____    ______ ____
ROOT
ATOM      1  C   UNL     1      47.291   5.588  14.223  0.00  0.00    +0.000 C 
ENDROOT
BRANCH   1   2
ATOM      2  C   UNL     1      46.405   4.954  13.173  0.00  0.00    +0.000 A 
ATOM      3  N   UNL     1      45.956   5.734  12.172  0.00  0.00    +0.000 NA
ATOM      4  C   UNL     1      45.254   5.122  11.200  0.00  0.00    +0.000 A 
ATOM      5  C   UNL     1      44.999   3.767  11.177  0.00  0.00    +0.000 A 
ATOM      6  C   UNL     1      45.412   3.082  12.303  0.00  0.00    +0.000 A 
ATOM      7  N   UNL     1      46.107   3.645  13.311  0.00  0.00    +0.000 NA
BRANCH   5   8
ATOM      8  C   UNL     1      44.379   3.095   9.988  0.00  0.00    +0.000 C 
BRANCH   8   9
ATOM      9  C   UNL     1      45.320   2.829   8.811  0.00  0.00    +0.000 A 
ATOM     10  C   UNL     1      45.776   3.896   8.016  0.00  0.00    +0.000 A 
ATOM     11  C   UNL     1      46.687   3.686   6.978  0.00  0.00    +0.000 A 
ATOM     12  C   UNL     1      47.182   2.409   6.730  0.00  0.00    +0.000 A 
ATOM     13  C   UNL     1      46.763   1.341   7.517  0.00  0.00    +0.000 A 
ATOM     14  C   UNL     1      45.846   1.549   8.551  0.00  0.00    +0.000 A 
ENDBRANCH   8   9
BRANCH   8  15
ATOM     15  O   UNL     1      43.760   1.907  10.481  0.00  0.00    +0.000 OA
ATOM     16  H   UNL     1      43.263   2.136  11.282  0.00  0.00    +0.000 HD
ENDBRANCH   8  15
ENDBRANCH   5   8
ENDBRANCH   1   2
BRANCH   1  19
ATOM     17  O   UNL     1      48.790   7.603  15.523  0.00  0.00    +0.000 OA
ATOM     18  C   UNL     1      48.974   7.371  14.336  0.00  0.00    +0.000 C 
ATOM     19  N   UNL     1      48.351   6.373  13.631  0.00  0.00    +0.000 N 
ATOM     20  H   UNL     1      48.334   6.429  12.626  0.00  0.00    +0.000 HD
BRANCH  18  21
ATOM     21  C   UNL     1      49.711   8.252  13.444  0.00  0.00    +0.000 A 
ATOM     22  C   UNL     1      49.091   8.998  12.458  0.00  0.00    +0.000 A 
ATOM     23  S   UNL     1      50.197   9.458  11.232  0.00  0.00    +0.000 S 
ATOM     24  C   UNL     1      51.518   8.811  12.095  0.00  0.00    +0.000 A 
ATOM     25  N   UNL     1      52.766   8.722  11.568  0.00  0.00    +0.000 NA
ATOM     26  C   UNL     1      53.655   8.258  12.385  0.00  0.00    +0.000 A 
ATOM     27  N   UNL     1      53.419   7.911  13.694  0.00  0.00    +0.000 N 
ATOM     28  C   UNL     1      52.168   7.977  14.275  0.00  0.00    +0.000 A 
ATOM     29  O   UNL     1      51.992   7.740  15.463  0.00  0.00    +0.000 OA
ATOM     30  C   UNL     1      51.139   8.377  13.356  0.00  0.00    +0.000 A 
ATOM     31  H   UNL     1      54.179   7.646  14.307  0.00  0.00    +0.000 HD
ENDBRANCH  18  21
ENDBRANCH   1  19
TORSDOF 6
ENDMDL
MODEL 8
REMARK VINA RESULT:    -7.228      1.619      2.164
REMARK INTER + INTRA:         -10.409
REMARK INTER:                  -9.537
REMARK INTRA:                  -0.871
REMARK UNBOUND:                -0.856
REMARK  Name = 
REMARK  6 active torsions:
REMARK  status: ('A' for Active; 'I' for Inactive)
REMARK    1  A    between atoms: C_2  and  C_19
REMARK    2  A    between atoms: N_3  and  C_4
REMARK    3  A    between atoms: C_4  and  C_5
REMARK    4  A    between atoms: C_8  and  C_9
REMARK    5  A    between atoms: C_9  and  O_10
REMARK    6  A    between atoms: C_9  and  C_11
REMARK                            x       y       z     vdW  Elec       q    Type
REMARK                         _______ _______ _______ _____ _____    ______ ____
ROOT
ATOM      1  C   UNL     1      48.187   7.824  14.566  0.00  0.00    +0.000 C 
ENDROOT
BRANCH   1   2
ATOM      2  C   UNL     1      47.265   7.239  13.518  0.00  0.00    +0.000 A 
ATOM      3  N   UNL     1      47.339   5.917  13.280  0.00  0.00    +0.000 NA
ATOM      4  C   UNL     1      46.439   5.409  12.418  0.00  0.00    +0.000 A 
ATOM      5  C   UNL     1      45.462   6.160  11.799  0.00  0.00    +0.000 A 
ATOM      6  C   UNL     1      45.545   7.519  12.031  0.00  0.00    +0.000 A 
ATOM      7  N   UNL     1      46.432   8.084  12.875  0.00  0.00    +0.000 NA
BRANCH   5   8
ATOM      8  C   UNL     1      44.365   5.530  10.994  0.00  0.00    +0.000 C 
BRANCH   8   9
ATOM      9  C   UNL     1      44.807   4.458   9.995  0.00  0.00    +0.000 A 
ATOM     10  C   UNL     1      44.349   3.135  10.130  0.00  0.00    +0.000 A 
ATOM     11  C   UNL     1      44.686   2.155   9.193  0.00  0.00    +0.000 A 
ATOM     12  C   UNL     1      45.465   2.483   8.088  0.00  0.00    +0.000 A 
ATOM     13  C   UNL     1      45.912   3.790   7.920  0.00  0.00    +0.000 A 
ATOM     14  C   UNL     1      45.581   4.769   8.861  0.00  0.00    +0.000 A 
ENDBRANCH   8   9
BRANCH   8  15
ATOM     15  O   UNL     1      43.408   5.046  11.936  0.00  0.00    +0.000 OA
ATOM     16  H   UNL     1      43.298   5.719  12.626  0.00  0.00    +0.000 HD
ENDBRANCH   8  15
ENDBRANCH   5   8
ENDBRANCH   1   2
BRANCH   1  19
ATOM     17  O   UNL     1      48.476   8.171  17.357  0.00  0.00    +0.000 OA
ATOM     18  C   UNL     1      48.803   7.115  16.833  0.00  0.00    +0.000 C 
ATOM     19  N   UNL     1      48.641   6.822  15.504  0.00  0.00    +0.000 N 
ATOM     20  H   UNL     1      49.183   6.074  15.104  0.00  0.00    +0.000 HD
BRANCH  18  21
ATOM     21  C   UNL     1      49.611   6.101  17.492  0.00  0.00    +0.000 A 
ATOM     22  C   UNL     1      50.776   6.407  18.172  0.00  0.00    +0.000 A 
ATOM     23  S   UNL     1      51.790   5.033  18.327  0.00  0.00    +0.000 S 
ATOM     24  C   UNL     1      50.611   4.009  17.644  0.00  0.00    +0.000 A 
ATOM     25  N   UNL     1      50.858   2.711  17.333  0.00  0.00    +0.000 NA
ATOM     26  C   UNL     1      49.831   2.070  16.876  0.00  0.00    +0.000 A 
ATOM     27  N   UNL     1      48.569   2.598  16.736  0.00  0.00    +0.000 N 
ATOM     28  C   UNL     1      48.269   3.914  17.031  0.00  0.00    +0.000 A 
ATOM     29  O   UNL     1      47.124   4.344  16.976  0.00  0.00    +0.000 OA
ATOM     30  C   UNL     1      49.416   4.680  17.429  0.00  0.00    +0.000 A 
ATOM     31  H   UNL     1      47.789   2.016  16.464  0.00  0.00    +0.000 HD
ENDBRANCH  18  21
ENDBRANCH   1  19
TORSDOF 6
ENDMDL
MODEL 9
REMARK VINA RESULT:    -6.882      3.585      8.388
REMARK INTER + INTRA:          -9.951
REMARK INTER:                  -9.026
REMARK INTRA:                  -0.925
REMARK UNBOUND:                -0.856
REMARK  Name = 
REMARK  6 active torsions:
REMARK  status: ('A' for Active; 'I' for Inactive)
REMARK    1  A    between atoms: C_2  and  C_19
REMARK    2  A    between atoms: N_3  and  C_4
REMARK    3  A    between atoms: C_4  and  C_5
REMARK    4  A    between atoms: C_8  and  C_9
REMARK    5  A    between atoms: C_9  and  O_10
REMARK    6  A    between atoms: C_9  and  C_11
REMARK                            x       y       z     vdW  Elec       q    Type
REMARK                         _______ _______ _______ _____ _____    ______ ____
ROOT
ATOM      1  C   UNL     1      47.236   4.047  16.661  0.00  0.00    +0.000 C 
ENDROOT
BRANCH   1   2
ATOM      2  C   UNL     1      48.635   4.593  16.839  0.00  0.00    +0.000 A 
ATOM      3  N   UNL     1      48.823   5.915  16.668  0.00  0.00    +0.000 NA
ATOM      4  C   UNL     1      50.055   6.388  16.931  0.00  0.00    +0.000 A 
ATOM      5  C   UNL     1      51.099   5.602  17.372  0.00  0.00    +0.000 A 
ATOM      6  C   UNL     1      50.827   4.248  17.409  0.00  0.00    +0.000 A 
ATOM      7  N   UNL     1      49.615   3.718  17.146  0.00  0.00    +0.000 NA
BRANCH   5   8
ATOM      8  C   UNL     1      52.399   6.191  17.832  0.00  0.00    +0.000 C 
BRANCH   8   9
ATOM      9  C   UNL     1      53.595   5.965  16.905  0.00  0.00    +0.000 A 
ATOM     10  C   UNL     1      54.545   4.973  17.206  0.00  0.00    +0.000 A 
ATOM     11  C   UNL     1      55.608   4.704  16.341  0.00  0.00    +0.000 A 
ATOM     12  C   UNL     1      55.730   5.402  15.144  0.00  0.00    +0.000 A 
ATOM     13  C   UNL     1      54.790   6.373  14.812  0.00  0.00    +0.000 A 
ATOM     14  C   UNL     1      53.730   6.648  15.680  0.00  0.00    +0.000 A 
ENDBRANCH   8   9
BRANCH   8  15
ATOM     15  O   UNL     1      52.143   7.574  18.077  0.00  0.00    +0.000 OA
ATOM     16  H   UNL     1      51.654   7.930  17.319  0.00  0.00    +0.000 HD
ENDBRANCH   8  15
ENDBRANCH   5   8
ENDBRANCH   1   2
BRANCH   1  19
ATOM     17  O   UNL     1      47.352   2.916  14.072  0.00  0.00    +0.000 OA
ATOM     18  C   UNL     1      46.769   3.977  14.253  0.00  0.00    +0.000 C 
ATOM     19  N   UNL     1      46.598   4.573  15.475  0.00  0.00    +0.000 N 
ATOM     20  H   UNL     1      46.373   5.554  15.508  0.00  0.00    +0.000 HD
BRANCH  18  21
ATOM     21  C   UNL     1      46.366   4.871  13.179  0.00  0.00    +0.000 A 
ATOM     22  C   UNL     1      47.124   5.964  12.799  0.00  0.00    +0.000 A 
ATOM     23  S   UNL     1      46.175   7.125  11.967  0.00  0.00    +0.000 S 
ATOM     24  C   UNL     1      44.811   6.102  11.969  0.00  0.00    +0.000 A 
ATOM     25  N   UNL     1      43.586   6.513  11.550  0.00  0.00    +0.000 NA
ATOM     26  C   UNL     1      42.682   5.587  11.568  0.00  0.00    +0.000 A 
ATOM     27  N   UNL     1      42.898   4.280  11.931  0.00  0.00    +0.000 N 
ATOM     28  C   UNL     1      44.123   3.815  12.371  0.00  0.00    +0.000 A 
ATOM     29  O   UNL     1      44.317   2.630  12.613  0.00  0.00    +0.000 OA
ATOM     30  C   UNL     1      45.115   4.847  12.473  0.00  0.00    +0.000 A 
ATOM     31  H   UNL     1      42.171   3.584  11.830  0.00  0.00    +0.000 HD
ENDBRANCH  18  21
ENDBRANCH   1  19
TORSDOF 6
ENDMDL
