MODEL 1
REMARK VINA RESULT:    -8.570      0.000      0.000
REMARK INTER + INTRA:         -13.284
REMARK INTER:                 -12.077
REMARK INTRA:                  -1.207
REMARK UNBOUND:                -1.207
REMARK  Name = 
REMARK  8 active torsions:
REMARK  status: ('A' for Active; 'I' for Inactive)
REMARK    1  A    between atoms: C_1  and  C_2
REMARK    2  A    between atoms: C_2  and  N_3
REMARK    3  A    between atoms: C_2  and  C_25
REMARK    4  A    between atoms: N_3  and  C_4
REMARK    5  A    between atoms: C_4  and  C_5
REMARK    6  A    between atoms: C_8  and  C_9
REMARK    7  A    between atoms: C_9  and  N_10
REMARK    8  A    between atoms: C_11  and  C_13
REMARK                            x       y       z     vdW  Elec       q    Type
REMARK                         _______ _______ _______ _____ _____    ______ ____
ROOT
ATOM      1  C   UNL     1      44.693   5.493  10.875  0.00  0.00    +0.000 A 
ATOM      2  C   UNL     1      45.980   5.835  10.465  0.00  0.00    +0.000 A 
ATOM      3  C   UNL     1      46.760   6.663  11.268  0.00  0.00    +0.000 A 
ATOM      4  C   UNL     1      46.239   7.119  12.479  0.00  0.00    +0.000 A 
ATOM      5  N   UNL     1      44.987   6.802  12.894  0.00  0.00    +0.000 NA
ATOM      6  C   UNL     1      44.251   5.997  12.094  0.00  0.00    +0.000 A 
ENDROOT
BRANCH   1   7
ATOM      7  C   UNL     1      43.833   4.569  10.062  0.00  0.00    +0.000 C 
BRANCH   7   8
ATOM      8  N   UNL     1      44.512   4.130   8.848  0.00  0.00    +0.000 NA
ATOM      9  H   UNL     1      45.169   4.857   8.552  0.00  0.00    +0.000 HD
BRANCH   8  11
ATOM     10  C   UNL     1      44.308   1.679   9.226  0.00  0.00    +0.000 C 
ATOM     11  C   UNL     1      45.256   2.871   9.022  0.00  0.00    +0.000 C 
BRANCH  11  12
ATOM     12  C   UNL     1      46.152   2.631   7.821  0.00  0.00    +0.000 A 
ATOM     13  C   UNL     1      46.248   3.556   6.772  0.00  0.00    +0.000 A 
ATOM     14  C   UNL     1      47.065   3.291   5.678  0.00  0.00    +0.000 A 
ATOM     15  C   UNL     1      47.776   2.104   5.662  0.00  0.00    +0.000 A 
ATOM     16  N   UNL     1      47.722   1.187   6.652  0.00  0.00    +0.000 NA
ATOM     17  C   UNL     1      46.916   1.471   7.705  0.00  0.00    +0.000 A 
ENDBRANCH  11  12
ENDBRANCH   8  11
ENDBRANCH   7   8
ENDBRANCH   1   7
BRANCH   4  18
ATOM     18  C   UNL     1      47.056   8.033  13.362  0.00  0.00    +0.000 C 
BRANCH  18  19
ATOM     19  N   UNL     1      47.511   7.349  14.551  0.00  0.00    +0.000 N 
ATOM     20  C   UNL     1      48.780   6.844  14.665  0.00  0.00    +0.000 C 
ATOM     21  O   UNL     1      49.630   7.003  13.794  0.00  0.00    +0.000 OA
ATOM     22  H   UNL     1      46.772   6.970  15.138  0.00  0.00    +0.000 HD
BRANCH  20  23
ATOM     23  C   UNL     1      49.096   6.170  15.931  0.00  0.00    +0.000 A 
ATOM     24  C   UNL     1      50.152   6.621  16.710  0.00  0.00    +0.000 A 
ATOM     25  S   UNL     1      50.345   5.756  18.167  0.00  0.00    +0.000 S 
ATOM     26  C   UNL     1      49.052   4.716  17.786  0.00  0.00    +0.000 A 
ATOM     27  N   UNL     1      48.697   3.706  18.620  0.00  0.00    +0.000 NA
ATOM     28  C   UNL     1      47.718   2.978  18.193  0.00  0.00    +0.000 A 
ATOM     29  N   UNL     1      47.058   3.181  17.007  0.00  0.00    +0.000 N 
ATOM     30  C   UNL     1      47.362   4.205  16.146  0.00  0.00    +0.000 A 
ATOM     31  O   UNL     1      46.722   4.384  15.116  0.00  0.00    +0.000 OA
ATOM     32  C   UNL     1      48.469   5.042  16.573  0.00  0.00    +0.000 A 
ATOM     33  H   UNL     1      46.290   2.586  16.735  0.00  0.00    +0.000 HD
ENDBRANCH  20  23
ENDBRANCH  18  19
ENDBRANCH   4  18
TORSDOF 7
ENDMDL
MODEL 2
REMARK VINA RESULT:    -7.944      2.577      3.048
REMARK INTER + INTRA:         -12.402
REMARK INTER:                 -11.355
REMARK INTRA:                  -1.047
REMARK UNBOUND:                -1.207
REMARK  Name = 
REMARK  8 active torsions:
REMARK  status: ('A' for Active; 'I' for Inactive)
REMARK    1  A    between atoms: C_1  and  C_2
REMARK    2  A    between atoms: C_2  and  N_3
REMARK    3  A    between atoms: C_2  and  C_25
REMARK    4  A    between atoms: N_3  and  C_4
REMARK    5  A    between atoms: C_4  and  C_5
REMARK    6  A    between atoms: C_8  and  C_9
REMARK    7  A    between atoms: C_9  and  N_10
REMARK    8  A    between atoms: C_11  and  C_13
REMARK                            x       y       z     vdW  Elec       q    Type
REMARK                         _______ _______ _______ _____ _____    ______ ____
ROOT
ATOM      1  C   UNL     1      45.539   4.349  12.238  0.00  0.00    +0.000 A 
ATOM      2  C   UNL     1      45.827   5.631  11.774  0.00  0.00    +0.000 A 
ATOM      3  C   UNL     1      46.774   6.406  12.436  0.00  0.00    +0.000 A 
ATOM      4  C   UNL     1      47.432   5.872  13.545  0.00  0.00    +0.000 A 
ATOM      5  N   UNL     1      47.165   4.628  14.015  0.00  0.00    +0.000 NA
ATOM      6  C   UNL     1      46.238   3.898  13.353  0.00  0.00    +0.000 A 
ENDROOT
BRANCH   1   7
ATOM      7  C   UNL     1      44.557   3.463  11.530  0.00  0.00    +0.000 C 
BRANCH   7   8
ATOM      8  N   UNL     1      45.208   2.631  10.524  0.00  0.00    +0.000 NA
ATOM      9  H   UNL     1      45.103   1.647  10.787  0.00  0.00    +0.000 HD
BRANCH   8  11
ATOM     10  C   UNL     1      44.126   4.243   8.969  0.00  0.00    +0.000 C 
ATOM     11  C   UNL     1      44.656   2.815   9.172  0.00  0.00    +0.000 C 
BRANCH  11  12
ATOM     12  C   UNL     1      45.715   2.493   8.134  0.00  0.00    +0.000 A 
ATOM     13  C   UNL     1      46.096   3.420   7.155  0.00  0.00    +0.000 A 
ATOM     14  C   UNL     1      47.058   3.082   6.207  0.00  0.00    +0.000 A 
ATOM     15  C   UNL     1      47.621   1.819   6.267  0.00  0.00    +0.000 A 
ATOM     16  N   UNL     1      47.291   0.896   7.196  0.00  0.00    +0.000 NA
ATOM     17  C   UNL     1      46.350   1.253   8.105  0.00  0.00    +0.000 A 
ENDBRANCH  11  12
ENDBRANCH   8  11
ENDBRANCH   7   8
ENDBRANCH   1   7
BRANCH   4  18
ATOM     18  C   UNL     1      48.453   6.697  14.294  0.00  0.00    +0.000 C 
BRANCH  18  19
ATOM     19  N   UNL     1      48.212   6.667  15.718  0.00  0.00    +0.000 N 
ATOM     20  C   UNL     1      49.142   6.199  16.608  0.00  0.00    +0.000 C 
ATOM     21  O   UNL     1      50.263   5.842  16.259  0.00  0.00    +0.000 OA
ATOM     22  H   UNL     1      47.232   6.685  15.988  0.00  0.00    +0.000 HD
BRANCH  20  23
ATOM     23  C   UNL     1      48.753   6.226  18.024  0.00  0.00    +0.000 A 
ATOM     24  C   UNL     1      48.894   5.085  18.802  0.00  0.00    +0.000 A 
ATOM     25  S   UNL     1      48.441   5.309  20.432  0.00  0.00    +0.000 S 
ATOM     26  C   UNL     1      47.996   6.927  20.144  0.00  0.00    +0.000 A 
ATOM     27  N   UNL     1      47.491   7.701  21.138  0.00  0.00    +0.000 NA
ATOM     28  C   UNL     1      47.169   8.898  20.773  0.00  0.00    +0.000 A 
ATOM     29  N   UNL     1      47.319   9.389  19.500  0.00  0.00    +0.000 N 
ATOM     30  C   UNL     1      47.851   8.655  18.471  0.00  0.00    +0.000 A 
ATOM     31  O   UNL     1      48.012   9.140  17.356  0.00  0.00    +0.000 OA
ATOM     32  C   UNL     1      48.212   7.294  18.826  0.00  0.00    +0.000 A 
ATOM     33  H   UNL     1      47.062  10.340  19.280  0.00  0.00    +0.000 HD
ENDBRANCH  20  23
ENDBRANCH  18  19
ENDBRANCH   4  18
TORSDOF 7
ENDMDL
MODEL 3
REMARK VINA RESULT:    -7.593      1.857      2.385
REMARK INTER + INTRA:         -11.907
REMARK INTER:                 -10.863
REMARK INTRA:                  -1.044
REMARK UNBOUND:                -1.207
REMARK  Name = 
REMARK  8 active torsions:
REMARK  status: ('A' for Active; 'I' for Inactive)
REMARK    1  A    between atoms: C_1  and  C_2
REMARK    2  A    between atoms: C_2  and  N_3
REMARK    3  A    between atoms: C_2  and  C_25
REMARK    4  A    between atoms: N_3  and  C_4
REMARK    5  A    between atoms: C_4  and  C_5
REMARK    6  A    between atoms: C_8  and  C_9
REMARK    7  A    between atoms: C_9  and  N_10
REMARK    8  A    between atoms: C_11  and  C_13
REMARK                            x       y       z     vdW  Elec       q    Type
REMARK                         _______ _______ _______ _____ _____    ______ ____
ROOT
ATOM      1  C   UNL     1      45.734   4.605  12.465  0.00  0.00    +0.000 A 
ATOM      2  C   UNL     1      46.086   5.780  11.804  0.00  0.00    +0.000 A 
ATOM      3  C   UNL     1      47.140   6.551  12.287  0.00  0.00    +0.000 A 
ATOM      4  C   UNL     1      47.835   6.118  13.416  0.00  0.00    +0.000 A 
ATOM      5  N   UNL     1      47.507   4.979  14.077  0.00  0.00    +0.000 NA
ATOM      6  C   UNL     1      46.478   4.251  13.586  0.00  0.00    +0.000 A 
ENDROOT
BRANCH   1   7
ATOM      7  C   UNL     1      44.633   3.721  11.956  0.00  0.00    +0.000 C 
BRANCH   7   8
ATOM      8  N   UNL     1      45.118   2.780  10.951  0.00  0.00    +0.000 NA
ATOM      9  H   UNL     1      44.931   1.826  11.270  0.00  0.00    +0.000 HD
BRANCH   8  11
ATOM     10  C   UNL     1      43.919   4.382   9.473  0.00  0.00    +0.000 C 
ATOM     11  C   UNL     1      44.489   2.964   9.633  0.00  0.00    +0.000 C 
BRANCH  11  12
ATOM     12  C   UNL     1      45.497   2.676   8.535  0.00  0.00    +0.000 A 
ATOM     13  C   UNL     1      46.054   1.402   8.359  0.00  0.00    +0.000 A 
ATOM     14  C   UNL     1      46.991   1.181   7.353  0.00  0.00    +0.000 A 
ATOM     15  C   UNL     1      47.344   2.244   6.541  0.00  0.00    +0.000 A 
ATOM     16  N   UNL     1      46.828   3.485   6.667  0.00  0.00    +0.000 NA
ATOM     17  C   UNL     1      45.919   3.672   7.657  0.00  0.00    +0.000 A 
ENDBRANCH  11  12
ENDBRANCH   8  11
ENDBRANCH   7   8
ENDBRANCH   1   7
BRANCH   4  18
ATOM     18  C   UNL     1      48.972   6.943  13.973  0.00  0.00    +0.000 C 
BRANCH  18  19
ATOM     19  N   UNL     1      48.991   6.909  15.417  0.00  0.00    +0.000 N 
ATOM     20  C   UNL     1      50.150   7.026  16.137  0.00  0.00    +0.000 C 
ATOM     21  O   UNL     1      51.235   7.239  15.604  0.00  0.00    +0.000 OA
ATOM     22  H   UNL     1      48.183   6.465  15.846  0.00  0.00    +0.000 HD
BRANCH  20  23
ATOM     23  C   UNL     1      50.013   6.967  17.598  0.00  0.00    +0.000 A 
ATOM     24  C   UNL     1      50.334   8.077  18.368  0.00  0.00    +0.000 A 
ATOM     25  S   UNL     1      50.067   7.850  20.038  0.00  0.00    +0.000 S 
ATOM     26  C   UNL     1      49.558   6.244  19.795  0.00  0.00    +0.000 A 
ATOM     27  N   UNL     1      49.202   5.457  20.842  0.00  0.00    +0.000 NA
ATOM     28  C   UNL     1      48.864   4.253  20.516  0.00  0.00    +0.000 A 
ATOM     29  N   UNL     1      48.843   3.773  19.230  0.00  0.00    +0.000 N 
ATOM     30  C   UNL     1      49.166   4.538  18.139  0.00  0.00    +0.000 A 
ATOM     31  O   UNL     1      49.093   4.089  17.000  0.00  0.00    +0.000 OA
ATOM     32  C   UNL     1      49.571   5.896  18.454  0.00  0.00    +0.000 A 
ATOM     33  H   UNL     1      48.555   2.825  19.038  0.00  0.00    +0.000 HD
ENDBRANCH  20  23
ENDBRANCH  18  19
ENDBRANCH   4  18
TORSDOF 7
ENDMDL
MODEL 4
REMARK VINA RESULT:    -7.451      2.831      8.528
REMARK INTER + INTRA:         -11.707
REMARK INTER:                 -10.207
REMARK INTRA:                  -1.500
REMARK UNBOUND:                -1.207
REMARK  Name = 
REMARK  8 active torsions:
REMARK  status: ('A' for Active; 'I' for Inactive)
REMARK    1  A    between atoms: C_1  and  C_2
REMARK    2  A    between atoms: C_2  and  N_3
REMARK    3  A    between atoms: C_2  and  C_25
REMARK    4  A    between atoms: N_3  and  C_4
REMARK    5  A    between atoms: C_4  and  C_5
REMARK    6  A    between atoms: C_8  and  C_9
REMARK    7  A    between atoms: C_9  and  N_10
REMARK    8  A    between atoms: C_11  and  C_13
REMARK                            x       y       z     vdW  Elec       q    Type
REMARK                         _______ _______ _______ _____ _____    ______ ____
ROOT
ATOM      1  C   UNL     1      48.966   7.838  16.158  0.00  0.00    +0.000 A 
ATOM      2  C   UNL     1      48.274   8.913  15.603  0.00  0.00    +0.000 A 
ATOM      3  C   UNL     1      47.872   8.858  14.272  0.00  0.00    +0.000 A 
ATOM      4  C   UNL     1      48.155   7.714  13.525  0.00  0.00    +0.000 A 
ATOM      5  N   UNL     1      48.831   6.659  14.044  0.00  0.00    +0.000 NA
ATOM      6  C   UNL     1      49.211   6.740  15.340  0.00  0.00    +0.000 A 
ENDROOT
BRANCH   1   7
ATOM      7  C   UNL     1      49.381   7.836  17.600  0.00  0.00    +0.000 C 
BRANCH   7   8
ATOM      8  N   UNL     1      48.304   7.379  18.471  0.00  0.00    +0.000 NA
ATOM      9  H   UNL     1      47.478   7.178  17.902  0.00  0.00    +0.000 HD
BRANCH   8  11
ATOM     10  C   UNL     1      47.856   6.089  20.551  0.00  0.00    +0.000 C 
ATOM     11  C   UNL     1      48.649   6.170  19.237  0.00  0.00    +0.000 C 
BRANCH  11  12
ATOM     12  C   UNL     1      48.397   4.935  18.392  0.00  0.00    +0.000 A 
ATOM     13  C   UNL     1      49.408   4.003  18.123  0.00  0.00    +0.000 A 
ATOM     14  C   UNL     1      49.143   2.892  17.327  0.00  0.00    +0.000 A 
ATOM     15  C   UNL     1      47.863   2.737  16.824  0.00  0.00    +0.000 A 
ATOM     16  N   UNL     1      46.855   3.603  17.063  0.00  0.00    +0.000 NA
ATOM     17  C   UNL     1      47.144   4.677  17.839  0.00  0.00    +0.000 A 
ENDBRANCH  11  12
ENDBRANCH   8  11
ENDBRANCH   7   8
ENDBRANCH   1   7
BRANCH   4  18
ATOM     18  C   UNL     1      47.746   7.633  12.073  0.00  0.00    +0.000 C 
BRANCH  18  19
ATOM     19  N   UNL     1      46.987   6.433  11.804  0.00  0.00    +0.000 N 
ATOM     20  C   UNL     1      45.618   6.406  11.853  0.00  0.00    +0.000 C 
ATOM     21  O   UNL     1      44.949   7.414  12.056  0.00  0.00    +0.000 OA
ATOM     22  H   UNL     1      47.504   5.565  11.914  0.00  0.00    +0.000 HD
BRANCH  20  23
ATOM     23  C   UNL     1      44.987   5.113  11.562  0.00  0.00    +0.000 A 
ATOM     24  C   UNL     1      44.275   4.452  12.554  0.00  0.00    +0.000 A 
ATOM     25  S   UNL     1      43.568   2.991  12.029  0.00  0.00    +0.000 S 
ATOM     26  C   UNL     1      44.228   3.166  10.470  0.00  0.00    +0.000 A 
ATOM     27  N   UNL     1      44.023   2.225   9.513  0.00  0.00    +0.000 NA
ATOM     28  C   UNL     1      44.605   2.472   8.386  0.00  0.00    +0.000 A 
ATOM     29  N   UNL     1      45.367   3.585   8.132  0.00  0.00    +0.000 N 
ATOM     30  C   UNL     1      45.579   4.576   9.057  0.00  0.00    +0.000 A 
ATOM     31  O   UNL     1      46.228   5.579   8.781  0.00  0.00    +0.000 OA
ATOM     32  C   UNL     1      44.959   4.336  10.348  0.00  0.00    +0.000 A 
ATOM     33  H   UNL     1      45.785   3.729   7.225  0.00  0.00    +0.000 HD
ENDBRANCH  20  23
ENDBRANCH  18  19
ENDBRANCH   4  18
TORSDOF 7
ENDMDL
MODEL 5
REMARK VINA RESULT:    -7.389      3.027      4.312
REMARK INTER + INTRA:         -11.620
REMARK INTER:                 -10.530
REMARK INTRA:                  -1.090
REMARK UNBOUND:                -1.207
REMARK  Name = 
REMARK  8 active torsions:
REMARK  status: ('A' for Active; 'I' for Inactive)
REMARK    1  A    between atoms: C_1  and  C_2
REMARK    2  A    between atoms: C_2  and  N_3
REMARK    3  A    between atoms: C_2  and  C_25
REMARK    4  A    between atoms: N_3  and  C_4
REMARK    5  A    between atoms: C_4  and  C_5
REMARK    6  A    between atoms: C_8  and  C_9
REMARK    7  A    between atoms: C_9  and  N_10
REMARK    8  A    between atoms: C_11  and  C_13
REMARK                            x       y       z     vdW  Elec       q    Type
REMARK                         _______ _______ _______ _____ _____    ______ ____
ROOT
ATOM      1  C   UNL     1      46.784   4.892  14.013  0.00  0.00    +0.000 A 
ATOM      2  C   UNL     1      47.421   6.053  13.580  0.00  0.00    +0.000 A 
ATOM      3  C   UNL     1      48.366   6.665  14.399  0.00  0.00    +0.000 A 
ATOM      4  C   UNL     1      48.669   6.089  15.633  0.00  0.00    +0.000 A 
ATOM      5  N   UNL     1      48.059   4.961  16.075  0.00  0.00    +0.000 NA
ATOM      6  C   UNL     1      47.143   4.389  15.260  0.00  0.00    +0.000 A 
ENDROOT
BRANCH   1   7
ATOM      7  C   UNL     1      45.790   4.176  13.147  0.00  0.00    +0.000 C 
BRANCH   7   8
ATOM      8  N   UNL     1      44.865   5.105  12.506  0.00  0.00    +0.000 NA
ATOM      9  H   UNL     1      45.400   5.773  11.946  0.00  0.00    +0.000 HD
BRANCH   8  11
ATOM     10  C   UNL     1      42.657   5.326  11.381  0.00  0.00    +0.000 C 
ATOM     11  C   UNL     1      43.887   4.438  11.630  0.00  0.00    +0.000 C 
BRANCH  11  12
ATOM     12  C   UNL     1      44.543   4.066  10.313  0.00  0.00    +0.000 A 
ATOM     13  C   UNL     1      44.513   2.756   9.817  0.00  0.00    +0.000 A 
ATOM     14  C   UNL     1      45.143   2.449   8.614  0.00  0.00    +0.000 A 
ATOM     15  C   UNL     1      45.785   3.467   7.932  0.00  0.00    +0.000 A 
ATOM     16  N   UNL     1      45.833   4.744   8.367  0.00  0.00    +0.000 NA
ATOM     17  C   UNL     1      45.212   5.014   9.542  0.00  0.00    +0.000 A 
ENDBRANCH  11  12
ENDBRANCH   8  11
ENDBRANCH   7   8
ENDBRANCH   1   7
BRANCH   4  18
ATOM     18  C   UNL     1      49.679   6.740  16.549  0.00  0.00    +0.000 C 
BRANCH  18  19
ATOM     19  N   UNL     1      50.682   5.796  16.984  0.00  0.00    +0.000 N 
ATOM     20  C   UNL     1      50.805   5.409  18.292  0.00  0.00    +0.000 C 
ATOM     21  O   UNL     1      50.026   5.783  19.163  0.00  0.00    +0.000 OA
ATOM     22  H   UNL     1      51.481   5.702  16.362  0.00  0.00    +0.000 HD
BRANCH  20  23
ATOM     23  C   UNL     1      51.876   4.447  18.583  0.00  0.00    +0.000 A 
ATOM     24  C   UNL     1      52.964   4.835  19.352  0.00  0.00    +0.000 A 
ATOM     25  S   UNL     1      54.085   3.581  19.633  0.00  0.00    +0.000 S 
ATOM     26  C   UNL     1      53.179   2.486  18.697  0.00  0.00    +0.000 A 
ATOM     27  N   UNL     1      53.603   1.211  18.504  0.00  0.00    +0.000 NA
ATOM     28  C   UNL     1      52.833   0.498  17.750  0.00  0.00    +0.000 A 
ATOM     29  N   UNL     1      51.669   0.950  17.181  0.00  0.00    +0.000 N 
ATOM     30  C   UNL     1      51.184   2.219  17.370  0.00  0.00    +0.000 A 
ATOM     31  O   UNL     1      50.117   2.575  16.883  0.00  0.00    +0.000 OA
ATOM     32  C   UNL     1      52.025   3.067  18.197  0.00  0.00    +0.000 A 
ATOM     33  H   UNL     1      51.101   0.339  16.612  0.00  0.00    +0.000 HD
ENDBRANCH  20  23
ENDBRANCH  18  19
ENDBRANCH   4  18
TORSDOF 7
ENDMDL
MODEL 6
REMARK VINA RESULT:    -6.955      3.349      8.060
REMARK INTER + INTRA:         -11.009
REMARK INTER:                  -9.422
REMARK INTRA:                  -1.587
REMARK UNBOUND:                -1.207
REMARK  Name = 
REMARK  8 active torsions:
REMARK  status: ('A' for Active; 'I' for Inactive)
REMARK    1  A    between atoms: C_1  and  C_2
REMARK    2  A    between atoms: C_2  and  N_3
REMARK    3  A    between atoms: C_2  and  C_25
REMARK    4  A    between atoms: N_3  and  C_4
REMARK    5  A    between atoms: C_4  and  C_5
REMARK    6  A    between atoms: C_8  and  C_9
REMARK    7  A    between atoms: C_9  and  N_10
REMARK    8  A    between atoms: C_11  and  C_13
REMARK                            x       y       z     vdW  Elec       q    Type
REMARK                         _______ _______ _______ _____ _____    ______ ____
ROOT
ATOM      1  C   UNL     1      48.752   7.903  16.182  0.00  0.00    +0.000 A 
ATOM      2  C   UNL     1      49.145   6.845  15.366  0.00  0.00    +0.000 A 
ATOM      3  C   UNL     1      48.990   6.946  13.986  0.00  0.00    +0.000 A 
ATOM      4  C   UNL     1      48.459   8.118  13.448  0.00  0.00    +0.000 A 
ATOM      5  N   UNL     1      48.067   9.159  14.224  0.00  0.00    +0.000 NA
ATOM      6  C   UNL     1      48.227   9.032  15.562  0.00  0.00    +0.000 A 
ENDROOT
BRANCH   1   7
ATOM      7  C   UNL     1      48.940   7.855  17.670  0.00  0.00    +0.000 C 
BRANCH   7   8
ATOM      8  N   UNL     1      49.938   6.863  18.056  0.00  0.00    +0.000 NA
ATOM      9  H   UNL     1      50.687   7.329  18.574  0.00  0.00    +0.000 HD
BRANCH   8  11
ATOM     10  C   UNL     1      48.052   6.190  19.532  0.00  0.00    +0.000 C 
ATOM     11  C   UNL     1      49.390   5.784  18.895  0.00  0.00    +0.000 C 
BRANCH  11  12
ATOM     12  C   UNL     1      49.219   4.524  18.067  0.00  0.00    +0.000 A 
ATOM     13  C   UNL     1      47.956   4.076  17.653  0.00  0.00    +0.000 A 
ATOM     14  C   UNL     1      47.837   2.905  16.911  0.00  0.00    +0.000 A 
ATOM     15  C   UNL     1      48.991   2.209  16.594  0.00  0.00    +0.000 A 
ATOM     16  N   UNL     1      50.228   2.606  16.963  0.00  0.00    +0.000 NA
ATOM     17  C   UNL     1      50.313   3.749  17.687  0.00  0.00    +0.000 A 
ENDBRANCH  11  12
ENDBRANCH   8  11
ENDBRANCH   7   8
ENDBRANCH   1   7
BRANCH   4  18
ATOM     18  C   UNL     1      48.263   8.249  11.956  0.00  0.00    +0.000 C 
BRANCH  18  19
ATOM     19  N   UNL     1      47.561   7.109  11.413  0.00  0.00    +0.000 N 
ATOM     20  C   UNL     1      46.194   7.028  11.402  0.00  0.00    +0.000 C 
ATOM     21  O   UNL     1      45.479   7.949  11.786  0.00  0.00    +0.000 OA
ATOM     22  H   UNL     1      48.109   6.254  11.359  0.00  0.00    +0.000 HD
BRANCH  20  23
ATOM     23  C   UNL     1      45.624   5.805  10.822  0.00  0.00    +0.000 A 
ATOM     24  C   UNL     1      45.818   5.521   9.477  0.00  0.00    +0.000 A 
ATOM     25  S   UNL     1      45.131   4.039   8.986  0.00  0.00    +0.000 S 
ATOM     26  C   UNL     1      44.508   3.747  10.543  0.00  0.00    +0.000 A 
ATOM     27  N   UNL     1      43.777   2.635  10.807  0.00  0.00    +0.000 NA
ATOM     28  C   UNL     1      43.344   2.555  12.022  0.00  0.00    +0.000 A 
ATOM     29  N   UNL     1      43.589   3.489  12.998  0.00  0.00    +0.000 N 
ATOM     30  C   UNL     1      44.346   4.613  12.787  0.00  0.00    +0.000 A 
ATOM     31  O   UNL     1      44.582   5.404  13.693  0.00  0.00    +0.000 OA
ATOM     32  C   UNL     1      44.842   4.758  11.429  0.00  0.00    +0.000 A 
ATOM     33  H   UNL     1      43.234   3.362  13.934  0.00  0.00    +0.000 HD
ENDBRANCH  20  23
ENDBRANCH  18  19
ENDBRANCH   4  18
TORSDOF 7
ENDMDL
MODEL 7
REMARK VINA RESULT:    -6.845      3.069      4.930
REMARK INTER + INTRA:         -10.854
REMARK INTER:                  -9.882
REMARK INTRA:                  -0.971
REMARK UNBOUND:                -1.207
REMARK  Name = 
REMARK  8 active torsions:
REMARK  status: ('A' for Active; 'I' for Inactive)
REMARK    1  A    between atoms: C_1  and  C_2
REMARK    2  A    between atoms: C_2  and  N_3
REMARK    3  A    between atoms: C_2  and  C_25
REMARK    4  A    between atoms: N_3  and  C_4
REMARK    5  A    between atoms: C_4  and  C_5
REMARK    6  A    between atoms: C_8  and  C_9
REMARK    7  A    between atoms: C_9  and  N_10
REMARK    8  A    between atoms: C_11  and  C_13
REMARK                            x       y       z     vdW  Elec       q    Type
REMARK                         _______ _______ _______ _____ _____    ______ ____
ROOT
ATOM      1  C   UNL     1      45.037   3.902  12.170  0.00  0.00    +0.000 A 
ATOM      2  C   UNL     1      45.054   5.295  12.167  0.00  0.00    +0.000 A 
ATOM      3  C   UNL     1      46.002   5.973  12.928  0.00  0.00    +0.000 A 
ATOM      4  C   UNL     1      46.931   5.238  13.666  0.00  0.00    +0.000 A 
ATOM      5  N   UNL     1      46.930   3.882  13.685  0.00  0.00    +0.000 NA
ATOM      6  C   UNL     1      45.996   3.250  12.938  0.00  0.00    +0.000 A 
ENDROOT
BRANCH   1   7
ATOM      7  C   UNL     1      44.061   3.130  11.332  0.00  0.00    +0.000 C 
BRANCH   7   8
ATOM      8  N   UNL     1      44.736   2.345  10.303  0.00  0.00    +0.000 NA
ATOM      9  H   UNL     1      44.428   1.371  10.372  0.00  0.00    +0.000 HD
BRANCH   8  11
ATOM     10  C   UNL     1      44.162   4.330   8.919  0.00  0.00    +0.000 C 
ATOM     11  C   UNL     1      44.467   2.824   8.937  0.00  0.00    +0.000 C 
BRANCH  11  12
ATOM     12  C   UNL     1      45.652   2.517   8.041  0.00  0.00    +0.000 A 
ATOM     13  C   UNL     1      46.309   1.279   8.081  0.00  0.00    +0.000 A 
ATOM     14  C   UNL     1      47.404   1.041   7.256  0.00  0.00    +0.000 A 
ATOM     15  C   UNL     1      47.815   2.050   6.403  0.00  0.00    +0.000 A 
ATOM     16  N   UNL     1      47.209   3.254   6.323  0.00  0.00    +0.000 NA
ATOM     17  C   UNL     1      46.145   3.459   7.140  0.00  0.00    +0.000 A 
ENDBRANCH  11  12
ENDBRANCH   8  11
ENDBRANCH   7   8
ENDBRANCH   1   7
BRANCH   4  18
ATOM     18  C   UNL     1      47.960   5.947  14.514  0.00  0.00    +0.000 C 
BRANCH  18  19
ATOM     19  N   UNL     1      48.760   6.856  13.724  0.00  0.00    +0.000 N 
ATOM     20  C   UNL     1      49.696   7.684  14.285  0.00  0.00    +0.000 C 
ATOM     21  O   UNL     1      49.964   7.656  15.482  0.00  0.00    +0.000 OA
ATOM     22  H   UNL     1      48.369   7.091  12.816  0.00  0.00    +0.000 HD
BRANCH  20  23
ATOM     23  C   UNL     1      50.427   8.555  13.355  0.00  0.00    +0.000 A 
ATOM     24  C   UNL     1      51.815   8.562  13.361  0.00  0.00    +0.000 A 
ATOM     25  S   UNL     1      52.498   9.592  12.185  0.00  0.00    +0.000 S 
ATOM     26  C   UNL     1      50.961  10.102  11.659  0.00  0.00    +0.000 A 
ATOM     27  N   UNL     1      50.830  11.021  10.669  0.00  0.00    +0.000 NA
ATOM     28  C   UNL     1      49.608  11.336  10.389  0.00  0.00    +0.000 A 
ATOM     29  N   UNL     1      48.506  10.802  11.010  0.00  0.00    +0.000 N 
ATOM     30  C   UNL     1      48.588   9.850  11.994  0.00  0.00    +0.000 A 
ATOM     31  O   UNL     1      47.581   9.362  12.495  0.00  0.00    +0.000 OA
ATOM     32  C   UNL     1      49.943   9.475  12.357  0.00  0.00    +0.000 A 
ATOM     33  H   UNL     1      47.575  11.078  10.736  0.00  0.00    +0.000 HD
ENDBRANCH  20  23
ENDBRANCH  18  19
ENDBRANCH   4  18
TORSDOF 7
ENDMDL
MODEL 8
REMARK VINA RESULT:    -6.756      2.161      3.146
REMARK INTER + INTRA:         -10.728
REMARK INTER:                  -9.814
REMARK INTRA:                  -0.914
REMARK UNBOUND:                -1.207
REMARK  Name = 
REMARK  8 active torsions:
REMARK  status: ('A' for Active; 'I' for Inactive)
REMARK    1  A    between atoms: C_1  and  C_2
REMARK    2  A    between atoms: C_2  and  N_3
REMARK    3  A    between atoms: C_2  and  C_25
REMARK    4  A    between atoms: N_3  and  C_4
REMARK    5  A    between atoms: C_4  and  C_5
REMARK    6  A    between atoms: C_8  and  C_9
REMARK    7  A    between atoms: C_9  and  N_10
REMARK    8  A    between atoms: C_11  and  C_13
REMARK                            x       y       z     vdW  Elec       q    Type
REMARK                         _______ _______ _______ _____ _____    ______ ____
ROOT
ATOM      1  C   UNL     1      44.727   5.256  11.123  0.00  0.00    +0.000 A 
ATOM      2  C   UNL     1      44.177   5.882  12.239  0.00  0.00    +0.000 A 
ATOM      3  C   UNL     1      44.907   6.862  12.907  0.00  0.00    +0.000 A 
ATOM      4  C   UNL     1      46.171   7.208  12.429  0.00  0.00    +0.000 A 
ATOM      5  N   UNL     1      46.726   6.609  11.347  0.00  0.00    +0.000 NA
ATOM      6  C   UNL     1      45.996   5.659  10.719  0.00  0.00    +0.000 A 
ENDROOT
BRANCH   1   7
ATOM      7  C   UNL     1      43.959   4.225  10.347  0.00  0.00    +0.000 C 
BRANCH   7   8
ATOM      8  N   UNL     1      44.607   3.913   9.078  0.00  0.00    +0.000 NA
ATOM      9  H   UNL     1      45.310   4.629   8.878  0.00  0.00    +0.000 HD
BRANCH   8  11
ATOM     10  C   UNL     1      44.240   1.452   9.088  0.00  0.00    +0.000 C 
ATOM     11  C   UNL     1      45.266   2.596   9.070  0.00  0.00    +0.000 C 
BRANCH  11  12
ATOM     12  C   UNL     1      46.166   2.476   7.855  0.00  0.00    +0.000 A 
ATOM     13  C   UNL     1      46.208   3.467   6.865  0.00  0.00    +0.000 A 
ATOM     14  C   UNL     1      47.033   3.313   5.754  0.00  0.00    +0.000 A 
ATOM     15  C   UNL     1      47.803   2.167   5.664  0.00  0.00    +0.000 A 
ATOM     16  N   UNL     1      47.802   1.190   6.595  0.00  0.00    +0.000 NA
ATOM     17  C   UNL     1      46.988   1.367   7.666  0.00  0.00    +0.000 A 
ENDBRANCH  11  12
ENDBRANCH   8  11
ENDBRANCH   7   8
ENDBRANCH   1   7
BRANCH   4  18
ATOM     18  C   UNL     1      46.993   8.256  13.144  0.00  0.00    +0.000 C 
BRANCH  18  19
ATOM     19  N   UNL     1      48.060   7.656  13.912  0.00  0.00    +0.000 N 
ATOM     20  C   UNL     1      48.442   8.139  15.135  0.00  0.00    +0.000 C 
ATOM     21  O   UNL     1      47.858   9.066  15.687  0.00  0.00    +0.000 OA
ATOM     22  H   UNL     1      48.715   7.097  13.372  0.00  0.00    +0.000 HD
BRANCH  20  23
ATOM     23  C   UNL     1      49.546   7.428  15.794  0.00  0.00    +0.000 A 
ATOM     24  C   UNL     1      49.296   6.657  16.922  0.00  0.00    +0.000 A 
ATOM     25  S   UNL     1      50.680   5.864  17.527  0.00  0.00    +0.000 S 
ATOM     26  C   UNL     1      51.671   6.560  16.331  0.00  0.00    +0.000 A 
ATOM     27  N   UNL     1      53.004   6.309  16.293  0.00  0.00    +0.000 NA
ATOM     28  C   UNL     1      53.639   6.924  15.350  0.00  0.00    +0.000 A 
ATOM     29  N   UNL     1      53.051   7.763  14.437  0.00  0.00    +0.000 N 
ATOM     30  C   UNL     1      51.704   8.024  14.417  0.00  0.00    +0.000 A 
ATOM     31  O   UNL     1      51.206   8.743  13.558  0.00  0.00    +0.000 OA
ATOM     32  C   UNL     1      50.948   7.369  15.469  0.00  0.00    +0.000 A 
ATOM     33  H   UNL     1      53.599   8.204  13.713  0.00  0.00    +0.000 HD
ENDBRANCH  20  23
ENDBRANCH  18  19
ENDBRANCH   4  18
TORSDOF 7
ENDMDL
MODEL 9
REMARK VINA RESULT:    -6.728      4.110      9.413
REMARK INTER + INTRA:         -10.689
REMARK INTER:                  -9.634
REMARK INTRA:                  -1.055
REMARK UNBOUND:                -1.207
REMARK  Name = 
REMARK  8 active torsions:
REMARK  status: ('A' for Active; 'I' for Inactive)
REMARK    1  A    between atoms: C_1  and  C_2
REMARK    2  A    between atoms: C_2  and  N_3
REMARK    3  A    between atoms: C_2  and  C_25
REMARK    4  A    between atoms: N_3  and  C_4
REMARK    5  A    between atoms: C_4  and  C_5
REMARK    6  A    between atoms: C_8  and  C_9
REMARK    7  A    between atoms: C_9  and  N_10
REMARK    8  A    between atoms: C_11  and  C_13
REMARK                            x       y       z     vdW  Elec       q    Type
REMARK                         _______ _______ _______ _____ _____    ______ ____
ROOT
ATOM      1  C   UNL     1      51.200   4.552  17.877  0.00  0.00    +0.000 A 
ATOM      2  C   UNL     1      50.179   5.497  17.949  0.00  0.00    +0.000 A 
ATOM      3  C   UNL     1      48.892   5.150  17.549  0.00  0.00    +0.000 A 
ATOM      4  C   UNL     1      48.648   3.852  17.101  0.00  0.00    +0.000 A 
ATOM      5  N   UNL     1      49.628   2.918  17.020  0.00  0.00    +0.000 NA
ATOM      6  C   UNL     1      50.870   3.283  17.413  0.00  0.00    +0.000 A 
ENDROOT
BRANCH   1   7
ATOM      7  C   UNL     1      52.593   4.870  18.337  0.00  0.00    +0.000 C 
BRANCH   7   8
ATOM      8  N   UNL     1      53.595   4.409  17.382  0.00  0.00    +0.000 NA
ATOM      9  H   UNL     1      53.951   5.214  16.859  0.00  0.00    +0.000 HD
BRANCH   8  11
ATOM     10  C   UNL     1      54.801   4.025  19.523  0.00  0.00    +0.000 C 
ATOM     11  C   UNL     1      54.732   3.725  18.018  0.00  0.00    +0.000 C 
BRANCH  11  12
ATOM     12  C   UNL     1      54.631   2.229  17.783  0.00  0.00    +0.000 A 
ATOM     13  C   UNL     1      55.269   1.604  16.703  0.00  0.00    +0.000 A 
ATOM     14  C   UNL     1      55.136   0.232  16.509  0.00  0.00    +0.000 A 
ATOM     15  C   UNL     1      54.370  -0.486  17.411  0.00  0.00    +0.000 A 
ATOM     16  N   UNL     1      53.745   0.070  18.470  0.00  0.00    +0.000 NA
ATOM     17  C   UNL     1      53.890   1.409  18.632  0.00  0.00    +0.000 A 
ENDBRANCH  11  12
ENDBRANCH   8  11
ENDBRANCH   7   8
ENDBRANCH   1   7
BRANCH   4  18
ATOM     18  C   UNL     1      47.264   3.452  16.644  0.00  0.00    +0.000 C 
BRANCH  18  19
ATOM     19  N   UNL     1      46.734   4.390  15.682  0.00  0.00    +0.000 N 
ATOM     20  C   UNL     1      46.773   4.157  14.333  0.00  0.00    +0.000 C 
ATOM     21  O   UNL     1      47.194   3.106  13.861  0.00  0.00    +0.000 OA
ATOM     22  H   UNL     1      46.649   5.346  16.018  0.00  0.00    +0.000 HD
BRANCH  20  23
ATOM     23  C   UNL     1      46.200   5.205  13.479  0.00  0.00    +0.000 A 
ATOM     24  C   UNL     1      46.929   6.357  13.214  0.00  0.00    +0.000 A 
ATOM     25  S   UNL     1      46.134   7.443  12.166  0.00  0.00    +0.000 S 
ATOM     26  C   UNL     1      44.766   6.434  12.068  0.00  0.00    +0.000 A 
ATOM     27  N   UNL     1      43.682   6.794  11.334  0.00  0.00    +0.000 NA
ATOM     28  C   UNL     1      42.706   5.948  11.370  0.00  0.00    +0.000 A 
ATOM     29  N   UNL     1      42.726   4.768  12.071  0.00  0.00    +0.000 N 
ATOM     30  C   UNL     1      43.808   4.348  12.802  0.00  0.00    +0.000 A 
ATOM     31  O   UNL     1      43.809   3.266  13.379  0.00  0.00    +0.000 OA
ATOM     32  C   UNL     1      44.927   5.274  12.807  0.00  0.00    +0.000 A 
ATOM     33  H   UNL     1      41.936   4.140  12.048  0.00  0.00    +0.000 HD
ENDBRANCH  20  23
ENDBRANCH  18  19
ENDBRANCH   4  18
TORSDOF 7
ENDMDL
