MODEL 1
REMARK VINA RESULT:    -6.532      0.000      0.000
REMARK INTER + INTRA:          -8.863
REMARK INTER:                  -8.441
REMARK INTRA:                  -0.422
REMARK UNBOUND:                -0.422
REMARK  Name = 
REMARK  8 active torsions:
REMARK  status: ('A' for Active; 'I' for Inactive)
REMARK    1  A    between atoms: C_1  and  O_2
REMARK    2  A    between atoms: O_2  and  C_3
REMARK    3  A    between atoms: C_3  and  C_5
REMARK    4  A    between atoms: N_9  and  C_10
REMARK    5  A    between atoms: C_10  and  C_11
REMARK    6  A    between atoms: C_11  and  C_12
REMARK    7  A    between atoms: C_11  and  C_13
REMARK    8  A    between atoms: C_11  and  C_14
REMARK                            x       y       z     vdW  Elec       q    Type
REMARK                         _______ _______ _______ _____ _____    ______ ____
ROOT
ATOM      1  C   UNL     1      45.194   4.262  11.333  0.00  0.00    +0.000 A 
ATOM      2  C   UNL     1      45.722   5.535  11.473  0.00  0.00    +0.000 A 
ATOM      3  C   UNL     1      46.274   5.912  12.695  0.00  0.00    +0.000 A 
ATOM      4  C   UNL     1      46.322   5.008  13.750  0.00  0.00    +0.000 A 
ATOM      5  N   UNL     1      47.013   5.384  14.897  0.00  0.00    +0.000 N 
ATOM      6  N   UNL     1      45.829   3.760  13.622  0.00  0.00    +0.000 NA
ATOM      7  C   UNL     1      45.261   3.411  12.435  0.00  0.00    +0.000 A 
ATOM      8  H   UNL     1      46.843   6.324  15.226  0.00  0.00    +0.000 HD
ENDROOT
BRANCH   1   9
ATOM      9  C   UNL     1      44.568   3.761  10.091  0.00  0.00    +0.000 C 
ATOM     10  O   UNL     1      43.792   2.820  10.057  0.00  0.00    +0.000 OA
BRANCH   9  12
ATOM     11  C   UNL     1      45.331   3.694   7.885  0.00  0.00    +0.000 C 
ATOM     12  O   UNL     1      44.986   4.484   9.017  0.00  0.00    +0.000 OA
ENDBRANCH   9  12
ENDBRANCH   1   9
BRANCH   5  13
ATOM     13  C   UNL     1      47.435   4.354  15.836  0.00  0.00    +0.000 C 
BRANCH  13  14
ATOM     14  C   UNL     1      48.265   4.913  17.041  0.00  0.00    +0.000 C 
ATOM     15  C   UNL     1      48.778   6.340  16.740  0.00  0.00    +0.000 C 
ATOM     16  C   UNL     1      47.341   5.001  18.283  0.00  0.00    +0.000 C 
BRANCH  14  17
ATOM     17  C   UNL     1      49.481   3.985  17.278  0.00  0.00    +0.000 A 
ATOM     18  C   UNL     1      50.699   4.517  17.738  0.00  0.00    +0.000 A 
ATOM     19  C   UNL     1      51.798   3.684  17.900  0.00  0.00    +0.000 A 
ATOM     20  N   UNL     1      51.778   2.360  17.655  0.00  0.00    +0.000 NA
ATOM     21  C   UNL     1      50.606   1.851  17.231  0.00  0.00    +0.000 A 
ATOM     22  C   UNL     1      49.453   2.605  17.035  0.00  0.00    +0.000 A 
ENDBRANCH  14  17
ENDBRANCH  13  14
ENDBRANCH   5  13
TORSDOF 5
ENDMDL
MODEL 2
REMARK VINA RESULT:    -6.350      3.617      7.949
REMARK INTER + INTRA:          -8.628
REMARK INTER:                  -8.136
REMARK INTRA:                  -0.492
REMARK UNBOUND:                -0.422
REMARK  Name = 
REMARK  8 active torsions:
REMARK  status: ('A' for Active; 'I' for Inactive)
REMARK    1  A    between atoms: C_1  and  O_2
REMARK    2  A    between atoms: O_2  and  C_3
REMARK    3  A    between atoms: C_3  and  C_5
REMARK    4  A    between atoms: N_9  and  C_10
REMARK    5  A    between atoms: C_10  and  C_11
REMARK    6  A    between atoms: C_11  and  C_12
REMARK    7  A    between atoms: C_11  and  C_13
REMARK    8  A    between atoms: C_11  and  C_14
REMARK                            x       y       z     vdW  Elec       q    Type
REMARK                         _______ _______ _______ _____ _____    ______ ____
ROOT
ATOM      1  C   UNL     1      48.285   4.928  16.705  0.00  0.00    +0.000 A 
ATOM      2  C   UNL     1      48.584   5.996  15.873  0.00  0.00    +0.000 A 
ATOM      3  C   UNL     1      47.976   6.075  14.622  0.00  0.00    +0.000 A 
ATOM      4  C   UNL     1      47.054   5.110  14.229  0.00  0.00    +0.000 A 
ATOM      5  N   UNL     1      46.369   5.314  13.037  0.00  0.00    +0.000 N 
ATOM      6  N   UNL     1      46.741   4.077  15.036  0.00  0.00    +0.000 NA
ATOM      7  C   UNL     1      47.365   3.989  16.242  0.00  0.00    +0.000 A 
ATOM      8  H   UNL     1      46.927   5.629  12.255  0.00  0.00    +0.000 HD
ENDROOT
BRANCH   1   9
ATOM      9  C   UNL     1      48.882   4.734  18.043  0.00  0.00    +0.000 C 
ATOM     10  O   UNL     1      48.803   5.554  18.944  0.00  0.00    +0.000 OA
BRANCH   9  12
ATOM     11  C   UNL     1      50.880   3.579  17.689  0.00  0.00    +0.000 C 
ATOM     12  O   UNL     1      49.523   3.536  18.114  0.00  0.00    +0.000 OA
ENDBRANCH   9  12
ENDBRANCH   1   9
BRANCH   5  13
ATOM     13  C   UNL     1      45.139   4.573  12.795  0.00  0.00    +0.000 C 
BRANCH  13  14
ATOM     14  C   UNL     1      44.326   5.101  11.564  0.00  0.00    +0.000 C 
ATOM     15  C   UNL     1      42.805   4.973  11.815  0.00  0.00    +0.000 C 
ATOM     16  C   UNL     1      44.643   6.605  11.368  0.00  0.00    +0.000 C 
BRANCH  14  17
ATOM     17  C   UNL     1      44.700   4.255  10.324  0.00  0.00    +0.000 A 
ATOM     18  C   UNL     1      44.369   2.888  10.272  0.00  0.00    +0.000 A 
ATOM     19  C   UNL     1      44.751   2.127   9.176  0.00  0.00    +0.000 A 
ATOM     20  N   UNL     1      45.426   2.619   8.120  0.00  0.00    +0.000 NA
ATOM     21  C   UNL     1      45.727   3.930   8.165  0.00  0.00    +0.000 A 
ATOM     22  C   UNL     1      45.389   4.772   9.220  0.00  0.00    +0.000 A 
ENDBRANCH  14  17
ENDBRANCH  13  14
ENDBRANCH   5  13
TORSDOF 5
ENDMDL
MODEL 3
REMARK VINA RESULT:    -5.882      3.886      8.194
REMARK INTER + INTRA:          -8.023
REMARK INTER:                  -7.563
REMARK INTRA:                  -0.460
REMARK UNBOUND:                -0.422
REMARK  Name = 
REMARK  8 active torsions:
REMARK  status: ('A' for Active; 'I' for Inactive)
REMARK    1  A    between atoms: C_1  and  O_2
REMARK    2  A    between atoms: O_2  and  C_3
REMARK    3  A    between atoms: C_3  and  C_5
REMARK    4  A    between atoms: N_9  and  C_10
REMARK    5  A    between atoms: C_10  and  C_11
REMARK    6  A    between atoms: C_11  and  C_12
REMARK    7  A    between atoms: C_11  and  C_13
REMARK    8  A    between atoms: C_11  and  C_14
REMARK                            x       y       z     vdW  Elec       q    Type
REMARK                         _______ _______ _______ _____ _____    ______ ____
ROOT
ATOM      1  C   UNL     1      48.875   4.742  17.432  0.00  0.00    +0.000 A 
ATOM      2  C   UNL     1      47.932   3.727  17.421  0.00  0.00    +0.000 A 
ATOM      3  C   UNL     1      47.042   3.638  16.353  0.00  0.00    +0.000 A 
ATOM      4  C   UNL     1      47.124   4.539  15.296  0.00  0.00    +0.000 A 
ATOM      5  N   UNL     1      46.312   4.317  14.190  0.00  0.00    +0.000 N 
ATOM      6  N   UNL     1      48.049   5.519  15.286  0.00  0.00    +0.000 NA
ATOM      7  C   UNL     1      48.892   5.619  16.350  0.00  0.00    +0.000 A 
ATOM      8  H   UNL     1      45.352   4.070  14.389  0.00  0.00    +0.000 HD
ENDROOT
BRANCH   1   9
ATOM      9  C   UNL     1      49.856   4.943  18.521  0.00  0.00    +0.000 C 
ATOM     10  O   UNL     1      51.013   4.556  18.468  0.00  0.00    +0.000 OA
BRANCH   9  12
ATOM     11  C   UNL     1      49.225   4.840  20.765  0.00  0.00    +0.000 C 
ATOM     12  O   UNL     1      49.287   5.602  19.565  0.00  0.00    +0.000 OA
ENDBRANCH   9  12
ENDBRANCH   1   9
BRANCH   5  13
ATOM     13  C   UNL     1      46.645   4.965  12.929  0.00  0.00    +0.000 C 
BRANCH  13  14
ATOM     14  C   UNL     1      45.397   5.532  12.171  0.00  0.00    +0.000 C 
ATOM     15  C   UNL     1      44.139   5.478  13.069  0.00  0.00    +0.000 C 
ATOM     16  C   UNL     1      45.659   7.018  11.822  0.00  0.00    +0.000 C 
BRANCH  14  17
ATOM     17  C   UNL     1      45.148   4.667  10.911  0.00  0.00    +0.000 A 
ATOM     18  C   UNL     1      44.577   3.388  11.032  0.00  0.00    +0.000 A 
ATOM     19  C   UNL     1      44.402   2.601   9.901  0.00  0.00    +0.000 A 
ATOM     20  N   UNL     1      44.739   2.991   8.657  0.00  0.00    +0.000 NA
ATOM     21  C   UNL     1      45.269   4.224   8.543  0.00  0.00    +0.000 A 
ATOM     22  C   UNL     1      45.485   5.082   9.616  0.00  0.00    +0.000 A 
ENDBRANCH  14  17
ENDBRANCH  13  14
ENDBRANCH   5  13
TORSDOF 5
ENDMDL
MODEL 4
REMARK VINA RESULT:    -5.671      1.646      2.357
REMARK INTER + INTRA:          -7.750
REMARK INTER:                  -7.166
REMARK INTRA:                  -0.584
REMARK UNBOUND:                -0.422
REMARK  Name = 
REMARK  8 active torsions:
REMARK  status: ('A' for Active; 'I' for Inactive)
REMARK    1  A    between atoms: C_1  and  O_2
REMARK    2  A    between atoms: O_2  and  C_3
REMARK    3  A    between atoms: C_3  and  C_5
REMARK    4  A    between atoms: N_9  and  C_10
REMARK    5  A    between atoms: C_10  and  C_11
REMARK    6  A    between atoms: C_11  and  C_12
REMARK    7  A    between atoms: C_11  and  C_13
REMARK    8  A    between atoms: C_11  and  C_14
REMARK                            x       y       z     vdW  Elec       q    Type
REMARK                         _______ _______ _______ _____ _____    ______ ____
ROOT
ATOM      1  C   UNL     1      44.551   5.090  11.708  0.00  0.00    +0.000 A 
ATOM      2  C   UNL     1      44.474   6.468  11.829  0.00  0.00    +0.000 A 
ATOM      3  C   UNL     1      45.403   7.133  12.627  0.00  0.00    +0.000 A 
ATOM      4  C   UNL     1      46.413   6.422  13.267  0.00  0.00    +0.000 A 
ATOM      5  N   UNL     1      47.397   7.146  13.929  0.00  0.00    +0.000 N 
ATOM      6  N   UNL     1      46.509   5.083  13.142  0.00  0.00    +0.000 NA
ATOM      7  C   UNL     1      45.578   4.438  12.388  0.00  0.00    +0.000 A 
ATOM      8  H   UNL     1      47.072   7.915  14.499  0.00  0.00    +0.000 HD
ENDROOT
BRANCH   1   9
ATOM      9  C   UNL     1      43.610   4.280  10.904  0.00  0.00    +0.000 C 
ATOM     10  O   UNL     1      42.971   3.342  11.353  0.00  0.00    +0.000 OA
BRANCH   9  12
ATOM     11  C   UNL     1      44.516   4.095   8.760  0.00  0.00    +0.000 C 
ATOM     12  O   UNL     1      43.572   4.724   9.619  0.00  0.00    +0.000 OA
ENDBRANCH   9  12
ENDBRANCH   1   9
BRANCH   5  13
ATOM     13  C   UNL     1      48.659   6.493  14.250  0.00  0.00    +0.000 C 
BRANCH  13  14
ATOM     14  C   UNL     1      49.160   6.785  15.704  0.00  0.00    +0.000 C 
ATOM     15  C   UNL     1      50.670   7.117  15.709  0.00  0.00    +0.000 C 
ATOM     16  C   UNL     1      48.408   8.025  16.249  0.00  0.00    +0.000 C 
BRANCH  14  17
ATOM     17  C   UNL     1      48.923   5.526  16.572  0.00  0.00    +0.000 A 
ATOM     18  C   UNL     1      47.680   4.869  16.544  0.00  0.00    +0.000 A 
ATOM     19  C   UNL     1      47.462   3.769  17.362  0.00  0.00    +0.000 A 
ATOM     20  N   UNL     1      48.387   3.261  18.198  0.00  0.00    +0.000 NA
ATOM     21  C   UNL     1      49.582   3.882  18.211  0.00  0.00    +0.000 A 
ATOM     22  C   UNL     1      49.893   4.991  17.431  0.00  0.00    +0.000 A 
ENDBRANCH  14  17
ENDBRANCH  13  14
ENDBRANCH   5  13
TORSDOF 5
ENDMDL
MODEL 5
REMARK VINA RESULT:    -5.552      3.520      4.629
REMARK INTER + INTRA:          -7.597
REMARK INTER:                  -7.078
REMARK INTRA:                  -0.519
REMARK UNBOUND:                -0.422
REMARK  Name = 
REMARK  8 active torsions:
REMARK  status: ('A' for Active; 'I' for Inactive)
REMARK    1  A    between atoms: C_1  and  O_2
REMARK    2  A    between atoms: O_2  and  C_3
REMARK    3  A    between atoms: C_3  and  C_5
REMARK    4  A    between atoms: N_9  and  C_10
REMARK    5  A    between atoms: C_10  and  C_11
REMARK    6  A    between atoms: C_11  and  C_12
REMARK    7  A    between atoms: C_11  and  C_13
REMARK    8  A    between atoms: C_11  and  C_14
REMARK                            x       y       z     vdW  Elec       q    Type
REMARK                         _______ _______ _______ _____ _____    ______ ____
ROOT
ATOM      1  C   UNL     1      44.589   4.122  11.582  0.00  0.00    +0.000 A 
ATOM      2  C   UNL     1      44.805   4.103  12.951  0.00  0.00    +0.000 A 
ATOM      3  C   UNL     1      45.566   5.113  13.534  0.00  0.00    +0.000 A 
ATOM      4  C   UNL     1      46.075   6.146  12.753  0.00  0.00    +0.000 A 
ATOM      5  N   UNL     1      46.701   7.203  13.403  0.00  0.00    +0.000 N 
ATOM      6  N   UNL     1      45.856   6.187  11.423  0.00  0.00    +0.000 NA
ATOM      7  C   UNL     1      45.140   5.177  10.858  0.00  0.00    +0.000 A 
ATOM      8  H   UNL     1      47.343   6.951  14.141  0.00  0.00    +0.000 HD
ENDROOT
BRANCH   1   9
ATOM      9  C   UNL     1      43.813   3.094  10.856  0.00  0.00    +0.000 C 
ATOM     10  O   UNL     1      43.010   2.349  11.393  0.00  0.00    +0.000 OA
BRANCH   9  12
ATOM     11  C   UNL     1      44.914   1.988   9.120  0.00  0.00    +0.000 C 
ATOM     12  O   UNL     1      44.128   3.100   9.533  0.00  0.00    +0.000 OA
ENDBRANCH   9  12
ENDBRANCH   1   9
BRANCH   5  13
ATOM     13  C   UNL     1      46.875   8.464  12.693  0.00  0.00    +0.000 C 
BRANCH  13  14
ATOM     14  C   UNL     1      48.376   8.844  12.459  0.00  0.00    +0.000 C 
ATOM     15  C   UNL     1      49.046   7.852  11.479  0.00  0.00    +0.000 C 
ATOM     16  C   UNL     1      48.438  10.251  11.814  0.00  0.00    +0.000 C 
BRANCH  14  17
ATOM     17  C   UNL     1      49.120   8.784  13.814  0.00  0.00    +0.000 A 
ATOM     18  C   UNL     1      50.097   7.799  14.044  0.00  0.00    +0.000 A 
ATOM     19  C   UNL     1      50.724   7.724  15.281  0.00  0.00    +0.000 A 
ATOM     20  N   UNL     1      50.466   8.560  16.304  0.00  0.00    +0.000 NA
ATOM     21  C   UNL     1      49.543   9.513  16.075  0.00  0.00    +0.000 A 
ATOM     22  C   UNL     1      48.860   9.665  14.873  0.00  0.00    +0.000 A 
ENDBRANCH  14  17
ENDBRANCH  13  14
ENDBRANCH   5  13
TORSDOF 5
ENDMDL
MODEL 6
REMARK VINA RESULT:    -5.445      1.925      3.078
REMARK INTER + INTRA:          -7.458
REMARK INTER:                  -7.029
REMARK INTRA:                  -0.430
REMARK UNBOUND:                -0.422
REMARK  Name = 
REMARK  8 active torsions:
REMARK  status: ('A' for Active; 'I' for Inactive)
REMARK    1  A    between atoms: C_1  and  O_2
REMARK    2  A    between atoms: O_2  and  C_3
REMARK    3  A    between atoms: C_3  and  C_5
REMARK    4  A    between atoms: N_9  and  C_10
REMARK    5  A    between atoms: C_10  and  C_11
REMARK    6  A    between atoms: C_11  and  C_12
REMARK    7  A    between atoms: C_11  and  C_13
REMARK    8  A    between atoms: C_11  and  C_14
REMARK                            x       y       z     vdW  Elec       q    Type
REMARK                         _______ _______ _______ _____ _____    ______ ____
ROOT
ATOM      1  C   UNL     1      45.411   4.768  11.689  0.00  0.00    +0.000 A 
ATOM      2  C   UNL     1      46.184   5.917  11.643  0.00  0.00    +0.000 A 
ATOM      3  C   UNL     1      46.874   6.318  12.785  0.00  0.00    +0.000 A 
ATOM      4  C   UNL     1      46.810   5.555  13.946  0.00  0.00    +0.000 A 
ATOM      5  N   UNL     1      47.630   5.920  15.008  0.00  0.00    +0.000 N 
ATOM      6  N   UNL     1      46.076   4.426  13.999  0.00  0.00    +0.000 NA
ATOM      7  C   UNL     1      45.379   4.060  12.889  0.00  0.00    +0.000 A 
ATOM      8  H   UNL     1      47.668   6.907  15.219  0.00  0.00    +0.000 HD
ENDROOT
BRANCH   1   9
ATOM      9  C   UNL     1      44.624   4.258  10.546  0.00  0.00    +0.000 C 
ATOM     10  O   UNL     1      43.528   4.694  10.232  0.00  0.00    +0.000 OA
BRANCH   9  12
ATOM     11  C   UNL     1      44.462   2.443   9.086  0.00  0.00    +0.000 C 
ATOM     12  O   UNL     1      45.287   3.250   9.918  0.00  0.00    +0.000 OA
ENDBRANCH   9  12
ENDBRANCH   1   9
BRANCH   5  13
ATOM     13  C   UNL     1      47.900   4.946  16.057  0.00  0.00    +0.000 C 
BRANCH  13  14
ATOM     14  C   UNL     1      49.063   5.371  17.017  0.00  0.00    +0.000 C 
ATOM     15  C   UNL     1      49.882   4.138  17.466  0.00  0.00    +0.000 C 
ATOM     16  C   UNL     1      50.022   6.315  16.248  0.00  0.00    +0.000 C 
BRANCH  14  17
ATOM     17  C   UNL     1      48.451   6.046  18.268  0.00  0.00    +0.000 A 
ATOM     18  C   UNL     1      48.273   7.441  18.304  0.00  0.00    +0.000 A 
ATOM     19  C   UNL     1      47.768   8.042  19.450  0.00  0.00    +0.000 A 
ATOM     20  N   UNL     1      47.413   7.364  20.558  0.00  0.00    +0.000 NA
ATOM     21  C   UNL     1      47.569   6.028  20.513  0.00  0.00    +0.000 A 
ATOM     22  C   UNL     1      48.068   5.337  19.414  0.00  0.00    +0.000 A 
ENDBRANCH  14  17
ENDBRANCH  13  14
ENDBRANCH   5  13
TORSDOF 5
ENDMDL
MODEL 7
REMARK VINA RESULT:    -5.384      4.137      5.519
REMARK INTER + INTRA:          -7.379
REMARK INTER:                  -7.029
REMARK INTRA:                  -0.350
REMARK UNBOUND:                -0.422
REMARK  Name = 
REMARK  8 active torsions:
REMARK  status: ('A' for Active; 'I' for Inactive)
REMARK    1  A    between atoms: C_1  and  O_2
REMARK    2  A    between atoms: O_2  and  C_3
REMARK    3  A    between atoms: C_3  and  C_5
REMARK    4  A    between atoms: N_9  and  C_10
REMARK    5  A    between atoms: C_10  and  C_11
REMARK    6  A    between atoms: C_11  and  C_12
REMARK    7  A    between atoms: C_11  and  C_13
REMARK    8  A    between atoms: C_11  and  C_14
REMARK                            x       y       z     vdW  Elec       q    Type
REMARK                         _______ _______ _______ _____ _____    ______ ____
ROOT
ATOM      1  C   UNL     1      44.759   4.055  11.470  0.00  0.00    +0.000 A 
ATOM      2  C   UNL     1      45.218   4.017  12.776  0.00  0.00    +0.000 A 
ATOM      3  C   UNL     1      46.109   4.995  13.213  0.00  0.00    +0.000 A 
ATOM      4  C   UNL     1      46.504   6.016  12.354  0.00  0.00    +0.000 A 
ATOM      5  N   UNL     1      47.276   7.045  12.881  0.00  0.00    +0.000 N 
ATOM      6  N   UNL     1      46.051   6.074  11.086  0.00  0.00    +0.000 NA
ATOM      7  C   UNL     1      45.207   5.095  10.658  0.00  0.00    +0.000 A 
ATOM      8  H   UNL     1      48.032   6.764  13.489  0.00  0.00    +0.000 HD
ENDROOT
BRANCH   1   9
ATOM      9  C   UNL     1      43.828   3.061  10.894  0.00  0.00    +0.000 C 
ATOM     10  O   UNL     1      43.040   2.409  11.561  0.00  0.00    +0.000 OA
BRANCH   9  12
ATOM     11  C   UNL     1      44.796   1.891   9.121  0.00  0.00    +0.000 C 
ATOM     12  O   UNL     1      43.984   2.980   9.546  0.00  0.00    +0.000 OA
ENDBRANCH   9  12
ENDBRANCH   1   9
BRANCH   5  13
ATOM     13  C   UNL     1      47.364   8.304  12.153  0.00  0.00    +0.000 C 
BRANCH  13  14
ATOM     14  C   UNL     1      48.477   9.262  12.699  0.00  0.00    +0.000 C 
ATOM     15  C   UNL     1      48.029  10.739  12.595  0.00  0.00    +0.000 C 
ATOM     16  C   UNL     1      48.711   8.949  14.198  0.00  0.00    +0.000 C 
BRANCH  14  17
ATOM     17  C   UNL     1      49.757   9.068  11.851  0.00  0.00    +0.000 A 
ATOM     18  C   UNL     1      50.445  10.184  11.342  0.00  0.00    +0.000 A 
ATOM     19  C   UNL     1      51.565   9.998  10.542  0.00  0.00    +0.000 A 
ATOM     20  N   UNL     1      52.063   8.789  10.219  0.00  0.00    +0.000 NA
ATOM     21  C   UNL     1      51.411   7.724  10.722  0.00  0.00    +0.000 A 
ATOM     22  C   UNL     1      50.281   7.810  11.528  0.00  0.00    +0.000 A 
ENDBRANCH  14  17
ENDBRANCH  13  14
ENDBRANCH   5  13
TORSDOF 5
ENDMDL
MODEL 8
REMARK VINA RESULT:    -5.322      4.028      6.533
REMARK INTER + INTRA:          -7.299
REMARK INTER:                  -6.557
REMARK INTRA:                  -0.742
REMARK UNBOUND:                -0.422
REMARK  Name = 
REMARK  8 active torsions:
REMARK  status: ('A' for Active; 'I' for Inactive)
REMARK    1  A    between atoms: C_1  and  O_2
REMARK    2  A    between atoms: O_2  and  C_3
REMARK    3  A    between atoms: C_3  and  C_5
REMARK    4  A    between atoms: N_9  and  C_10
REMARK    5  A    between atoms: C_10  and  C_11
REMARK    6  A    between atoms: C_11  and  C_12
REMARK    7  A    between atoms: C_11  and  C_13
REMARK    8  A    between atoms: C_11  and  C_14
REMARK                            x       y       z     vdW  Elec       q    Type
REMARK                         _______ _______ _______ _____ _____    ______ ____
ROOT
ATOM      1  C   UNL     1      44.990   4.684  11.612  0.00  0.00    +0.000 A 
ATOM      2  C   UNL     1      45.537   4.414  12.856  0.00  0.00    +0.000 A 
ATOM      3  C   UNL     1      46.687   5.091  13.255  0.00  0.00    +0.000 A 
ATOM      4  C   UNL     1      47.257   6.051  12.426  0.00  0.00    +0.000 A 
ATOM      5  N   UNL     1      48.314   6.800  12.932  0.00  0.00    +0.000 N 
ATOM      6  N   UNL     1      46.724   6.337  11.222  0.00  0.00    +0.000 NA
ATOM      7  C   UNL     1      45.621   5.646  10.826  0.00  0.00    +0.000 A 
ATOM      8  H   UNL     1      49.021   6.283  13.435  0.00  0.00    +0.000 HD
ENDROOT
BRANCH   1   9
ATOM      9  C   UNL     1      43.784   4.014  11.079  0.00  0.00    +0.000 C 
ATOM     10  O   UNL     1      43.783   3.331  10.067  0.00  0.00    +0.000 OA
BRANCH   9  12
ATOM     11  C   UNL     1      42.255   5.623  11.801  0.00  0.00    +0.000 C 
ATOM     12  O   UNL     1      42.704   4.275  11.862  0.00  0.00    +0.000 OA
ENDBRANCH   9  12
ENDBRANCH   1   9
BRANCH   5  13
ATOM     13  C   UNL     1      48.663   8.056  12.281  0.00  0.00    +0.000 C 
BRANCH  13  14
ATOM     14  C   UNL     1      48.180   9.320  13.069  0.00  0.00    +0.000 C 
ATOM     15  C   UNL     1      47.855   8.961  14.538  0.00  0.00    +0.000 C 
ATOM     16  C   UNL     1      49.325  10.364  13.085  0.00  0.00    +0.000 C 
BRANCH  14  17
ATOM     17  C   UNL     1      46.898   9.865  12.394  0.00  0.00    +0.000 A 
ATOM     18  C   UNL     1      46.966  10.983  11.544  0.00  0.00    +0.000 A 
ATOM     19  C   UNL     1      45.803  11.494  10.982  0.00  0.00    +0.000 A 
ATOM     20  N   UNL     1      44.579  10.972  11.187  0.00  0.00    +0.000 NA
ATOM     21  C   UNL     1      44.520   9.891  11.988  0.00  0.00    +0.000 A 
ATOM     22  C   UNL     1      45.628   9.311  12.598  0.00  0.00    +0.000 A 
ENDBRANCH  14  17
ENDBRANCH  13  14
ENDBRANCH   5  13
TORSDOF 5
ENDMDL
MODEL 9
REMARK VINA RESULT:    -5.315      4.038      8.127
REMARK INTER + INTRA:          -7.290
REMARK INTER:                  -6.900
REMARK INTRA:                  -0.390
REMARK UNBOUND:                -0.422
REMARK  Name = 
REMARK  8 active torsions:
REMARK  status: ('A' for Active; 'I' for Inactive)
REMARK    1  A    between atoms: C_1  and  O_2
REMARK    2  A    between atoms: O_2  and  C_3
REMARK    3  A    between atoms: C_3  and  C_5
REMARK    4  A    between atoms: N_9  and  C_10
REMARK    5  A    between atoms: C_10  and  C_11
REMARK    6  A    between atoms: C_11  and  C_12
REMARK    7  A    between atoms: C_11  and  C_13
REMARK    8  A    between atoms: C_11  and  C_14
REMARK                            x       y       z     vdW  Elec       q    Type
REMARK                         _______ _______ _______ _____ _____    ______ ____
ROOT
ATOM      1  C   UNL     1      49.162   5.190  17.884  0.00  0.00    +0.000 A 
ATOM      2  C   UNL     1      49.333   6.492  17.441  0.00  0.00    +0.000 A 
ATOM      3  C   UNL     1      48.874   6.845  16.174  0.00  0.00    +0.000 A 
ATOM      4  C   UNL     1      48.224   5.908  15.378  0.00  0.00    +0.000 A 
ATOM      5  N   UNL     1      47.658   6.348  14.187  0.00  0.00    +0.000 N 
ATOM      6  N   UNL     1      48.035   4.643  15.804  0.00  0.00    +0.000 NA
ATOM      7  C   UNL     1      48.516   4.298  17.030  0.00  0.00    +0.000 A 
ATOM      8  H   UNL     1      48.228   6.970  13.631  0.00  0.00    +0.000 HD
ENDROOT
BRANCH   1   9
ATOM      9  C   UNL     1      49.624   4.700  19.200  0.00  0.00    +0.000 C 
ATOM     10  O   UNL     1      48.909   4.643  20.188  0.00  0.00    +0.000 OA
BRANCH   9  12
ATOM     11  C   UNL     1      51.802   5.203  19.869  0.00  0.00    +0.000 C 
ATOM     12  O   UNL     1      50.933   4.339  19.147  0.00  0.00    +0.000 OA
ENDBRANCH   9  12
ENDBRANCH   1   9
BRANCH   5  13
ATOM     13  C   UNL     1      46.643   5.526  13.542  0.00  0.00    +0.000 C 
BRANCH  13  14
ATOM     14  C   UNL     1      46.060   6.168  12.238  0.00  0.00    +0.000 C 
ATOM     15  C   UNL     1      45.031   7.271  12.581  0.00  0.00    +0.000 C 
ATOM     16  C   UNL     1      47.216   6.835  11.451  0.00  0.00    +0.000 C 
BRANCH  14  17
ATOM     17  C   UNL     1      45.351   5.064  11.417  0.00  0.00    +0.000 A 
ATOM     18  C   UNL     1      45.363   5.107  10.011  0.00  0.00    +0.000 A 
ATOM     19  C   UNL     1      44.683   4.139   9.285  0.00  0.00    +0.000 A 
ATOM     20  N   UNL     1      44.003   3.121   9.845  0.00  0.00    +0.000 NA
ATOM     21  C   UNL     1      44.007   3.073  11.191  0.00  0.00    +0.000 A 
ATOM     22  C   UNL     1      44.655   3.998  12.003  0.00  0.00    +0.000 A 
ENDBRANCH  14  17
ENDBRANCH  13  14
ENDBRANCH   5  13
TORSDOF 5
ENDMDL
