MODEL 1
REMARK VINA RESULT:    -7.428      0.000      0.000
REMARK INTER + INTRA:         -12.489
REMARK INTER:                 -10.902
REMARK INTRA:                  -1.587
REMARK UNBOUND:                -1.587
REMARK  Name = 
REMARK  11 active torsions:
REMARK  status: ('A' for Active; 'I' for Inactive)
REMARK    1  A    between atoms: C_1  and  C_2
REMARK    2  A    between atoms: C_3  and  N_4
REMARK    3  A    between atoms: N_4  and  C_5
REMARK    4  A    between atoms: C_5  and  C_6
REMARK    5  A    between atoms: C_6  and  C_9
REMARK    6  A    between atoms: N_14  and  C_15
REMARK    7  A    between atoms: C_23  and  C_24
REMARK    8  A    between atoms: C_25  and  C_26
REMARK    9  A    between atoms: C_26  and  C_27
REMARK   10  A    between atoms: C_26  and  C_28
REMARK   11  A    between atoms: C_26  and  C_29
REMARK                            x       y       z     vdW  Elec       q    Type
REMARK                         _______ _______ _______ _____ _____    ______ ____
ROOT
ATOM      1  N   UNL     1      46.814   6.186  11.454  0.00  0.00    +0.000 N 
ATOM      2  H   UNL     1      46.800   5.176  11.312  0.00  0.00    +0.000 HD
ENDROOT
BRANCH   1   5
ATOM      3  C   UNL     1      46.722   4.402  13.851  0.00  0.00    +0.000 C 
ATOM      4  C   UNL     1      47.429   5.732  13.827  0.00  0.00    +0.000 A 
ATOM      5  C   UNL     1      47.423   6.568  12.678  0.00  0.00    +0.000 A 
ATOM      6  C   UNL     1      48.154   7.766  12.755  0.00  0.00    +0.000 A 
ATOM      7  C   UNL     1      48.795   8.120  13.918  0.00  0.00    +0.000 A 
ATOM      8  N   UNL     1      48.800   7.357  15.012  0.00  0.00    +0.000 NA
ATOM      9  C   UNL     1      48.144   6.169  14.972  0.00  0.00    +0.000 A 
BRANCH   9  10
ATOM     10  C   UNL     1      48.271   5.407  16.246  0.00  0.00    +0.000 C 
ATOM     11  C   UNL     1      49.157   4.396  16.395  0.00  0.00    +0.000 C 
BRANCH  11  12
ATOM     12  C   UNL     1      49.481   3.545  17.618  0.00  0.00    +0.000 C 
ATOM     13  C   UNL     1      50.365   4.383  18.562  0.00  0.00    +0.000 C 
ATOM     14  C   UNL     1      48.231   3.095  18.394  0.00  0.00    +0.000 C 
BRANCH  12  15
ATOM     15  C   UNL     1      50.265   2.273  17.186  0.00  0.00    +0.000 C 
ATOM     16  N   UNL     1      51.312   1.883  17.973  0.00  0.00    +0.000 N 
ATOM     17  O   UNL     1      49.979   1.590  16.204  0.00  0.00    +0.000 OA
ATOM     18  H   UNL     1      51.732   2.489  18.664  0.00  0.00    +0.000 HD
ATOM     19  H   UNL     1      51.847   1.087  17.650  0.00  0.00    +0.000 HD
ENDBRANCH  12  15
ENDBRANCH  11  12
ENDBRANCH   9  10
ENDBRANCH   1   5
BRANCH   1  20
ATOM     20  C   UNL     1      45.523   6.855  11.109  0.00  0.00    +0.000 C 
BRANCH  20  21
ATOM     21  C   UNL     1      44.210   6.235  11.642  0.00  0.00    +0.000 C 
ATOM     22  F   UNL     1      44.154   6.377  13.000  0.00  0.00    +0.000 F 
ATOM     23  F   UNL     1      43.161   6.974  11.161  0.00  0.00    +0.000 F 
BRANCH  21  24
ATOM     24  C   UNL     1      44.099   4.762  11.222  0.00  0.00    +0.000 A 
ATOM     25  C   UNL     1      43.359   3.894  12.002  0.00  0.00    +0.000 A 
ATOM     26  C   UNL     1      43.268   2.601  11.546  0.00  0.00    +0.000 A 
ATOM     27  N   UNL     1      43.843   2.166  10.407  0.00  0.00    +0.000 NA
ATOM     28  C   UNL     1      44.551   3.056   9.711  0.00  0.00    +0.000 A 
ATOM     29  N   UNL     1      45.117   2.585   8.526  0.00  0.00    +0.000 N 
ATOM     30  N   UNL     1      44.717   4.335  10.084  0.00  0.00    +0.000 NA
ATOM     31  H   UNL     1      44.979   1.580   8.530  0.00  0.00    +0.000 HD
BRANCH  29  32
ATOM     32  C   UNL     1      46.383   3.018   8.015  0.00  0.00    +0.000 C 
ATOM     33  C   UNL     1      46.350   3.608   6.594  0.00  0.00    +0.000 C 
ATOM     34  N   UNL     1      47.503   2.755   6.224  0.00  0.00    +0.000 NA
ATOM     35  C   UNL     1      47.201   1.874   7.374  0.00  0.00    +0.000 C 
ATOM     36  H   UNL     1      48.403   3.228   6.301  0.00  0.00    +0.000 HD
ENDBRANCH  29  32
ENDBRANCH  21  24
ENDBRANCH  20  21
ENDBRANCH   1  20
TORSDOF 8
ENDMDL
MODEL 2
REMARK VINA RESULT:    -7.113      2.192      2.451
REMARK INTER + INTRA:         -12.026
REMARK INTER:                 -10.992
REMARK INTRA:                  -1.034
REMARK UNBOUND:                -1.587
REMARK  Name = 
REMARK  11 active torsions:
REMARK  status: ('A' for Active; 'I' for Inactive)
REMARK    1  A    between atoms: C_1  and  C_2
REMARK    2  A    between atoms: C_3  and  N_4
REMARK    3  A    between atoms: N_4  and  C_5
REMARK    4  A    between atoms: C_5  and  C_6
REMARK    5  A    between atoms: C_6  and  C_9
REMARK    6  A    between atoms: N_14  and  C_15
REMARK    7  A    between atoms: C_23  and  C_24
REMARK    8  A    between atoms: C_25  and  C_26
REMARK    9  A    between atoms: C_26  and  C_27
REMARK   10  A    between atoms: C_26  and  C_28
REMARK   11  A    between atoms: C_26  and  C_29
REMARK                            x       y       z     vdW  Elec       q    Type
REMARK                         _______ _______ _______ _____ _____    ______ ____
ROOT
ATOM      1  N   UNL     1      47.010   5.199  13.175  0.00  0.00    +0.000 N 
ATOM      2  H   UNL     1      46.891   4.223  13.447  0.00  0.00    +0.000 HD
ENDROOT
BRANCH   1   5
ATOM      3  C   UNL     1      47.331   4.285  16.004  0.00  0.00    +0.000 C 
ATOM      4  C   UNL     1      47.977   5.528  15.449  0.00  0.00    +0.000 A 
ATOM      5  C   UNL     1      47.774   5.948  14.107  0.00  0.00    +0.000 A 
ATOM      6  C   UNL     1      48.464   7.098  13.686  0.00  0.00    +0.000 A 
ATOM      7  C   UNL     1      49.252   7.802  14.564  0.00  0.00    +0.000 A 
ATOM      8  N   UNL     1      49.444   7.433  15.832  0.00  0.00    +0.000 NA
ATOM      9  C   UNL     1      48.834   6.303  16.273  0.00  0.00    +0.000 A 
BRANCH   9  10
ATOM     10  C   UNL     1      49.172   5.992  17.690  0.00  0.00    +0.000 C 
ATOM     11  C   UNL     1      48.437   6.459  18.725  0.00  0.00    +0.000 C 
BRANCH  11  12
ATOM     12  C   UNL     1      48.576   6.208  20.223  0.00  0.00    +0.000 C 
ATOM     13  C   UNL     1      49.457   7.327  20.814  0.00  0.00    +0.000 C 
ATOM     14  C   UNL     1      47.230   6.205  20.966  0.00  0.00    +0.000 C 
BRANCH  12  15
ATOM     15  C   UNL     1      49.267   4.836  20.470  0.00  0.00    +0.000 C 
ATOM     16  N   UNL     1      48.501   3.713  20.335  0.00  0.00    +0.000 N 
ATOM     17  O   UNL     1      50.459   4.708  20.747  0.00  0.00    +0.000 OA
ATOM     18  H   UNL     1      47.491   3.741  20.313  0.00  0.00    +0.000 HD
ATOM     19  H   UNL     1      48.948   2.833  20.553  0.00  0.00    +0.000 HD
ENDBRANCH  12  15
ENDBRANCH  11  12
ENDBRANCH   9  10
ENDBRANCH   1   5
BRANCH   1  20
ATOM     20  C   UNL     1      45.754   5.834  12.671  0.00  0.00    +0.000 C 
BRANCH  20  21
ATOM     21  C   UNL     1      45.576   5.997  11.144  0.00  0.00    +0.000 C 
ATOM     22  F   UNL     1      44.674   6.991  10.890  0.00  0.00    +0.000 F 
ATOM     23  F   UNL     1      46.759   6.445  10.619  0.00  0.00    +0.000 F 
BRANCH  21  24
ATOM     24  C   UNL     1      45.146   4.667  10.506  0.00  0.00    +0.000 A 
ATOM     25  C   UNL     1      44.249   3.858  11.177  0.00  0.00    +0.000 A 
ATOM     26  C   UNL     1      43.877   2.703  10.531  0.00  0.00    +0.000 A 
ATOM     27  N   UNL     1      44.327   2.349   9.311  0.00  0.00    +0.000 NA
ATOM     28  C   UNL     1      45.199   3.173   8.727  0.00  0.00    +0.000 A 
ATOM     29  N   UNL     1      45.632   2.794   7.457  0.00  0.00    +0.000 N 
ATOM     30  N   UNL     1      45.639   4.312   9.286  0.00  0.00    +0.000 NA
ATOM     31  H   UNL     1      45.282   1.852   7.312  0.00  0.00    +0.000 HD
BRANCH  29  32
ATOM     32  C   UNL     1      46.952   3.030   6.957  0.00  0.00    +0.000 C 
ATOM     33  C   UNL     1      47.111   2.896   5.432  0.00  0.00    +0.000 C 
ATOM     34  N   UNL     1      48.309   2.052   5.640  0.00  0.00    +0.000 NA
ATOM     35  C   UNL     1      47.858   1.779   7.023  0.00  0.00    +0.000 C 
ATOM     36  H   UNL     1      49.187   2.568   5.595  0.00  0.00    +0.000 HD
ENDBRANCH  29  32
ENDBRANCH  21  24
ENDBRANCH  20  21
ENDBRANCH   1  20
TORSDOF 8
ENDMDL
MODEL 3
REMARK VINA RESULT:    -6.710      3.569      4.883
REMARK INTER + INTRA:         -11.436
REMARK INTER:                 -10.592
REMARK INTRA:                  -0.844
REMARK UNBOUND:                -1.587
REMARK  Name = 
REMARK  11 active torsions:
REMARK  status: ('A' for Active; 'I' for Inactive)
REMARK    1  A    between atoms: C_1  and  C_2
REMARK    2  A    between atoms: C_3  and  N_4
REMARK    3  A    between atoms: N_4  and  C_5
REMARK    4  A    between atoms: C_5  and  C_6
REMARK    5  A    between atoms: C_6  and  C_9
REMARK    6  A    between atoms: N_14  and  C_15
REMARK    7  A    between atoms: C_23  and  C_24
REMARK    8  A    between atoms: C_25  and  C_26
REMARK    9  A    between atoms: C_26  and  C_27
REMARK   10  A    between atoms: C_26  and  C_28
REMARK   11  A    between atoms: C_26  and  C_29
REMARK                            x       y       z     vdW  Elec       q    Type
REMARK                         _______ _______ _______ _____ _____    ______ ____
ROOT
ATOM      1  N   UNL     1      46.042   7.247  13.324  0.00  0.00    +0.000 N 
ATOM      2  H   UNL     1      45.148   7.643  13.615  0.00  0.00    +0.000 HD
ENDROOT
BRANCH   1   5
ATOM      3  C   UNL     1      48.982   6.716  13.220  0.00  0.00    +0.000 C 
ATOM      4  C   UNL     1      48.346   7.990  12.729  0.00  0.00    +0.000 A 
ATOM      5  C   UNL     1      46.947   8.220  12.825  0.00  0.00    +0.000 A 
ATOM      6  C   UNL     1      46.459   9.426  12.292  0.00  0.00    +0.000 A 
ATOM      7  C   UNL     1      47.320  10.352  11.755  0.00  0.00    +0.000 A 
ATOM      8  N   UNL     1      48.637  10.162  11.669  0.00  0.00    +0.000 NA
ATOM      9  C   UNL     1      49.151   8.994  12.130  0.00  0.00    +0.000 A 
BRANCH   9  10
ATOM     10  C   UNL     1      50.625   8.903  11.930  0.00  0.00    +0.000 C 
ATOM     11  C   UNL     1      51.174   8.150  10.950  0.00  0.00    +0.000 C 
BRANCH  11  12
ATOM     12  C   UNL     1      52.634   7.975  10.545  0.00  0.00    +0.000 C 
ATOM     13  C   UNL     1      53.048   9.201   9.709  0.00  0.00    +0.000 C 
ATOM     14  C   UNL     1      53.588   7.860  11.746  0.00  0.00    +0.000 C 
BRANCH  12  15
ATOM     15  C   UNL     1      52.794   6.693   9.678  0.00  0.00    +0.000 C 
ATOM     16  N   UNL     1      53.322   5.588  10.282  0.00  0.00    +0.000 N 
ATOM     17  O   UNL     1      52.447   6.614   8.500  0.00  0.00    +0.000 OA
ATOM     18  H   UNL     1      53.811   5.629  11.165  0.00  0.00    +0.000 HD
ATOM     19  H   UNL     1      53.472   4.779   9.692  0.00  0.00    +0.000 HD
ENDBRANCH  12  15
ENDBRANCH  11  12
ENDBRANCH   9  10
ENDBRANCH   1   5
BRANCH   1  20
ATOM     20  C   UNL     1      45.905   5.988  12.530  0.00  0.00    +0.000 C 
BRANCH  20  21
ATOM     21  C   UNL     1      45.596   6.103  11.019  0.00  0.00    +0.000 C 
ATOM     22  F   UNL     1      44.631   7.048  10.819  0.00  0.00    +0.000 F 
ATOM     23  F   UNL     1      46.711   6.591  10.389  0.00  0.00    +0.000 F 
BRANCH  21  24
ATOM     24  C   UNL     1      45.180   4.739  10.448  0.00  0.00    +0.000 A 
ATOM     25  C   UNL     1      44.303   3.950  11.165  0.00  0.00    +0.000 A 
ATOM     26  C   UNL     1      43.941   2.761  10.577  0.00  0.00    +0.000 A 
ATOM     27  N   UNL     1      44.384   2.358   9.369  0.00  0.00    +0.000 NA
ATOM     28  C   UNL     1      45.236   3.166   8.738  0.00  0.00    +0.000 A 
ATOM     29  N   UNL     1      45.661   2.736   7.482  0.00  0.00    +0.000 N 
ATOM     30  N   UNL     1      45.666   4.336   9.239  0.00  0.00    +0.000 NA
ATOM     31  H   UNL     1      45.324   1.783   7.384  0.00  0.00    +0.000 HD
BRANCH  29  32
ATOM     32  C   UNL     1      46.973   2.968   6.957  0.00  0.00    +0.000 C 
ATOM     33  C   UNL     1      47.103   2.827   5.429  0.00  0.00    +0.000 C 
ATOM     34  N   UNL     1      48.304   1.982   5.619  0.00  0.00    +0.000 NA
ATOM     35  C   UNL     1      47.878   1.716   7.011  0.00  0.00    +0.000 C 
ATOM     36  H   UNL     1      49.181   2.497   5.555  0.00  0.00    +0.000 HD
ENDBRANCH  29  32
ENDBRANCH  21  24
ENDBRANCH  20  21
ENDBRANCH   1  20
TORSDOF 8
ENDMDL
MODEL 4
REMARK VINA RESULT:    -6.686      2.049      3.174
REMARK INTER + INTRA:         -11.400
REMARK INTER:                 -10.498
REMARK INTRA:                  -0.902
REMARK UNBOUND:                -1.587
REMARK  Name = 
REMARK  11 active torsions:
REMARK  status: ('A' for Active; 'I' for Inactive)
REMARK    1  A    between atoms: C_1  and  C_2
REMARK    2  A    between atoms: C_3  and  N_4
REMARK    3  A    between atoms: N_4  and  C_5
REMARK    4  A    between atoms: C_5  and  C_6
REMARK    5  A    between atoms: C_6  and  C_9
REMARK    6  A    between atoms: N_14  and  C_15
REMARK    7  A    between atoms: C_23  and  C_24
REMARK    8  A    between atoms: C_25  and  C_26
REMARK    9  A    between atoms: C_26  and  C_27
REMARK   10  A    between atoms: C_26  and  C_28
REMARK   11  A    between atoms: C_26  and  C_29
REMARK                            x       y       z     vdW  Elec       q    Type
REMARK                         _______ _______ _______ _____ _____    ______ ____
ROOT
ATOM      1  N   UNL     1      47.205   5.881  14.690  0.00  0.00    +0.000 N 
ATOM      2  H   UNL     1      47.690   6.774  14.599  0.00  0.00    +0.000 HD
ENDROOT
BRANCH   1   5
ATOM      3  C   UNL     1      49.811   6.537  16.002  0.00  0.00    +0.000 C 
ATOM      4  C   UNL     1      48.956   5.359  16.386  0.00  0.00    +0.000 A 
ATOM      5  C   UNL     1      47.738   5.059  15.717  0.00  0.00    +0.000 A 
ATOM      6  C   UNL     1      47.001   3.961  16.192  0.00  0.00    +0.000 A 
ATOM      7  C   UNL     1      47.480   3.190  17.224  0.00  0.00    +0.000 A 
ATOM      8  N   UNL     1      48.627   3.445  17.855  0.00  0.00    +0.000 NA
ATOM      9  C   UNL     1      49.353   4.522  17.462  0.00  0.00    +0.000 A 
BRANCH   9  10
ATOM     10  C   UNL     1      50.584   4.708  18.281  0.00  0.00    +0.000 C 
ATOM     11  C   UNL     1      51.736   4.056  18.008  0.00  0.00    +0.000 C 
BRANCH  11  12
ATOM     12  C   UNL     1      53.104   4.152  18.676  0.00  0.00    +0.000 C 
ATOM     13  C   UNL     1      54.146   4.472  17.587  0.00  0.00    +0.000 C 
ATOM     14  C   UNL     1      53.177   5.245  19.756  0.00  0.00    +0.000 C 
BRANCH  12  15
ATOM     15  C   UNL     1      53.467   2.793  19.340  0.00  0.00    +0.000 C 
ATOM     16  N   UNL     1      53.137   1.654  18.662  0.00  0.00    +0.000 N 
ATOM     17  O   UNL     1      54.055   2.690  20.416  0.00  0.00    +0.000 OA
ATOM     18  H   UNL     1      52.484   1.647  17.890  0.00  0.00    +0.000 HD
ATOM     19  H   UNL     1      53.328   0.778  19.130  0.00  0.00    +0.000 HD
ENDBRANCH  12  15
ENDBRANCH  11  12
ENDBRANCH   9  10
ENDBRANCH   1   5
BRANCH   1  20
ATOM     20  C   UNL     1      46.924   5.220  13.379  0.00  0.00    +0.000 C 
BRANCH  20  21
ATOM     21  C   UNL     1      45.761   5.764  12.518  0.00  0.00    +0.000 C 
ATOM     22  F   UNL     1      44.933   6.526  13.293  0.00  0.00    +0.000 F 
ATOM     23  F   UNL     1      46.281   6.629  11.592  0.00  0.00    +0.000 F 
BRANCH  21  24
ATOM     24  C   UNL     1      45.001   4.610  11.845  0.00  0.00    +0.000 A 
ATOM     25  C   UNL     1      43.980   3.986  12.533  0.00  0.00    +0.000 A 
ATOM     26  C   UNL     1      43.317   2.990  11.857  0.00  0.00    +0.000 A 
ATOM     27  N   UNL     1      43.608   2.621  10.593  0.00  0.00    +0.000 NA
ATOM     28  C   UNL     1      44.613   3.260   9.994  0.00  0.00    +0.000 A 
ATOM     29  N   UNL     1      44.878   2.874   8.680  0.00  0.00    +0.000 N 
ATOM     30  N   UNL     1      45.334   4.231  10.578  0.00  0.00    +0.000 NA
ATOM     31  H   UNL     1      44.313   2.049   8.512  0.00  0.00    +0.000 HD
BRANCH  29  32
ATOM     32  C   UNL     1      46.188   2.835   8.106  0.00  0.00    +0.000 C 
ATOM     33  C   UNL     1      46.250   3.107   6.592  0.00  0.00    +0.000 C 
ATOM     34  N   UNL     1      47.117   1.919   6.423  0.00  0.00    +0.000 NA
ATOM     35  C   UNL     1      46.643   1.407   7.728  0.00  0.00    +0.000 C 
ATOM     36  H   UNL     1      48.112   2.136   6.411  0.00  0.00    +0.000 HD
ENDBRANCH  29  32
ENDBRANCH  21  24
ENDBRANCH  20  21
ENDBRANCH   1  20
TORSDOF 8
ENDMDL
MODEL 5
REMARK VINA RESULT:    -6.555      3.302      8.347
REMARK INTER + INTRA:         -11.208
REMARK INTER:                 -10.013
REMARK INTRA:                  -1.195
REMARK UNBOUND:                -1.587
REMARK  Name = 
REMARK  11 active torsions:
REMARK  status: ('A' for Active; 'I' for Inactive)
REMARK    1  A    between atoms: C_1  and  C_2
REMARK    2  A    between atoms: C_3  and  N_4
REMARK    3  A    between atoms: N_4  and  C_5
REMARK    4  A    between atoms: C_5  and  C_6
REMARK    5  A    between atoms: C_6  and  C_9
REMARK    6  A    between atoms: N_14  and  C_15
REMARK    7  A    between atoms: C_23  and  C_24
REMARK    8  A    between atoms: C_25  and  C_26
REMARK    9  A    between atoms: C_26  and  C_27
REMARK   10  A    between atoms: C_26  and  C_28
REMARK   11  A    between atoms: C_26  and  C_29
REMARK                            x       y       z     vdW  Elec       q    Type
REMARK                         _______ _______ _______ _____ _____    ______ ____
ROOT
ATOM      1  N   UNL     1      48.688   7.262  15.917  0.00  0.00    +0.000 N 
ATOM      2  H   UNL     1      49.460   6.595  15.915  0.00  0.00    +0.000 HD
ENDROOT
BRANCH   1   5
ATOM      3  C   UNL     1      47.358   5.063  14.389  0.00  0.00    +0.000 C 
ATOM      4  C   UNL     1      47.474   6.478  13.887  0.00  0.00    +0.000 A 
ATOM      5  C   UNL     1      48.143   7.490  14.627  0.00  0.00    +0.000 A 
ATOM      6  C   UNL     1      48.148   8.785  14.080  0.00  0.00    +0.000 A 
ATOM      7  C   UNL     1      47.574   9.029  12.856  0.00  0.00    +0.000 A 
ATOM      8  N   UNL     1      46.955   8.091  12.138  0.00  0.00    +0.000 NA
ATOM      9  C   UNL     1      46.884   6.834  12.645  0.00  0.00    +0.000 A 
BRANCH   9  10
ATOM     10  C   UNL     1      46.129   5.905  11.758  0.00  0.00    +0.000 C 
ATOM     11  C   UNL     1      44.892   5.458  12.070  0.00  0.00    +0.000 C 
BRANCH  11  12
ATOM     12  C   UNL     1      43.940   4.566  11.280  0.00  0.00    +0.000 C 
ATOM     13  C   UNL     1      42.518   5.144  11.419  0.00  0.00    +0.000 C 
ATOM     14  C   UNL     1      44.287   4.482   9.784  0.00  0.00    +0.000 C 
BRANCH  12  15
ATOM     15  C   UNL     1      43.959   3.123  11.861  0.00  0.00    +0.000 C 
ATOM     16  N   UNL     1      45.072   2.740  12.554  0.00  0.00    +0.000 N 
ATOM     17  O   UNL     1      43.026   2.329  11.756  0.00  0.00    +0.000 OA
ATOM     18  H   UNL     1      45.945   3.247  12.510  0.00  0.00    +0.000 HD
ATOM     19  H   UNL     1      45.094   1.782  12.878  0.00  0.00    +0.000 HD
ENDBRANCH  12  15
ENDBRANCH  11  12
ENDBRANCH   9  10
ENDBRANCH   1   5
BRANCH   1  20
ATOM     20  C   UNL     1      48.948   8.470  16.759  0.00  0.00    +0.000 C 
BRANCH  20  21
ATOM     21  C   UNL     1      48.546   8.424  18.252  0.00  0.00    +0.000 C 
ATOM     22  F   UNL     1      48.743   9.652  18.818  0.00  0.00    +0.000 F 
ATOM     23  F   UNL     1      47.195   8.208  18.326  0.00  0.00    +0.000 F 
BRANCH  21  24
ATOM     24  C   UNL     1      49.333   7.329  18.989  0.00  0.00    +0.000 A 
ATOM     25  C   UNL     1      50.004   7.651  20.152  0.00  0.00    +0.000 A 
ATOM     26  C   UNL     1      50.653   6.615  20.781  0.00  0.00    +0.000 A 
ATOM     27  N   UNL     1      50.650   5.345  20.329  0.00  0.00    +0.000 NA
ATOM     28  C   UNL     1      49.989   5.110  19.195  0.00  0.00    +0.000 A 
ATOM     29  N   UNL     1      49.984   3.784  18.762  0.00  0.00    +0.000 N 
ATOM     30  N   UNL     1      49.344   6.058  18.496  0.00  0.00    +0.000 NA
ATOM     31  H   UNL     1      50.640   3.292  19.359  0.00  0.00    +0.000 HD
BRANCH  29  32
ATOM     32  C   UNL     1      50.009   3.391  17.385  0.00  0.00    +0.000 C 
ATOM     33  C   UNL     1      48.771   2.616  16.901  0.00  0.00    +0.000 C 
ATOM     34  N   UNL     1      49.657   1.608  16.276  0.00  0.00    +0.000 NA
ATOM     35  C   UNL     1      50.763   2.062  17.148  0.00  0.00    +0.000 C 
ATOM     36  H   UNL     1      49.829   1.772  15.285  0.00  0.00    +0.000 HD
ENDBRANCH  29  32
ENDBRANCH  21  24
ENDBRANCH  20  21
ENDBRANCH   1  20
TORSDOF 8
ENDMDL
MODEL 6
REMARK VINA RESULT:    -6.423      2.183      2.473
REMARK INTER + INTRA:         -11.014
REMARK INTER:                  -9.792
REMARK INTRA:                  -1.222
REMARK UNBOUND:                -1.587
REMARK  Name = 
REMARK  11 active torsions:
REMARK  status: ('A' for Active; 'I' for Inactive)
REMARK    1  A    between atoms: C_1  and  C_2
REMARK    2  A    between atoms: C_3  and  N_4
REMARK    3  A    between atoms: N_4  and  C_5
REMARK    4  A    between atoms: C_5  and  C_6
REMARK    5  A    between atoms: C_6  and  C_9
REMARK    6  A    between atoms: N_14  and  C_15
REMARK    7  A    between atoms: C_23  and  C_24
REMARK    8  A    between atoms: C_25  and  C_26
REMARK    9  A    between atoms: C_26  and  C_27
REMARK   10  A    between atoms: C_26  and  C_28
REMARK   11  A    between atoms: C_26  and  C_29
REMARK                            x       y       z     vdW  Elec       q    Type
REMARK                         _______ _______ _______ _____ _____    ______ ____
ROOT
ATOM      1  N   UNL     1      46.767   6.203  11.377  0.00  0.00    +0.000 N 
ATOM      2  H   UNL     1      46.675   5.187  11.369  0.00  0.00    +0.000 HD
ENDROOT
BRANCH   1   5
ATOM      3  C   UNL     1      46.745   4.828  14.032  0.00  0.00    +0.000 C 
ATOM      4  C   UNL     1      47.590   6.036  13.724  0.00  0.00    +0.000 A 
ATOM      5  C   UNL     1      47.550   6.683  12.460  0.00  0.00    +0.000 A 
ATOM      6  C   UNL     1      48.416   7.774  12.272  0.00  0.00    +0.000 A 
ATOM      7  C   UNL     1      49.220   8.213  13.296  0.00  0.00    +0.000 A 
ATOM      8  N   UNL     1      49.261   7.630  14.494  0.00  0.00    +0.000 NA
ATOM      9  C   UNL     1      48.476   6.545  14.710  0.00  0.00    +0.000 A 
BRANCH   9  10
ATOM     10  C   UNL     1      48.658   5.974  16.074  0.00  0.00    +0.000 C 
ATOM     11  C   UNL     1      48.701   6.750  17.181  0.00  0.00    +0.000 C 
BRANCH  11  12
ATOM     12  C   UNL     1      48.816   6.363  18.651  0.00  0.00    +0.000 C 
ATOM     13  C   UNL     1      48.019   5.061  18.865  0.00  0.00    +0.000 C 
ATOM     14  C   UNL     1      50.266   6.126  19.105  0.00  0.00    +0.000 C 
BRANCH  12  15
ATOM     15  C   UNL     1      48.207   7.482  19.544  0.00  0.00    +0.000 C 
ATOM     16  N   UNL     1      48.803   7.717  20.750  0.00  0.00    +0.000 N 
ATOM     17  O   UNL     1      47.248   8.177  19.214  0.00  0.00    +0.000 OA
ATOM     18  H   UNL     1      49.451   7.068  21.176  0.00  0.00    +0.000 HD
ATOM     19  H   UNL     1      48.364   8.408  21.344  0.00  0.00    +0.000 HD
ENDBRANCH  12  15
ENDBRANCH  11  12
ENDBRANCH   9  10
ENDBRANCH   1   5
BRANCH   1  20
ATOM     20  C   UNL     1      45.484   6.920  11.107  0.00  0.00    +0.000 C 
BRANCH  20  21
ATOM     21  C   UNL     1      44.177   6.325  11.680  0.00  0.00    +0.000 C 
ATOM     22  F   UNL     1      44.145   6.505  13.033  0.00  0.00    +0.000 F 
ATOM     23  F   UNL     1      43.124   7.057  11.196  0.00  0.00    +0.000 F 
BRANCH  21  24
ATOM     24  C   UNL     1      44.049   4.841  11.304  0.00  0.00    +0.000 A 
ATOM     25  C   UNL     1      43.322   4.000  12.124  0.00  0.00    +0.000 A 
ATOM     26  C   UNL     1      43.215   2.694  11.708  0.00  0.00    +0.000 A 
ATOM     27  N   UNL     1      43.761   2.225  10.568  0.00  0.00    +0.000 NA
ATOM     28  C   UNL     1      44.457   3.091   9.831  0.00  0.00    +0.000 A 
ATOM     29  N   UNL     1      44.992   2.584   8.647  0.00  0.00    +0.000 N 
ATOM     30  N   UNL     1      44.637   4.379  10.164  0.00  0.00    +0.000 NA
ATOM     31  H   UNL     1      44.849   1.580   8.683  0.00  0.00    +0.000 HD
BRANCH  29  32
ATOM     32  C   UNL     1      46.248   2.995   8.095  0.00  0.00    +0.000 C 
ATOM     33  C   UNL     1      46.331   4.476   7.686  0.00  0.00    +0.000 C 
ATOM     34  N   UNL     1      46.910   4.074   6.384  0.00  0.00    +0.000 NA
ATOM     35  C   UNL     1      46.366   2.712   6.581  0.00  0.00    +0.000 C 
ATOM     36  H   UNL     1      47.928   4.104   6.361  0.00  0.00    +0.000 HD
ENDBRANCH  29  32
ENDBRANCH  21  24
ENDBRANCH  20  21
ENDBRANCH   1  20
TORSDOF 8
ENDMDL
MODEL 7
REMARK VINA RESULT:    -6.418      3.565      8.338
REMARK INTER + INTRA:         -11.006
REMARK INTER:                  -9.691
REMARK INTRA:                  -1.315
REMARK UNBOUND:                -1.587
REMARK  Name = 
REMARK  11 active torsions:
REMARK  status: ('A' for Active; 'I' for Inactive)
REMARK    1  A    between atoms: C_1  and  C_2
REMARK    2  A    between atoms: C_3  and  N_4
REMARK    3  A    between atoms: N_4  and  C_5
REMARK    4  A    between atoms: C_5  and  C_6
REMARK    5  A    between atoms: C_6  and  C_9
REMARK    6  A    between atoms: N_14  and  C_15
REMARK    7  A    between atoms: C_23  and  C_24
REMARK    8  A    between atoms: C_25  and  C_26
REMARK    9  A    between atoms: C_26  and  C_27
REMARK   10  A    between atoms: C_26  and  C_28
REMARK   11  A    between atoms: C_26  and  C_29
REMARK                            x       y       z     vdW  Elec       q    Type
REMARK                         _______ _______ _______ _____ _____    ______ ____
ROOT
ATOM      1  N   UNL     1      49.941   7.284  14.065  0.00  0.00    +0.000 N 
ATOM      2  H   UNL     1      50.590   6.824  13.427  0.00  0.00    +0.000 HD
ENDROOT
BRANCH   1   5
ATOM      3  C   UNL     1      47.657   5.387  13.709  0.00  0.00    +0.000 C 
ATOM      4  C   UNL     1      47.619   6.831  13.281  0.00  0.00    +0.000 A 
ATOM      5  C   UNL     1      48.737   7.694  13.436  0.00  0.00    +0.000 A 
ATOM      6  C   UNL     1      48.570   9.033  13.043  0.00  0.00    +0.000 A 
ATOM      7  C   UNL     1      47.388   9.456  12.484  0.00  0.00    +0.000 A 
ATOM      8  N   UNL     1      46.333   8.659  12.315  0.00  0.00    +0.000 NA
ATOM      9  C   UNL     1      46.429   7.367  12.721  0.00  0.00    +0.000 A 
BRANCH   9  10
ATOM     10  C   UNL     1      45.164   6.609  12.511  0.00  0.00    +0.000 C 
ATOM     11  C   UNL     1      45.055   5.634  11.580  0.00  0.00    +0.000 C 
BRANCH  11  12
ATOM     12  C   UNL     1      43.886   4.711  11.254  0.00  0.00    +0.000 C 
ATOM     13  C   UNL     1      42.582   5.444  11.626  0.00  0.00    +0.000 C 
ATOM     14  C   UNL     1      43.817   4.320   9.768  0.00  0.00    +0.000 C 
BRANCH  12  15
ATOM     15  C   UNL     1      43.990   3.405  12.093  0.00  0.00    +0.000 C 
ATOM     16  N   UNL     1      43.281   2.321  11.659  0.00  0.00    +0.000 N 
ATOM     17  O   UNL     1      44.691   3.289  13.097  0.00  0.00    +0.000 OA
ATOM     18  H   UNL     1      42.537   2.391  10.978  0.00  0.00    +0.000 HD
ATOM     19  H   UNL     1      43.314   1.497  12.244  0.00  0.00    +0.000 HD
ENDBRANCH  12  15
ENDBRANCH  11  12
ENDBRANCH   9  10
ENDBRANCH   1   5
BRANCH   1  20
ATOM     20  C   UNL     1      50.597   8.276  14.971  0.00  0.00    +0.000 C 
BRANCH  20  21
ATOM     21  C   UNL     1      52.032   7.980  15.466  0.00  0.00    +0.000 C 
ATOM     22  F   UNL     1      52.886   7.940  14.400  0.00  0.00    +0.000 F 
ATOM     23  F   UNL     1      52.452   9.042  16.222  0.00  0.00    +0.000 F 
BRANCH  21  24
ATOM     24  C   UNL     1      52.067   6.670  16.267  0.00  0.00    +0.000 A 
ATOM     25  C   UNL     1      53.289   6.121  16.605  0.00  0.00    +0.000 A 
ATOM     26  C   UNL     1      53.247   4.971  17.356  0.00  0.00    +0.000 A 
ATOM     27  N   UNL     1      52.104   4.388  17.770  0.00  0.00    +0.000 NA
ATOM     28  C   UNL     1      50.962   4.968  17.399  0.00  0.00    +0.000 A 
ATOM     29  N   UNL     1      49.796   4.356  17.858  0.00  0.00    +0.000 N 
ATOM     30  N   UNL     1      50.899   6.079  16.647  0.00  0.00    +0.000 NA
ATOM     31  H   UNL     1      50.086   3.477  18.273  0.00  0.00    +0.000 HD
BRANCH  29  32
ATOM     32  C   UNL     1      48.575   4.297  17.113  0.00  0.00    +0.000 C 
ATOM     33  C   UNL     1      47.301   4.627  17.912  0.00  0.00    +0.000 C 
ATOM     34  N   UNL     1      46.651   3.418  17.356  0.00  0.00    +0.000 NA
ATOM     35  C   UNL     1      47.986   2.871  17.026  0.00  0.00    +0.000 C 
ATOM     36  H   UNL     1      46.075   3.603  16.536  0.00  0.00    +0.000 HD
ENDBRANCH  29  32
ENDBRANCH  21  24
ENDBRANCH  20  21
ENDBRANCH   1  20
TORSDOF 8
ENDMDL
MODEL 8
REMARK VINA RESULT:    -6.279      2.087      2.646
REMARK INTER + INTRA:         -10.803
REMARK INTER:                  -9.927
REMARK INTRA:                  -0.876
REMARK UNBOUND:                -1.587
REMARK  Name = 
REMARK  11 active torsions:
REMARK  status: ('A' for Active; 'I' for Inactive)
REMARK    1  A    between atoms: C_1  and  C_2
REMARK    2  A    between atoms: C_3  and  N_4
REMARK    3  A    between atoms: N_4  and  C_5
REMARK    4  A    between atoms: C_5  and  C_6
REMARK    5  A    between atoms: C_6  and  C_9
REMARK    6  A    between atoms: N_14  and  C_15
REMARK    7  A    between atoms: C_23  and  C_24
REMARK    8  A    between atoms: C_25  and  C_26
REMARK    9  A    between atoms: C_26  and  C_27
REMARK   10  A    between atoms: C_26  and  C_28
REMARK   11  A    between atoms: C_26  and  C_29
REMARK                            x       y       z     vdW  Elec       q    Type
REMARK                         _______ _______ _______ _____ _____    ______ ____
ROOT
ATOM      1  N   UNL     1      47.016   6.330  14.205  0.00  0.00    +0.000 N 
ATOM      2  H   UNL     1      46.296   7.030  14.386  0.00  0.00    +0.000 HD
ENDROOT
BRANCH   1   5
ATOM      3  C   UNL     1      48.310   5.539  16.782  0.00  0.00    +0.000 C 
ATOM      4  C   UNL     1      48.982   6.390  15.737  0.00  0.00    +0.000 A 
ATOM      5  C   UNL     1      48.322   6.774  14.538  0.00  0.00    +0.000 A 
ATOM      6  C   UNL     1      49.063   7.531  13.614  0.00  0.00    +0.000 A 
ATOM      7  C   UNL     1      50.350   7.920  13.901  0.00  0.00    +0.000 A 
ATOM      8  N   UNL     1      50.981   7.584  15.026  0.00  0.00    +0.000 NA
ATOM      9  C   UNL     1      50.323   6.815  15.930  0.00  0.00    +0.000 A 
BRANCH   9  10
ATOM     10  C   UNL     1      51.164   6.483  17.114  0.00  0.00    +0.000 C 
ATOM     11  C   UNL     1      51.778   5.286  17.249  0.00  0.00    +0.000 C 
BRANCH  11  12
ATOM     12  C   UNL     1      52.718   4.779  18.337  0.00  0.00    +0.000 C 
ATOM     13  C   UNL     1      53.025   3.296  18.050  0.00  0.00    +0.000 C 
ATOM     14  C   UNL     1      54.048   5.548  18.398  0.00  0.00    +0.000 C 
BRANCH  12  15
ATOM     15  C   UNL     1      52.030   4.893  19.728  0.00  0.00    +0.000 C 
ATOM     16  N   UNL     1      50.838   4.247  19.894  0.00  0.00    +0.000 N 
ATOM     17  O   UNL     1      52.511   5.501  20.683  0.00  0.00    +0.000 OA
ATOM     18  H   UNL     1      50.288   3.907  19.118  0.00  0.00    +0.000 HD
ATOM     19  H   UNL     1      50.375   4.376  20.785  0.00  0.00    +0.000 HD
ENDBRANCH  12  15
ENDBRANCH  11  12
ENDBRANCH   9  10
ENDBRANCH   1   5
BRANCH   1  20
ATOM     20  C   UNL     1      46.856   5.638  12.890  0.00  0.00    +0.000 C 
BRANCH  20  21
ATOM     21  C   UNL     1      45.632   5.996  12.016  0.00  0.00    +0.000 C 
ATOM     22  F   UNL     1      44.779   6.793  12.726  0.00  0.00    +0.000 F 
ATOM     23  F   UNL     1      46.063   6.773  10.973  0.00  0.00    +0.000 F 
BRANCH  21  24
ATOM     24  C   UNL     1      44.933   4.722  11.517  0.00  0.00    +0.000 A 
ATOM     25  C   UNL     1      43.913   4.176  12.271  0.00  0.00    +0.000 A 
ATOM     26  C   UNL     1      43.305   3.061  11.746  0.00  0.00    +0.000 A 
ATOM     27  N   UNL     1      43.646   2.508  10.565  0.00  0.00    +0.000 NA
ATOM     28  C   UNL     1      44.647   3.082   9.896  0.00  0.00    +0.000 A 
ATOM     29  N   UNL     1      44.965   2.503   8.668  0.00  0.00    +0.000 N 
ATOM     30  N   UNL     1      45.317   4.160  10.335  0.00  0.00    +0.000 NA
ATOM     31  H   UNL     1      44.434   1.640   8.620  0.00  0.00    +0.000 HD
BRANCH  29  32
ATOM     32  C   UNL     1      46.293   2.424   8.139  0.00  0.00    +0.000 C 
ATOM     33  C   UNL     1      46.422   2.735   6.637  0.00  0.00    +0.000 C 
ATOM     34  N   UNL     1      47.243   1.516   6.465  0.00  0.00    +0.000 NA
ATOM     35  C   UNL     1      46.701   0.989   7.737  0.00  0.00    +0.000 C 
ATOM     36  H   UNL     1      48.247   1.690   6.494  0.00  0.00    +0.000 HD
ENDBRANCH  29  32
ENDBRANCH  21  24
ENDBRANCH  20  21
ENDBRANCH   1  20
TORSDOF 8
ENDMDL
MODEL 9
REMARK VINA RESULT:    -6.149      3.351      7.990
REMARK INTER + INTRA:         -10.611
REMARK INTER:                  -9.035
REMARK INTRA:                  -1.577
REMARK UNBOUND:                -1.587
REMARK  Name = 
REMARK  11 active torsions:
REMARK  status: ('A' for Active; 'I' for Inactive)
REMARK    1  A    between atoms: C_1  and  C_2
REMARK    2  A    between atoms: C_3  and  N_4
REMARK    3  A    between atoms: N_4  and  C_5
REMARK    4  A    between atoms: C_5  and  C_6
REMARK    5  A    between atoms: C_6  and  C_9
REMARK    6  A    between atoms: N_14  and  C_15
REMARK    7  A    between atoms: C_23  and  C_24
REMARK    8  A    between atoms: C_25  and  C_26
REMARK    9  A    between atoms: C_26  and  C_27
REMARK   10  A    between atoms: C_26  and  C_28
REMARK   11  A    between atoms: C_26  and  C_29
REMARK                            x       y       z     vdW  Elec       q    Type
REMARK                         _______ _______ _______ _____ _____    ______ ____
ROOT
ATOM      1  N   UNL     1      49.442   9.538  12.325  0.00  0.00    +0.000 N 
ATOM      2  H   UNL     1      49.833  10.053  11.536  0.00  0.00    +0.000 HD
ENDROOT
BRANCH   1   5
ATOM      3  C   UNL     1      48.452   6.728  12.568  0.00  0.00    +0.000 C 
ATOM      4  C   UNL     1      47.556   7.909  12.305  0.00  0.00    +0.000 A 
ATOM      5  C   UNL     1      48.067   9.228  12.162  0.00  0.00    +0.000 A 
ATOM      6  C   UNL     1      47.132  10.258  11.964  0.00  0.00    +0.000 A 
ATOM      7  C   UNL     1      45.791   9.976  11.861  0.00  0.00    +0.000 A 
ATOM      8  N   UNL     1      45.292   8.744  11.976  0.00  0.00    +0.000 NA
ATOM      9  C   UNL     1      46.152   7.721  12.213  0.00  0.00    +0.000 A 
BRANCH   9  10
ATOM     10  C   UNL     1      45.451   6.414  12.361  0.00  0.00    +0.000 C 
ATOM     11  C   UNL     1      45.156   5.631  11.299  0.00  0.00    +0.000 C 
BRANCH  11  12
ATOM     12  C   UNL     1      44.509   4.251  11.243  0.00  0.00    +0.000 C 
ATOM     13  C   UNL     1      45.252   3.336  12.237  0.00  0.00    +0.000 C 
ATOM     14  C   UNL     1      43.017   4.264  11.616  0.00  0.00    +0.000 C 
BRANCH  12  15
ATOM     15  C   UNL     1      44.644   3.659   9.811  0.00  0.00    +0.000 C 
ATOM     16  N   UNL     1      44.130   4.389   8.778  0.00  0.00    +0.000 N 
ATOM     17  O   UNL     1      45.208   2.595   9.559  0.00  0.00    +0.000 OA
ATOM     18  H   UNL     1      43.484   5.155   8.918  0.00  0.00    +0.000 HD
ATOM     19  H   UNL     1      44.175   3.967   7.860  0.00  0.00    +0.000 HD
ENDBRANCH  12  15
ENDBRANCH  11  12
ENDBRANCH   9  10
ENDBRANCH   1   5
BRANCH   1  20
ATOM     20  C   UNL     1      49.854  10.083  13.654  0.00  0.00    +0.000 C 
BRANCH  20  21
ATOM     21  C   UNL     1      50.751   9.207  14.560  0.00  0.00    +0.000 C 
ATOM     22  F   UNL     1      51.135   8.087  13.880  0.00  0.00    +0.000 F 
ATOM     23  F   UNL     1      51.912   9.893  14.806  0.00  0.00    +0.000 F 
BRANCH  21  24
ATOM     24  C   UNL     1      50.019   8.855  15.864  0.00  0.00    +0.000 A 
ATOM     25  C   UNL     1      50.044   9.753  16.913  0.00  0.00    +0.000 A 
ATOM     26  C   UNL     1      49.336   9.391  18.035  0.00  0.00    +0.000 A 
ATOM     27  N   UNL     1      48.637   8.244  18.141  0.00  0.00    +0.000 NA
ATOM     28  C   UNL     1      48.665   7.420  17.093  0.00  0.00    +0.000 A 
ATOM     29  N   UNL     1      47.915   6.251  17.221  0.00  0.00    +0.000 N 
ATOM     30  N   UNL     1      49.345   7.673  15.963  0.00  0.00    +0.000 NA
ATOM     31  H   UNL     1      47.616   6.216  18.190  0.00  0.00    +0.000 HD
BRANCH  29  32
ATOM     32  C   UNL     1      48.297   4.990  16.661  0.00  0.00    +0.000 C 
ATOM     33  C   UNL     1      47.286   4.377  15.676  0.00  0.00    +0.000 C 
ATOM     34  N   UNL     1      47.395   3.081  16.384  0.00  0.00    +0.000 NA
ATOM     35  C   UNL     1      47.933   3.791  17.566  0.00  0.00    +0.000 C 
ATOM     36  H   UNL     1      48.061   2.437  15.960  0.00  0.00    +0.000 HD
ENDBRANCH  29  32
ENDBRANCH  21  24
ENDBRANCH  20  21
ENDBRANCH   1  20
TORSDOF 8
ENDMDL
