MODEL 1
REMARK VINA RESULT:    -5.886      0.000      0.000
REMARK INTER + INTRA:          -8.561
REMARK INTER:                  -7.263
REMARK INTRA:                  -1.298
REMARK UNBOUND:                -1.298
REMARK  Name = 
REMARK  5 active torsions:
REMARK  status: ('A' for Active; 'I' for Inactive)
REMARK    1  A    between atoms: C_1  and  C_2
REMARK    2  A    between atoms: C_2  and  C_3
REMARK    3  A    between atoms: C_7  and  C_8
REMARK    4  A    between atoms: C_14  and  C_15
REMARK    5  A    between atoms: C_18  and  C_19
REMARK                            x       y       z     vdW  Elec       q    Type
REMARK                         _______ _______ _______ _____ _____    ______ ____
ROOT
ATOM      1  C   UNL     1      49.625   7.956  11.245  0.00  0.00    +0.000 C 
ATOM      2  C   UNL     1      49.155   8.090  12.704  0.00  0.00    +0.000 C 
ATOM      3  C   UNL     1      49.153   9.579  13.089  0.00  0.00    +0.000 C 
ATOM      4  C   UNL     1      49.971   9.681  14.357  0.00  0.00    +0.000 C 
ATOM      5  C   UNL     1      50.260   8.248  14.778  0.00  0.00    +0.000 C 
ATOM      6  O   UNL     1      50.151   7.482  13.560  0.00  0.00    +0.000 OA
ENDROOT
BRANCH   2   7
ATOM      7  C   UNL     1      47.876   7.290  12.921  0.00  0.00    +0.000 A 
ATOM      8  C   UNL     1      46.635   7.933  12.845  0.00  0.00    +0.000 A 
ATOM      9  N   UNL     1      45.433   7.321  12.958  0.00  0.00    +0.000 NA
ATOM     10  C   UNL     1      45.448   5.984  13.152  0.00  0.00    +0.000 A 
ATOM     11  C   UNL     1      46.608   5.232  13.249  0.00  0.00    +0.000 A 
ATOM     12  C   UNL     1      47.831   5.906  13.133  0.00  0.00    +0.000 A 
BRANCH  11  13
ATOM     13  C   UNL     1      46.625   3.765  13.461  0.00  0.00    +0.000 C 
ATOM     14  N   UNL     1      45.736   2.980  12.783  0.00  0.00    +0.000 N 
ATOM     15  O   UNL     1      47.420   3.249  14.239  0.00  0.00    +0.000 OA
ATOM     16  H   UNL     1      45.057   3.293  12.108  0.00  0.00    +0.000 HD
ATOM     17  H   UNL     1      45.802   1.983  12.949  0.00  0.00    +0.000 HD
ENDBRANCH  11  13
ENDBRANCH   2   7
BRANCH   5  18
ATOM     18  C   UNL     1      49.427   7.659  15.900  0.00  0.00    +0.000 A 
ATOM     19  C   UNL     1      49.436   6.283  16.161  0.00  0.00    +0.000 A 
ATOM     20  C   UNL     1      48.761   5.764  17.268  0.00  0.00    +0.000 A 
ATOM     21  C   UNL     1      48.094   6.633  18.129  0.00  0.00    +0.000 A 
ATOM     22  N   UNL     1      48.066   7.974  17.894  0.00  0.00    +0.000 NA
ATOM     23  C   UNL     1      48.728   8.446  16.809  0.00  0.00    +0.000 A 
BRANCH  21  24
ATOM     24  C   UNL     1      47.416   6.096  19.383  0.00  0.00    +0.000 C 
ATOM     25  F   UNL     1      48.098   5.063  19.966  0.00  0.00    +0.000 F 
ATOM     26  F   UNL     1      47.288   7.036  20.365  0.00  0.00    +0.000 F 
ATOM     27  F   UNL     1      46.160   5.616  19.157  0.00  0.00    +0.000 F 
ENDBRANCH  21  24
ENDBRANCH   5  18
TORSDOF 4
ENDMDL
MODEL 2
REMARK VINA RESULT:    -5.842      3.444      5.590
REMARK INTER + INTRA:          -8.506
REMARK INTER:                  -7.990
REMARK INTRA:                  -0.516
REMARK UNBOUND:                -1.298
REMARK  Name = 
REMARK  5 active torsions:
REMARK  status: ('A' for Active; 'I' for Inactive)
REMARK    1  A    between atoms: C_1  and  C_2
REMARK    2  A    between atoms: C_2  and  C_3
REMARK    3  A    between atoms: C_7  and  C_8
REMARK    4  A    between atoms: C_14  and  C_15
REMARK    5  A    between atoms: C_18  and  C_19
REMARK                            x       y       z     vdW  Elec       q    Type
REMARK                         _______ _______ _______ _____ _____    ______ ____
ROOT
ATOM      1  C   UNL     1      50.030   8.096  14.820  0.00  0.00    +0.000 C 
ATOM      2  C   UNL     1      49.056   7.439  13.826  0.00  0.00    +0.000 C 
ATOM      3  C   UNL     1      49.780   7.239  12.484  0.00  0.00    +0.000 C 
ATOM      4  C   UNL     1      48.898   7.881  11.437  0.00  0.00    +0.000 C 
ATOM      5  C   UNL     1      47.613   8.261  12.155  0.00  0.00    +0.000 C 
ATOM      6  O   UNL     1      47.994   8.381  13.542  0.00  0.00    +0.000 OA
ENDROOT
BRANCH   2   7
ATOM      7  C   UNL     1      48.384   6.232  14.467  0.00  0.00    +0.000 A 
ATOM      8  C   UNL     1      47.906   5.194  13.659  0.00  0.00    +0.000 A 
ATOM      9  N   UNL     1      47.347   4.048  14.113  0.00  0.00    +0.000 NA
ATOM     10  C   UNL     1      47.257   3.906  15.454  0.00  0.00    +0.000 A 
ATOM     11  C   UNL     1      47.689   4.860  16.360  0.00  0.00    +0.000 A 
ATOM     12  C   UNL     1      48.255   6.035  15.848  0.00  0.00    +0.000 A 
BRANCH  11  13
ATOM     13  C   UNL     1      47.592   4.704  17.832  0.00  0.00    +0.000 C 
ATOM     14  N   UNL     1      46.685   5.452  18.526  0.00  0.00    +0.000 N 
ATOM     15  O   UNL     1      48.317   3.917  18.431  0.00  0.00    +0.000 OA
ATOM     16  H   UNL     1      46.030   6.110  18.135  0.00  0.00    +0.000 HD
ATOM     17  H   UNL     1      46.646   5.294  19.526  0.00  0.00    +0.000 HD
ENDBRANCH  11  13
ENDBRANCH   2   7
BRANCH   5  18
ATOM     18  C   UNL     1      46.406   7.361  11.970  0.00  0.00    +0.000 A 
ATOM     19  C   UNL     1      46.373   6.393  10.959  0.00  0.00    +0.000 A 
ATOM     20  C   UNL     1      45.311   5.491  10.871  0.00  0.00    +0.000 A 
ATOM     21  C   UNL     1      44.288   5.547  11.815  0.00  0.00    +0.000 A 
ATOM     22  N   UNL     1      44.294   6.483  12.804  0.00  0.00    +0.000 NA
ATOM     23  C   UNL     1      45.337   7.347  12.861  0.00  0.00    +0.000 A 
BRANCH  21  24
ATOM     24  C   UNL     1      43.159   4.525  11.782  0.00  0.00    +0.000 C 
ATOM     25  F   UNL     1      43.263   3.639  10.744  0.00  0.00    +0.000 F 
ATOM     26  F   UNL     1      43.106   3.752  12.906  0.00  0.00    +0.000 F 
ATOM     27  F   UNL     1      41.923   5.086  11.653  0.00  0.00    +0.000 F 
ENDBRANCH  21  24
ENDBRANCH   5  18
TORSDOF 4
ENDMDL
MODEL 3
REMARK VINA RESULT:    -5.428      3.828      5.792
REMARK INTER + INTRA:          -7.996
REMARK INTER:                  -6.810
REMARK INTRA:                  -1.186
REMARK UNBOUND:                -1.298
REMARK  Name = 
REMARK  5 active torsions:
REMARK  status: ('A' for Active; 'I' for Inactive)
REMARK    1  A    between atoms: C_1  and  C_2
REMARK    2  A    between atoms: C_2  and  C_3
REMARK    3  A    between atoms: C_7  and  C_8
REMARK    4  A    between atoms: C_14  and  C_15
REMARK    5  A    between atoms: C_18  and  C_19
REMARK                            x       y       z     vdW  Elec       q    Type
REMARK                         _______ _______ _______ _____ _____    ______ ____
ROOT
ATOM      1  C   UNL     1      49.861   6.622  20.862  0.00  0.00    +0.000 C 
ATOM      2  C   UNL     1      49.976   6.707  19.329  0.00  0.00    +0.000 C 
ATOM      3  C   UNL     1      51.458   6.879  18.954  0.00  0.00    +0.000 C 
ATOM      4  C   UNL     1      51.520   8.099  18.061  0.00  0.00    +0.000 C 
ATOM      5  C   UNL     1      50.075   8.484  17.787  0.00  0.00    +0.000 C 
ATOM      6  O   UNL     1      49.334   7.928  18.893  0.00  0.00    +0.000 OA
ENDROOT
BRANCH   2   7
ATOM      7  C   UNL     1      49.198   5.571  18.679  0.00  0.00    +0.000 A 
ATOM      8  C   UNL     1      47.809   5.672  18.539  0.00  0.00    +0.000 A 
ATOM      9  N   UNL     1      47.019   4.759  17.927  0.00  0.00    +0.000 NA
ATOM     10  C   UNL     1      47.635   3.674  17.408  0.00  0.00    +0.000 A 
ATOM     11  C   UNL     1      49.001   3.454  17.482  0.00  0.00    +0.000 A 
ATOM     12  C   UNL     1      49.782   4.420  18.130  0.00  0.00    +0.000 A 
BRANCH  11  13
ATOM     13  C   UNL     1      49.677   2.264  16.911  0.00  0.00    +0.000 C 
ATOM     14  N   UNL     1      50.743   1.719  17.569  0.00  0.00    +0.000 N 
ATOM     15  O   UNL     1      49.296   1.768  15.856  0.00  0.00    +0.000 OA
ATOM     16  H   UNL     1      51.125   2.032  18.447  0.00  0.00    +0.000 HD
ATOM     17  H   UNL     1      51.157   0.897  17.147  0.00  0.00    +0.000 HD
ENDBRANCH  11  13
ENDBRANCH   2   7
BRANCH   5  18
ATOM     18  C   UNL     1      49.481   8.092  16.447  0.00  0.00    +0.000 A 
ATOM     19  C   UNL     1      48.361   8.756  15.930  0.00  0.00    +0.000 A 
ATOM     20  C   UNL     1      47.894   8.470  14.646  0.00  0.00    +0.000 A 
ATOM     21  C   UNL     1      48.567   7.530  13.869  0.00  0.00    +0.000 A 
ATOM     22  N   UNL     1      49.654   6.866  14.351  0.00  0.00    +0.000 NA
ATOM     23  C   UNL     1      50.081   7.164  15.602  0.00  0.00    +0.000 A 
BRANCH  21  24
ATOM     24  C   UNL     1      48.119   7.259  12.438  0.00  0.00    +0.000 C 
ATOM     25  F   UNL     1      49.149   7.268  11.538  0.00  0.00    +0.000 F 
ATOM     26  F   UNL     1      47.525   6.038  12.287  0.00  0.00    +0.000 F 
ATOM     27  F   UNL     1      47.223   8.173  11.968  0.00  0.00    +0.000 F 
ENDBRANCH  21  24
ENDBRANCH   5  18
TORSDOF 4
ENDMDL
MODEL 4
REMARK VINA RESULT:    -5.164      3.510      5.439
REMARK INTER + INTRA:          -7.669
REMARK INTER:                  -6.729
REMARK INTRA:                  -0.940
REMARK UNBOUND:                -1.298
REMARK  Name = 
REMARK  5 active torsions:
REMARK  status: ('A' for Active; 'I' for Inactive)
REMARK    1  A    between atoms: C_1  and  C_2
REMARK    2  A    between atoms: C_2  and  C_3
REMARK    3  A    between atoms: C_7  and  C_8
REMARK    4  A    between atoms: C_14  and  C_15
REMARK    5  A    between atoms: C_18  and  C_19
REMARK                            x       y       z     vdW  Elec       q    Type
REMARK                         _______ _______ _______ _____ _____    ______ ____
ROOT
ATOM      1  C   UNL     1      51.083   7.818  18.829  0.00  0.00    +0.000 C 
ATOM      2  C   UNL     1      50.555   7.436  17.435  0.00  0.00    +0.000 C 
ATOM      3  C   UNL     1      51.736   7.401  16.451  0.00  0.00    +0.000 C 
ATOM      4  C   UNL     1      51.341   8.294  15.296  0.00  0.00    +0.000 C 
ATOM      5  C   UNL     1      49.886   8.665  15.540  0.00  0.00    +0.000 C 
ATOM      6  O   UNL     1      49.704   8.508  16.963  0.00  0.00    +0.000 OA
ENDROOT
BRANCH   2   7
ATOM      7  C   UNL     1      49.661   6.206  17.529  0.00  0.00    +0.000 A 
ATOM      8  C   UNL     1      48.307   6.355  17.850  0.00  0.00    +0.000 A 
ATOM      9  N   UNL     1      47.404   5.348  17.904  0.00  0.00    +0.000 NA
ATOM     10  C   UNL     1      47.859   4.109  17.615  0.00  0.00    +0.000 A 
ATOM     11  C   UNL     1      49.175   3.828  17.286  0.00  0.00    +0.000 A 
ATOM     12  C   UNL     1      50.079   4.898  17.249  0.00  0.00    +0.000 A 
BRANCH  11  13
ATOM     13  C   UNL     1      49.674   2.468  16.968  0.00  0.00    +0.000 C 
ATOM     14  N   UNL     1      50.679   1.930  17.720  0.00  0.00    +0.000 N 
ATOM     15  O   UNL     1      49.199   1.824  16.038  0.00  0.00    +0.000 OA
ATOM     16  H   UNL     1      51.124   2.360  18.516  0.00  0.00    +0.000 HD
ATOM     17  H   UNL     1      50.969   0.992  17.474  0.00  0.00    +0.000 HD
ENDBRANCH  11  13
ENDBRANCH   2   7
BRANCH   5  18
ATOM     18  C   UNL     1      48.825   7.928  14.744  0.00  0.00    +0.000 A 
ATOM     19  C   UNL     1      47.632   8.559  14.373  0.00  0.00    +0.000 A 
ATOM     20  C   UNL     1      46.714   7.914  13.541  0.00  0.00    +0.000 A 
ATOM     21  C   UNL     1      47.007   6.639  13.062  0.00  0.00    +0.000 A 
ATOM     22  N   UNL     1      48.158   6.002  13.413  0.00  0.00    +0.000 NA
ATOM     23  C   UNL     1      49.027   6.653  14.225  0.00  0.00    +0.000 A 
BRANCH  21  24
ATOM     24  C   UNL     1      46.056   5.949  12.093  0.00  0.00    +0.000 C 
ATOM     25  F   UNL     1      44.765   6.392  12.194  0.00  0.00    +0.000 F 
ATOM     26  F   UNL     1      46.395   6.141  10.784  0.00  0.00    +0.000 F 
ATOM     27  F   UNL     1      45.987   4.598  12.269  0.00  0.00    +0.000 F 
ENDBRANCH  21  24
ENDBRANCH   5  18
TORSDOF 4
ENDMDL
MODEL 5
REMARK VINA RESULT:    -4.700      2.863      4.812
REMARK INTER + INTRA:          -7.097
REMARK INTER:                  -5.689
REMARK INTRA:                  -1.409
REMARK UNBOUND:                -1.298
REMARK  Name = 
REMARK  5 active torsions:
REMARK  status: ('A' for Active; 'I' for Inactive)
REMARK    1  A    between atoms: C_1  and  C_2
REMARK    2  A    between atoms: C_2  and  C_3
REMARK    3  A    between atoms: C_7  and  C_8
REMARK    4  A    between atoms: C_14  and  C_15
REMARK    5  A    between atoms: C_18  and  C_19
REMARK                            x       y       z     vdW  Elec       q    Type
REMARK                         _______ _______ _______ _____ _____    ______ ____
ROOT
ATOM      1  C   UNL     1      45.009   3.745  12.143  0.00  0.00    +0.000 C 
ATOM      2  C   UNL     1      45.670   4.928  12.873  0.00  0.00    +0.000 C 
ATOM      3  C   UNL     1      44.608   6.010  13.124  0.00  0.00    +0.000 C 
ATOM      4  C   UNL     1      45.178   7.291  12.557  0.00  0.00    +0.000 C 
ATOM      5  C   UNL     1      46.613   6.969  12.171  0.00  0.00    +0.000 C 
ATOM      6  O   UNL     1      46.624   5.539  11.972  0.00  0.00    +0.000 OA
ENDROOT
BRANCH   2   7
ATOM      7  C   UNL     1      46.480   4.427  14.061  0.00  0.00    +0.000 A 
ATOM      8  C   UNL     1      47.167   3.211  13.969  0.00  0.00    +0.000 A 
ATOM      9  N   UNL     1      47.966   2.692  14.932  0.00  0.00    +0.000 NA
ATOM     10  C   UNL     1      48.106   3.422  16.061  0.00  0.00    +0.000 A 
ATOM     11  C   UNL     1      47.479   4.637  16.278  0.00  0.00    +0.000 A 
ATOM     12  C   UNL     1      46.655   5.135  15.258  0.00  0.00    +0.000 A 
BRANCH  11  13
ATOM     13  C   UNL     1      47.634   5.438  17.516  0.00  0.00    +0.000 C 
ATOM     14  N   UNL     1      46.666   5.379  18.478  0.00  0.00    +0.000 N 
ATOM     15  O   UNL     1      48.615   6.154  17.685  0.00  0.00    +0.000 OA
ATOM     16  H   UNL     1      45.833   4.812  18.452  0.00  0.00    +0.000 HD
ATOM     17  H   UNL     1      46.829   5.929  19.312  0.00  0.00    +0.000 HD
ENDBRANCH  11  13
ENDBRANCH   2   7
BRANCH   5  18
ATOM     18  C   UNL     1      47.717   7.424  13.108  0.00  0.00    +0.000 A 
ATOM     19  C   UNL     1      47.473   8.376  14.104  0.00  0.00    +0.000 A 
ATOM     20  C   UNL     1      48.461   8.701  15.036  0.00  0.00    +0.000 A 
ATOM     21  C   UNL     1      49.691   8.049  14.981  0.00  0.00    +0.000 A 
ATOM     22  N   UNL     1      49.954   7.123  14.018  0.00  0.00    +0.000 NA
ATOM     23  C   UNL     1      48.976   6.833  13.126  0.00  0.00    +0.000 A 
BRANCH  21  24
ATOM     24  C   UNL     1      50.755   8.334  16.034  0.00  0.00    +0.000 C 
ATOM     25  F   UNL     1      51.681   9.257  15.631  0.00  0.00    +0.000 F 
ATOM     26  F   UNL     1      50.237   8.832  17.195  0.00  0.00    +0.000 F 
ATOM     27  F   UNL     1      51.476   7.231  16.387  0.00  0.00    +0.000 F 
ENDBRANCH  21  24
ENDBRANCH   5  18
TORSDOF 4
ENDMDL
MODEL 6
REMARK VINA RESULT:    -4.695      4.287      6.003
REMARK INTER + INTRA:          -7.091
REMARK INTER:                  -5.911
REMARK INTRA:                  -1.180
REMARK UNBOUND:                -1.298
REMARK  Name = 
REMARK  5 active torsions:
REMARK  status: ('A' for Active; 'I' for Inactive)
REMARK    1  A    between atoms: C_1  and  C_2
REMARK    2  A    between atoms: C_2  and  C_3
REMARK    3  A    between atoms: C_7  and  C_8
REMARK    4  A    between atoms: C_14  and  C_15
REMARK    5  A    between atoms: C_18  and  C_19
REMARK                            x       y       z     vdW  Elec       q    Type
REMARK                         _______ _______ _______ _____ _____    ______ ____
ROOT
ATOM      1  C   UNL     1      47.827   8.038  18.736  0.00  0.00    +0.000 C 
ATOM      2  C   UNL     1      48.913   7.003  19.082  0.00  0.00    +0.000 C 
ATOM      3  C   UNL     1      49.169   7.044  20.598  0.00  0.00    +0.000 C 
ATOM      4  C   UNL     1      50.660   7.233  20.761  0.00  0.00    +0.000 C 
ATOM      5  C   UNL     1      51.248   7.105  19.365  0.00  0.00    +0.000 C 
ATOM      6  O   UNL     1      50.157   7.430  18.479  0.00  0.00    +0.000 OA
ENDROOT
BRANCH   2   7
ATOM      7  C   UNL     1      48.580   5.660  18.446  0.00  0.00    +0.000 A 
ATOM      8  C   UNL     1      48.641   4.493  19.217  0.00  0.00    +0.000 A 
ATOM      9  N   UNL     1      48.312   3.254  18.783  0.00  0.00    +0.000 NA
ATOM     10  C   UNL     1      47.886   3.152  17.504  0.00  0.00    +0.000 A 
ATOM     11  C   UNL     1      47.784   4.228  16.638  0.00  0.00    +0.000 A 
ATOM     12  C   UNL     1      48.141   5.493  17.125  0.00  0.00    +0.000 A 
BRANCH  11  13
ATOM     13  C   UNL     1      47.316   4.117  15.235  0.00  0.00    +0.000 C 
ATOM     14  N   UNL     1      46.670   5.174  14.659  0.00  0.00    +0.000 N 
ATOM     15  O   UNL     1      47.495   3.089  14.590  0.00  0.00    +0.000 OA
ATOM     16  H   UNL     1      46.488   6.067  15.087  0.00  0.00    +0.000 HD
ATOM     17  H   UNL     1      46.388   5.053  13.694  0.00  0.00    +0.000 HD
ENDBRANCH  11  13
ENDBRANCH   2   7
BRANCH   5  18
ATOM     18  C   UNL     1      51.912   5.792  18.994  0.00  0.00    +0.000 A 
ATOM     19  C   UNL     1      52.395   4.922  19.980  0.00  0.00    +0.000 A 
ATOM     20  C   UNL     1      52.896   3.665  19.636  0.00  0.00    +0.000 A 
ATOM     21  C   UNL     1      52.891   3.270  18.300  0.00  0.00    +0.000 A 
ATOM     22  N   UNL     1      52.432   4.100  17.323  0.00  0.00    +0.000 NA
ATOM     23  C   UNL     1      51.956   5.316  17.688  0.00  0.00    +0.000 A 
BRANCH  21  24
ATOM     24  C   UNL     1      53.362   1.874  17.913  0.00  0.00    +0.000 C 
ATOM     25  F   UNL     1      54.289   1.876  16.906  0.00  0.00    +0.000 F 
ATOM     26  F   UNL     1      53.959   1.208  18.945  0.00  0.00    +0.000 F 
ATOM     27  F   UNL     1      52.356   1.065  17.474  0.00  0.00    +0.000 F 
ENDBRANCH  21  24
ENDBRANCH   5  18
TORSDOF 4
ENDMDL
MODEL 7
REMARK VINA RESULT:    -4.387     11.696     13.445
REMARK INTER + INTRA:          -6.711
REMARK INTER:                  -5.188
REMARK INTRA:                  -1.523
REMARK UNBOUND:                -1.298
REMARK  Name = 
REMARK  5 active torsions:
REMARK  status: ('A' for Active; 'I' for Inactive)
REMARK    1  A    between atoms: C_1  and  C_2
REMARK    2  A    between atoms: C_2  and  C_3
REMARK    3  A    between atoms: C_7  and  C_8
REMARK    4  A    between atoms: C_14  and  C_15
REMARK    5  A    between atoms: C_18  and  C_19
REMARK                            x       y       z     vdW  Elec       q    Type
REMARK                         _______ _______ _______ _____ _____    ______ ____
ROOT
ATOM      1  C   UNL     1      41.394  -7.188  15.715  0.00  0.00    +0.000 C 
ATOM      2  C   UNL     1      41.218  -5.673  15.919  0.00  0.00    +0.000 C 
ATOM      3  C   UNL     1      42.575  -5.066  16.313  0.00  0.00    +0.000 C 
ATOM      4  C   UNL     1      42.329  -4.290  17.588  0.00  0.00    +0.000 C 
ATOM      5  C   UNL     1      40.822  -4.304  17.794  0.00  0.00    +0.000 C 
ATOM      6  O   UNL     1      40.366  -5.466  17.071  0.00  0.00    +0.000 OA
ENDROOT
BRANCH   2   7
ATOM      7  C   UNL     1      40.475  -5.065  14.736  0.00  0.00    +0.000 A 
ATOM      8  C   UNL     1      39.131  -5.389  14.521  0.00  0.00    +0.000 A 
ATOM      9  N   UNL     1      38.351  -4.868  13.544  0.00  0.00    +0.000 NA
ATOM     10  C   UNL     1      38.928  -3.961  12.726  0.00  0.00    +0.000 A 
ATOM     11  C   UNL     1      40.250  -3.558  12.831  0.00  0.00    +0.000 A 
ATOM     12  C   UNL     1      41.024  -4.126  13.852  0.00  0.00    +0.000 A 
BRANCH  11  13
ATOM     13  C   UNL     1      40.882  -2.561  11.934  0.00  0.00    +0.000 C 
ATOM     14  N   UNL     1      40.319  -2.303  10.716  0.00  0.00    +0.000 N 
ATOM     15  O   UNL     1      41.904  -1.972  12.268  0.00  0.00    +0.000 OA
ATOM     16  H   UNL     1      39.474  -2.712  10.351  0.00  0.00    +0.000 HD
ATOM     17  H   UNL     1      40.780  -1.601  10.151  0.00  0.00    +0.000 HD
ENDBRANCH  11  13
ENDBRANCH   2   7
BRANCH   5  18
ATOM     18  C   UNL     1      40.045  -3.056  17.419  0.00  0.00    +0.000 A 
ATOM     19  C   UNL     1      40.665  -1.989  16.758  0.00  0.00    +0.000 A 
ATOM     20  C   UNL     1      39.918  -0.897  16.311  0.00  0.00    +0.000 A 
ATOM     21  C   UNL     1      38.539  -0.887  16.510  0.00  0.00    +0.000 A 
ATOM     22  N   UNL     1      37.914  -1.910  17.155  0.00  0.00    +0.000 NA
ATOM     23  C   UNL     1      38.667  -2.953  17.580  0.00  0.00    +0.000 A 
BRANCH  21  24
ATOM     24  C   UNL     1      37.696   0.258  15.963  0.00  0.00    +0.000 C 
ATOM     25  F   UNL     1      36.393   0.217  16.379  0.00  0.00    +0.000 F 
ATOM     26  F   UNL     1      38.153   1.487  16.345  0.00  0.00    +0.000 F 
ATOM     27  F   UNL     1      37.638   0.285  14.601  0.00  0.00    +0.000 F 
ENDBRANCH  21  24
ENDBRANCH   5  18
TORSDOF 4
ENDMDL
MODEL 8
REMARK VINA RESULT:    -4.273     12.111     13.450
REMARK INTER + INTRA:          -6.571
REMARK INTER:                  -5.182
REMARK INTRA:                  -1.389
REMARK UNBOUND:                -1.298
REMARK  Name = 
REMARK  5 active torsions:
REMARK  status: ('A' for Active; 'I' for Inactive)
REMARK    1  A    between atoms: C_1  and  C_2
REMARK    2  A    between atoms: C_2  and  C_3
REMARK    3  A    between atoms: C_7  and  C_8
REMARK    4  A    between atoms: C_14  and  C_15
REMARK    5  A    between atoms: C_18  and  C_19
REMARK                            x       y       z     vdW  Elec       q    Type
REMARK                         _______ _______ _______ _____ _____    ______ ____
ROOT
ATOM      1  C   UNL     1      41.195  -6.243  14.065  0.00  0.00    +0.000 C 
ATOM      2  C   UNL     1      40.832  -4.809  14.489  0.00  0.00    +0.000 C 
ATOM      3  C   UNL     1      41.814  -4.351  15.579  0.00  0.00    +0.000 C 
ATOM      4  C   UNL     1      40.961  -3.878  16.734  0.00  0.00    +0.000 C 
ATOM      5  C   UNL     1      39.529  -3.890  16.222  0.00  0.00    +0.000 C 
ATOM      6  O   UNL     1      39.538  -4.842  15.138  0.00  0.00    +0.000 OA
ENDROOT
BRANCH   2   7
ATOM      7  C   UNL     1      40.659  -3.925  13.260  0.00  0.00    +0.000 A 
ATOM      8  C   UNL     1      41.528  -2.847  13.054  0.00  0.00    +0.000 A 
ATOM      9  N   UNL     1      41.513  -2.030  11.974  0.00  0.00    +0.000 NA
ATOM     10  C   UNL     1      40.586  -2.293  11.027  0.00  0.00    +0.000 A 
ATOM     11  C   UNL     1      39.667  -3.326  11.113  0.00  0.00    +0.000 A 
ATOM     12  C   UNL     1      39.712  -4.144  12.250  0.00  0.00    +0.000 A 
BRANCH  11  13
ATOM     13  C   UNL     1      38.651  -3.615  10.073  0.00  0.00    +0.000 C 
ATOM     14  N   UNL     1      38.826  -3.125   8.810  0.00  0.00    +0.000 N 
ATOM     15  O   UNL     1      37.656  -4.283  10.332  0.00  0.00    +0.000 OA
ATOM     16  H   UNL     1      39.612  -2.585   8.484  0.00  0.00    +0.000 HD
ATOM     17  H   UNL     1      38.113  -3.367   8.133  0.00  0.00    +0.000 HD
ENDBRANCH  11  13
ENDBRANCH   2   7
BRANCH   5  18
ATOM     18  C   UNL     1      38.913  -2.565  15.814  0.00  0.00    +0.000 A 
ATOM     19  C   UNL     1      37.727  -2.517  15.072  0.00  0.00    +0.000 A 
ATOM     20  C   UNL     1      37.103  -1.297  14.803  0.00  0.00    +0.000 A 
ATOM     21  C   UNL     1      37.663  -0.121  15.300  0.00  0.00    +0.000 A 
ATOM     22  N   UNL     1      38.819  -0.141  16.019  0.00  0.00    +0.000 NA
ATOM     23  C   UNL     1      39.401  -1.341  16.260  0.00  0.00    +0.000 A 
BRANCH  21  24
ATOM     24  C   UNL     1      36.958   1.212  15.082  0.00  0.00    +0.000 C 
ATOM     25  F   UNL     1      37.520   2.242  15.788  0.00  0.00    +0.000 F 
ATOM     26  F   UNL     1      36.980   1.620  13.780  0.00  0.00    +0.000 F 
ATOM     27  F   UNL     1      35.645   1.197  15.450  0.00  0.00    +0.000 F 
ENDBRANCH  21  24
ENDBRANCH   5  18
TORSDOF 4
ENDMDL
MODEL 9
REMARK VINA RESULT:    -4.268      2.964      4.700
REMARK INTER + INTRA:          -6.564
REMARK INTER:                  -5.675
REMARK INTRA:                  -0.889
REMARK UNBOUND:                -1.298
REMARK  Name = 
REMARK  5 active torsions:
REMARK  status: ('A' for Active; 'I' for Inactive)
REMARK    1  A    between atoms: C_1  and  C_2
REMARK    2  A    between atoms: C_2  and  C_3
REMARK    3  A    between atoms: C_7  and  C_8
REMARK    4  A    between atoms: C_14  and  C_15
REMARK    5  A    between atoms: C_18  and  C_19
REMARK                            x       y       z     vdW  Elec       q    Type
REMARK                         _______ _______ _______ _____ _____    ______ ____
ROOT
ATOM      1  C   UNL     1      48.840   2.295  17.009  0.00  0.00    +0.000 C 
ATOM      2  C   UNL     1      49.141   3.748  17.417  0.00  0.00    +0.000 C 
ATOM      3  C   UNL     1      50.617   3.848  17.837  0.00  0.00    +0.000 C 
ATOM      4  C   UNL     1      50.615   4.481  19.210  0.00  0.00    +0.000 C 
ATOM      5  C   UNL     1      49.178   4.904  19.468  0.00  0.00    +0.000 C 
ATOM      6  O   UNL     1      48.388   4.049  18.615  0.00  0.00    +0.000 OA
ENDROOT
BRANCH   2   7
ATOM      7  C   UNL     1      48.631   4.710  16.351  0.00  0.00    +0.000 A 
ATOM      8  C   UNL     1      49.335   5.891  16.089  0.00  0.00    +0.000 A 
ATOM      9  N   UNL     1      49.017   6.792  15.130  0.00  0.00    +0.000 NA
ATOM     10  C   UNL     1      47.936   6.510  14.368  0.00  0.00    +0.000 A 
ATOM     11  C   UNL     1      47.154   5.378  14.528  0.00  0.00    +0.000 A 
ATOM     12  C   UNL     1      47.514   4.475  15.538  0.00  0.00    +0.000 A 
BRANCH  11  13
ATOM     13  C   UNL     1      45.969   5.069  13.692  0.00  0.00    +0.000 C 
ATOM     14  N   UNL     1      45.167   6.088  13.264  0.00  0.00    +0.000 N 
ATOM     15  O   UNL     1      45.698   3.913  13.386  0.00  0.00    +0.000 OA
ATOM     16  H   UNL     1      45.306   7.071  13.439  0.00  0.00    +0.000 HD
ATOM     17  H   UNL     1      44.382   5.825  12.680  0.00  0.00    +0.000 HD
ENDBRANCH  11  13
ENDBRANCH   2   7
BRANCH   5  18
ATOM     18  C   UNL     1      48.829   6.370  19.288  0.00  0.00    +0.000 A 
ATOM     19  C   UNL     1      47.496   6.796  19.243  0.00  0.00    +0.000 A 
ATOM     20  C   UNL     1      47.184   8.156  19.197  0.00  0.00    +0.000 A 
ATOM     21  C   UNL     1      48.215   9.093  19.220  0.00  0.00    +0.000 A 
ATOM     22  N   UNL     1      49.519   8.704  19.258  0.00  0.00    +0.000 NA
ATOM     23  C   UNL     1      49.789   7.376  19.298  0.00  0.00    +0.000 A 
BRANCH  21  24
ATOM     24  C   UNL     1      47.894  10.582  19.247  0.00  0.00    +0.000 C 
ATOM     25  F   UNL     1      47.584  11.045  20.497  0.00  0.00    +0.000 F 
ATOM     26  F   UNL     1      48.934  11.360  18.827  0.00  0.00    +0.000 F 
ATOM     27  F   UNL     1      46.831  10.921  18.464  0.00  0.00    +0.000 F 
ENDBRANCH  21  24
ENDBRANCH   5  18
TORSDOF 4
ENDMDL
