MODEL 1
REMARK VINA RESULT:    -8.508      0.000      0.000
REMARK INTER + INTRA:         -12.830
REMARK INTER:                 -11.989
REMARK INTRA:                  -0.841
REMARK UNBOUND:                -0.841
REMARK  Name = 
REMARK  7 active torsions:
REMARK  status: ('A' for Active; 'I' for Inactive)
REMARK    1  A    between atoms: C_2  and  C_21
REMARK    2  A    between atoms: N_3  and  C_4
REMARK    3  A    between atoms: C_4  and  C_5
REMARK    4  A    between atoms: C_8  and  C_9
REMARK    5  A    between atoms: C_9  and  N_10
REMARK    6  A    between atoms: N_10  and  C_11
REMARK    7  A    between atoms: C_11  and  C_12
REMARK                            x       y       z     vdW  Elec       q    Type
REMARK                         _______ _______ _______ _____ _____    ______ ____
ROOT
ATOM      1  C   UNL     1      46.694   5.446  13.523  0.00  0.00    +0.000 A 
ATOM      2  C   UNL     1      45.482   6.006  13.118  0.00  0.00    +0.000 A 
ATOM      3  C   UNL     1      44.450   5.180  12.679  0.00  0.00    +0.000 A 
ATOM      4  C   UNL     1      44.660   3.804  12.636  0.00  0.00    +0.000 A 
ATOM      5  N   UNL     1      45.821   3.232  13.035  0.00  0.00    +0.000 NA
ATOM      6  C   UNL     1      46.798   4.061  13.472  0.00  0.00    +0.000 A 
ENDROOT
BRANCH   1   7
ATOM      7  C   UNL     1      47.852   6.301  13.944  0.00  0.00    +0.000 C 
BRANCH   7  10
ATOM      8  O   UNL     1      50.273   6.849  15.164  0.00  0.00    +0.000 OA
ATOM      9  C   UNL     1      49.276   6.664  15.880  0.00  0.00    +0.000 C 
ATOM     10  N   UNL     1      48.043   6.370  15.366  0.00  0.00    +0.000 N 
ATOM     11  H   UNL     1      47.221   6.442  15.957  0.00  0.00    +0.000 HD
BRANCH   9  12
ATOM     12  C   UNL     1      49.378   6.739  17.328  0.00  0.00    +0.000 A 
ATOM     13  C   UNL     1      49.658   7.916  18.008  0.00  0.00    +0.000 A 
ATOM     14  S   UNL     1      49.599   7.725  19.711  0.00  0.00    +0.000 S 
ATOM     15  C   UNL     1      49.211   6.072  19.571  0.00  0.00    +0.000 A 
ATOM     16  N   UNL     1      48.996   5.292  20.661  0.00  0.00    +0.000 NA
ATOM     17  C   UNL     1      48.689   4.064  20.388  0.00  0.00    +0.000 A 
ATOM     18  N   UNL     1      48.590   3.547  19.121  0.00  0.00    +0.000 N 
ATOM     19  C   UNL     1      48.869   4.267  17.999  0.00  0.00    +0.000 A 
ATOM     20  O   UNL     1      48.938   3.720  16.896  0.00  0.00    +0.000 OA
ATOM     21  C   UNL     1      49.160   5.664  18.251  0.00  0.00    +0.000 A 
ATOM     22  H   UNL     1      48.396   2.566  18.978  0.00  0.00    +0.000 HD
ENDBRANCH   9  12
ENDBRANCH   7  10
ENDBRANCH   1   7
BRANCH   4  23
ATOM     23  C   UNL     1      43.578   2.867  12.138  0.00  0.00    +0.000 C 
BRANCH  23  24
ATOM     24  N   UNL     1      43.710   2.455  10.730  0.00  0.00    +0.000 NA
ATOM     25  H   UNL     1      42.814   2.050  10.438  0.00  0.00    +0.000 HD
BRANCH  24  26
ATOM     26  C   UNL     1      43.986   3.577   9.825  0.00  0.00    +0.000 C 
BRANCH  26  27
ATOM     27  C   UNL     1      45.074   3.203   8.839  0.00  0.00    +0.000 A 
ATOM     28  C   UNL     1      45.739   4.196   8.120  0.00  0.00    +0.000 A 
ATOM     29  N   UNL     1      46.737   3.927   7.240  0.00  0.00    +0.000 NA
ATOM     30  C   UNL     1      47.056   2.615   7.120  0.00  0.00    +0.000 A 
ATOM     31  C   UNL     1      46.403   1.626   7.833  0.00  0.00    +0.000 A 
ATOM     32 CL   UNL     1      46.827  -0.027   7.689  0.00  0.00    +0.000 Cl
ATOM     33  N   UNL     1      45.400   1.888   8.700  0.00  0.00    +0.000 NA
ENDBRANCH  26  27
ENDBRANCH  24  26
ENDBRANCH  23  24
ENDBRANCH   4  23
TORSDOF 7
ENDMDL
MODEL 2
REMARK VINA RESULT:    -8.196      1.259      1.279
REMARK INTER + INTRA:         -12.391
REMARK INTER:                 -11.245
REMARK INTRA:                  -1.146
REMARK UNBOUND:                -0.841
REMARK  Name = 
REMARK  7 active torsions:
REMARK  status: ('A' for Active; 'I' for Inactive)
REMARK    1  A    between atoms: C_2  and  C_21
REMARK    2  A    between atoms: N_3  and  C_4
REMARK    3  A    between atoms: C_4  and  C_5
REMARK    4  A    between atoms: C_8  and  C_9
REMARK    5  A    between atoms: C_9  and  N_10
REMARK    6  A    between atoms: N_10  and  C_11
REMARK    7  A    between atoms: C_11  and  C_12
REMARK                            x       y       z     vdW  Elec       q    Type
REMARK                         _______ _______ _______ _____ _____    ______ ____
ROOT
ATOM      1  C   UNL     1      46.864   6.152  13.619  0.00  0.00    +0.000 A 
ATOM      2  C   UNL     1      45.899   6.794  12.842  0.00  0.00    +0.000 A 
ATOM      3  C   UNL     1      44.750   6.107  12.459  0.00  0.00    +0.000 A 
ATOM      4  C   UNL     1      44.598   4.778  12.847  0.00  0.00    +0.000 A 
ATOM      5  N   UNL     1      45.512   4.135  13.612  0.00  0.00    +0.000 NA
ATOM      6  C   UNL     1      46.609   4.835  13.982  0.00  0.00    +0.000 A 
ENDROOT
BRANCH   1   7
ATOM      7  C   UNL     1      48.143   6.834  14.003  0.00  0.00    +0.000 C 
BRANCH   7  10
ATOM      8  O   UNL     1      50.401   6.427  15.548  0.00  0.00    +0.000 OA
ATOM      9  C   UNL     1      49.403   6.940  16.079  0.00  0.00    +0.000 C 
ATOM     10  N   UNL     1      48.238   7.162  15.399  0.00  0.00    +0.000 N 
ATOM     11  H   UNL     1      47.531   7.773  15.796  0.00  0.00    +0.000 HD
BRANCH   9  12
ATOM     12  C   UNL     1      49.423   7.322  17.481  0.00  0.00    +0.000 A 
ATOM     13  C   UNL     1      50.204   8.358  17.973  0.00  0.00    +0.000 A 
ATOM     14  S   UNL     1      49.933   8.656  19.640  0.00  0.00    +0.000 S 
ATOM     15  C   UNL     1      48.781   7.406  19.736  0.00  0.00    +0.000 A 
ATOM     16  N   UNL     1      48.124   7.124  20.890  0.00  0.00    +0.000 NA
ATOM     17  C   UNL     1      47.264   6.161  20.796  0.00  0.00    +0.000 A 
ATOM     18  N   UNL     1      47.012   5.449  19.650  0.00  0.00    +0.000 N 
ATOM     19  C   UNL     1      47.696   5.642  18.488  0.00  0.00    +0.000 A 
ATOM     20  O   UNL     1      47.562   4.867  17.538  0.00  0.00    +0.000 OA
ATOM     21  C   UNL     1      48.628   6.750  18.529  0.00  0.00    +0.000 A 
ATOM     22  H   UNL     1      46.364   4.674  19.656  0.00  0.00    +0.000 HD
ENDBRANCH   9  12
ENDBRANCH   7  10
ENDBRANCH   1   7
BRANCH   4  23
ATOM     23  C   UNL     1      43.379   3.981  12.430  0.00  0.00    +0.000 C 
BRANCH  23  24
ATOM     24  N   UNL     1      43.277   3.709  10.985  0.00  0.00    +0.000 NA
ATOM     25  H   UNL     1      43.645   4.528  10.487  0.00  0.00    +0.000 HD
BRANCH  24  26
ATOM     26  C   UNL     1      44.079   2.556  10.558  0.00  0.00    +0.000 C 
BRANCH  26  27
ATOM     27  C   UNL     1      44.973   2.936   9.397  0.00  0.00    +0.000 A 
ATOM     28  C   UNL     1      45.155   4.278   9.062  0.00  0.00    +0.000 A 
ATOM     29  N   UNL     1      45.961   4.683   8.047  0.00  0.00    +0.000 NA
ATOM     30  C   UNL     1      46.596   3.684   7.387  0.00  0.00    +0.000 A 
ATOM     31  C   UNL     1      46.423   2.351   7.717  0.00  0.00    +0.000 A 
ATOM     32 CL   UNL     1      47.245   1.098   6.889  0.00  0.00    +0.000 Cl
ATOM     33  N   UNL     1      45.612   1.943   8.718  0.00  0.00    +0.000 NA
ENDBRANCH  26  27
ENDBRANCH  24  26
ENDBRANCH  23  24
ENDBRANCH   4  23
TORSDOF 7
ENDMDL
MODEL 3
REMARK VINA RESULT:    -7.814      1.657      2.052
REMARK INTER + INTRA:         -11.852
REMARK INTER:                 -11.041
REMARK INTRA:                  -0.811
REMARK UNBOUND:                -0.841
REMARK  Name = 
REMARK  7 active torsions:
REMARK  status: ('A' for Active; 'I' for Inactive)
REMARK    1  A    between atoms: C_2  and  C_21
REMARK    2  A    between atoms: N_3  and  C_4
REMARK    3  A    between atoms: C_4  and  C_5
REMARK    4  A    between atoms: C_8  and  C_9
REMARK    5  A    between atoms: C_9  and  N_10
REMARK    6  A    between atoms: N_10  and  C_11
REMARK    7  A    between atoms: C_11  and  C_12
REMARK                            x       y       z     vdW  Elec       q    Type
REMARK                         _______ _______ _______ _____ _____    ______ ____
ROOT
ATOM      1  C   UNL     1      46.442   7.514  13.006  0.00  0.00    +0.000 A 
ATOM      2  C   UNL     1      45.532   8.158  12.168  0.00  0.00    +0.000 A 
ATOM      3  C   UNL     1      44.606   7.409  11.445  0.00  0.00    +0.000 A 
ATOM      4  C   UNL     1      44.623   6.022  11.562  0.00  0.00    +0.000 A 
ATOM      5  N   UNL     1      45.485   5.371  12.379  0.00  0.00    +0.000 NA
ATOM      6  C   UNL     1      46.361   6.128  13.080  0.00  0.00    +0.000 A 
ENDROOT
BRANCH   1   7
ATOM      7  C   UNL     1      47.495   8.275  13.755  0.00  0.00    +0.000 C 
BRANCH   7  10
ATOM      8  O   UNL     1      49.943   7.063  14.189  0.00  0.00    +0.000 OA
ATOM      9  C   UNL     1      49.128   7.105  15.124  0.00  0.00    +0.000 C 
ATOM     10  N   UNL     1      47.888   7.667  14.996  0.00  0.00    +0.000 N 
ATOM     11  H   UNL     1      47.342   7.877  15.826  0.00  0.00    +0.000 HD
BRANCH   9  12
ATOM     12  C   UNL     1      49.455   6.533  16.420  0.00  0.00    +0.000 A 
ATOM     13  C   UNL     1      50.293   7.157  17.333  0.00  0.00    +0.000 A 
ATOM     14  S   UNL     1      50.400   6.307  18.818  0.00  0.00    +0.000 S 
ATOM     15  C   UNL     1      49.343   5.091  18.267  0.00  0.00    +0.000 A 
ATOM     16  N   UNL     1      48.977   4.047  19.054  0.00  0.00    +0.000 NA
ATOM     17  C   UNL     1      48.151   3.220  18.498  0.00  0.00    +0.000 A 
ATOM     18  N   UNL     1      47.668   3.340  17.219  0.00  0.00    +0.000 N 
ATOM     19  C   UNL     1      48.061   4.325  16.364  0.00  0.00    +0.000 A 
ATOM     20  O   UNL     1      47.740   4.297  15.175  0.00  0.00    +0.000 OA
ATOM     21  C   UNL     1      48.940   5.310  16.963  0.00  0.00    +0.000 A 
ATOM     22  H   UNL     1      47.065   2.632  16.827  0.00  0.00    +0.000 HD
ENDBRANCH   9  12
ENDBRANCH   7  10
ENDBRANCH   1   7
BRANCH   4  23
ATOM     23  C   UNL     1      43.654   5.164  10.774  0.00  0.00    +0.000 C 
BRANCH  23  24
ATOM     24  N   UNL     1      44.255   3.989  10.118  0.00  0.00    +0.000 NA
ATOM     25  H   UNL     1      43.601   3.206  10.222  0.00  0.00    +0.000 HD
BRANCH  24  26
ATOM     26  C   UNL     1      44.467   4.180   8.678  0.00  0.00    +0.000 C 
BRANCH  26  27
ATOM     27  C   UNL     1      45.397   3.114   8.136  0.00  0.00    +0.000 A 
ATOM     28  C   UNL     1      45.491   1.877   8.773  0.00  0.00    +0.000 A 
ATOM     29  N   UNL     1      46.289   0.874   8.324  0.00  0.00    +0.000 NA
ATOM     30  C   UNL     1      46.981   1.158   7.193  0.00  0.00    +0.000 A 
ATOM     31  C   UNL     1      46.889   2.382   6.554  0.00  0.00    +0.000 A 
ATOM     32 CL   UNL     1      47.753   2.722   5.116  0.00  0.00    +0.000 Cl
ATOM     33  N   UNL     1      46.106   3.387   7.006  0.00  0.00    +0.000 NA
ENDBRANCH  26  27
ENDBRANCH  24  26
ENDBRANCH  23  24
ENDBRANCH   4  23
TORSDOF 7
ENDMDL
MODEL 4
REMARK VINA RESULT:    -7.620      2.145      3.281
REMARK INTER + INTRA:         -11.579
REMARK INTER:                 -10.567
REMARK INTRA:                  -1.012
REMARK UNBOUND:                -0.841
REMARK  Name = 
REMARK  7 active torsions:
REMARK  status: ('A' for Active; 'I' for Inactive)
REMARK    1  A    between atoms: C_2  and  C_21
REMARK    2  A    between atoms: N_3  and  C_4
REMARK    3  A    between atoms: C_4  and  C_5
REMARK    4  A    between atoms: C_8  and  C_9
REMARK    5  A    between atoms: C_9  and  N_10
REMARK    6  A    between atoms: N_10  and  C_11
REMARK    7  A    between atoms: C_11  and  C_12
REMARK                            x       y       z     vdW  Elec       q    Type
REMARK                         _______ _______ _______ _____ _____    ______ ____
ROOT
ATOM      1  C   UNL     1      46.910   4.966  14.024  0.00  0.00    +0.000 A 
ATOM      2  C   UNL     1      47.378   6.079  13.326  0.00  0.00    +0.000 A 
ATOM      3  C   UNL     1      46.778   6.443  12.122  0.00  0.00    +0.000 A 
ATOM      4  C   UNL     1      45.729   5.670  11.631  0.00  0.00    +0.000 A 
ATOM      5  N   UNL     1      45.246   4.593  12.295  0.00  0.00    +0.000 NA
ATOM      6  C   UNL     1      45.838   4.276  13.469  0.00  0.00    +0.000 A 
ENDROOT
BRANCH   1   7
ATOM      7  C   UNL     1      47.564   4.502  15.291  0.00  0.00    +0.000 C 
BRANCH   7  10
ATOM      8  O   UNL     1      49.844   5.509  16.491  0.00  0.00    +0.000 OA
ATOM      9  C   UNL     1      48.739   5.931  16.869  0.00  0.00    +0.000 C 
ATOM     10  N   UNL     1      47.560   5.479  16.346  0.00  0.00    +0.000 N 
ATOM     11  H   UNL     1      46.702   5.994  16.517  0.00  0.00    +0.000 HD
BRANCH   9  12
ATOM     12  C   UNL     1      48.647   6.936  17.915  0.00  0.00    +0.000 A 
ATOM     13  C   UNL     1      48.803   6.642  19.263  0.00  0.00    +0.000 A 
ATOM     14  S   UNL     1      48.760   8.042  20.252  0.00  0.00    +0.000 S 
ATOM     15  C   UNL     1      48.522   9.058  18.907  0.00  0.00    +0.000 A 
ATOM     16  N   UNL     1      48.420  10.406  19.035  0.00  0.00    +0.000 NA
ATOM     17  C   UNL     1      48.263  11.040  17.918  0.00  0.00    +0.000 A 
ATOM     18  N   UNL     1      48.188  10.443  16.684  0.00  0.00    +0.000 N 
ATOM     19  C   UNL     1      48.209   9.092  16.509  0.00  0.00    +0.000 A 
ATOM     20  O   UNL     1      47.964   8.592  15.409  0.00  0.00    +0.000 OA
ATOM     21  C   UNL     1      48.443   8.342  17.727  0.00  0.00    +0.000 A 
ATOM     22  H   UNL     1      48.013  10.992  15.855  0.00  0.00    +0.000 HD
ENDBRANCH   9  12
ENDBRANCH   7  10
ENDBRANCH   1   7
BRANCH   4  23
ATOM     23  C   UNL     1      45.065   6.010  10.312  0.00  0.00    +0.000 C 
BRANCH  23  24
ATOM     24  N   UNL     1      45.595   5.287   9.143  0.00  0.00    +0.000 NA
ATOM     25  H   UNL     1      46.493   4.870   9.415  0.00  0.00    +0.000 HD
BRANCH  24  26
ATOM     26  C   UNL     1      44.729   4.185   8.706  0.00  0.00    +0.000 C 
BRANCH  26  27
ATOM     27  C   UNL     1      45.561   3.054   8.138  0.00  0.00    +0.000 A 
ATOM     28  C   UNL     1      45.528   1.793   8.733  0.00  0.00    +0.000 A 
ATOM     29  N   UNL     1      46.233   0.734   8.258  0.00  0.00    +0.000 NA
ATOM     30  C   UNL     1      46.964   0.986   7.145  0.00  0.00    +0.000 A 
ATOM     31  C   UNL     1      46.998   2.234   6.547  0.00  0.00    +0.000 A 
ATOM     32 CL   UNL     1      47.910   2.537   5.130  0.00  0.00    +0.000 Cl
ATOM     33  N   UNL     1      46.308   3.294   7.025  0.00  0.00    +0.000 NA
ENDBRANCH  26  27
ENDBRANCH  24  26
ENDBRANCH  23  24
ENDBRANCH   4  23
TORSDOF 7
ENDMDL
MODEL 5
REMARK VINA RESULT:    -7.594      2.781      3.338
REMARK INTER + INTRA:         -11.543
REMARK INTER:                 -10.860
REMARK INTRA:                  -0.683
REMARK UNBOUND:                -0.841
REMARK  Name = 
REMARK  7 active torsions:
REMARK  status: ('A' for Active; 'I' for Inactive)
REMARK    1  A    between atoms: C_2  and  C_21
REMARK    2  A    between atoms: N_3  and  C_4
REMARK    3  A    between atoms: C_4  and  C_5
REMARK    4  A    between atoms: C_8  and  C_9
REMARK    5  A    between atoms: C_9  and  N_10
REMARK    6  A    between atoms: N_10  and  C_11
REMARK    7  A    between atoms: C_11  and  C_12
REMARK                            x       y       z     vdW  Elec       q    Type
REMARK                         _______ _______ _______ _____ _____    ______ ____
ROOT
ATOM      1  C   UNL     1      47.908   5.292  16.076  0.00  0.00    +0.000 A 
ATOM      2  C   UNL     1      47.999   6.144  14.975  0.00  0.00    +0.000 A 
ATOM      3  C   UNL     1      47.464   5.751  13.750  0.00  0.00    +0.000 A 
ATOM      4  C   UNL     1      46.862   4.499  13.648  0.00  0.00    +0.000 A 
ATOM      5  N   UNL     1      46.747   3.659  14.703  0.00  0.00    +0.000 NA
ATOM      6  C   UNL     1      47.262   4.076  15.883  0.00  0.00    +0.000 A 
ENDROOT
BRANCH   1   7
ATOM      7  C   UNL     1      48.523   5.648  17.397  0.00  0.00    +0.000 C 
BRANCH   7  10
ATOM      8  O   UNL     1      51.109   6.228  16.605  0.00  0.00    +0.000 OA
ATOM      9  C   UNL     1      50.917   5.230  17.318  0.00  0.00    +0.000 C 
ATOM     10  N   UNL     1      49.672   4.856  17.741  0.00  0.00    +0.000 N 
ATOM     11  H   UNL     1      49.577   4.176  18.490  0.00  0.00    +0.000 HD
BRANCH   9  12
ATOM     12  C   UNL     1      52.027   4.388  17.730  0.00  0.00    +0.000 A 
ATOM     13  C   UNL     1      53.217   4.896  18.234  0.00  0.00    +0.000 A 
ATOM     14  S   UNL     1      54.295   3.665  18.746  0.00  0.00    +0.000 S 
ATOM     15  C   UNL     1      53.202   2.439  18.297  0.00  0.00    +0.000 A 
ATOM     16  N   UNL     1      53.484   1.123  18.484  0.00  0.00    +0.000 NA
ATOM     17  C   UNL     1      52.544   0.316  18.111  0.00  0.00    +0.000 A 
ATOM     18  N   UNL     1      51.351   0.708  17.559  0.00  0.00    +0.000 N 
ATOM     19  C   UNL     1      51.050   2.008  17.282  0.00  0.00    +0.000 A 
ATOM     20  O   UNL     1      50.047   2.300  16.628  0.00  0.00    +0.000 OA
ATOM     21  C   UNL     1      52.049   2.954  17.736  0.00  0.00    +0.000 A 
ATOM     22  H   UNL     1      50.679   0.024  17.242  0.00  0.00    +0.000 HD
ENDBRANCH   9  12
ENDBRANCH   7  10
ENDBRANCH   1   7
BRANCH   4  23
ATOM     23  C   UNL     1      46.292   4.017  12.330  0.00  0.00    +0.000 C 
BRANCH  23  24
ATOM     24  N   UNL     1      45.285   2.947  12.441  0.00  0.00    +0.000 NA
ATOM     25  H   UNL     1      44.830   3.041  13.356  0.00  0.00    +0.000 HD
BRANCH  24  26
ATOM     26  C   UNL     1      44.228   3.043  11.427  0.00  0.00    +0.000 C 
BRANCH  26  27
ATOM     27  C   UNL     1      44.832   3.084  10.039  0.00  0.00    +0.000 A 
ATOM     28  C   UNL     1      44.841   4.275   9.314  0.00  0.00    +0.000 A 
ATOM     29  N   UNL     1      45.387   4.382   8.075  0.00  0.00    +0.000 NA
ATOM     30  C   UNL     1      45.942   3.242   7.595  0.00  0.00    +0.000 A 
ATOM     31  C   UNL     1      45.940   2.058   8.311  0.00  0.00    +0.000 A 
ATOM     32 CL   UNL     1      46.662   0.629   7.703  0.00  0.00    +0.000 Cl
ATOM     33  N   UNL     1      45.386   1.945   9.538  0.00  0.00    +0.000 NA
ENDBRANCH  26  27
ENDBRANCH  24  26
ENDBRANCH  23  24
ENDBRANCH   4  23
TORSDOF 7
ENDMDL
MODEL 6
REMARK VINA RESULT:    -7.495      2.446      2.943
REMARK INTER + INTRA:         -11.404
REMARK INTER:                 -10.498
REMARK INTRA:                  -0.905
REMARK UNBOUND:                -0.841
REMARK  Name = 
REMARK  7 active torsions:
REMARK  status: ('A' for Active; 'I' for Inactive)
REMARK    1  A    between atoms: C_2  and  C_21
REMARK    2  A    between atoms: N_3  and  C_4
REMARK    3  A    between atoms: C_4  and  C_5
REMARK    4  A    between atoms: C_8  and  C_9
REMARK    5  A    between atoms: C_9  and  N_10
REMARK    6  A    between atoms: N_10  and  C_11
REMARK    7  A    between atoms: C_11  and  C_12
REMARK                            x       y       z     vdW  Elec       q    Type
REMARK                         _______ _______ _______ _____ _____    ______ ____
ROOT
ATOM      1  C   UNL     1      47.720   6.309  14.245  0.00  0.00    +0.000 A 
ATOM      2  C   UNL     1      47.155   5.059  14.498  0.00  0.00    +0.000 A 
ATOM      3  C   UNL     1      46.311   4.477  13.555  0.00  0.00    +0.000 A 
ATOM      4  C   UNL     1      46.033   5.171  12.380  0.00  0.00    +0.000 A 
ATOM      5  N   UNL     1      46.578   6.379  12.103  0.00  0.00    +0.000 NA
ATOM      6  C   UNL     1      47.407   6.909  13.031  0.00  0.00    +0.000 A 
ENDROOT
BRANCH   1   7
ATOM      7  C   UNL     1      48.585   6.999  15.257  0.00  0.00    +0.000 C 
BRANCH   7  10
ATOM      8  O   UNL     1      49.131   6.373  17.896  0.00  0.00    +0.000 OA
ATOM      9  C   UNL     1      49.897   5.951  17.015  0.00  0.00    +0.000 C 
ATOM     10  N   UNL     1      49.717   6.225  15.688  0.00  0.00    +0.000 N 
ATOM     11  H   UNL     1      50.225   5.692  14.989  0.00  0.00    +0.000 HD
BRANCH   9  12
ATOM     12  C   UNL     1      51.054   5.142  17.363  0.00  0.00    +0.000 A 
ATOM     13  C   UNL     1      52.253   5.685  17.802  0.00  0.00    +0.000 A 
ATOM     14  S   UNL     1      53.395   4.488  18.250  0.00  0.00    +0.000 S 
ATOM     15  C   UNL     1      52.317   3.229  17.858  0.00  0.00    +0.000 A 
ATOM     16  N   UNL     1      52.649   1.923  18.025  0.00  0.00    +0.000 NA
ATOM     17  C   UNL     1      51.715   1.088  17.702  0.00  0.00    +0.000 A 
ATOM     18  N   UNL     1      50.481   1.444  17.217  0.00  0.00    +0.000 N 
ATOM     19  C   UNL     1      50.127   2.735  16.961  0.00  0.00    +0.000 A 
ATOM     20  O   UNL     1      49.080   2.997  16.365  0.00  0.00    +0.000 OA
ATOM     21  C   UNL     1      51.120   3.710  17.363  0.00  0.00    +0.000 A 
ATOM     22  H   UNL     1      49.814   0.740  16.936  0.00  0.00    +0.000 HD
ENDBRANCH   9  12
ENDBRANCH   7  10
ENDBRANCH   1   7
BRANCH   4  23
ATOM     23  C   UNL     1      45.098   4.591  11.338  0.00  0.00    +0.000 C 
BRANCH  23  24
ATOM     24  N   UNL     1      45.292   5.108   9.972  0.00  0.00    +0.000 NA
ATOM     25  H   UNL     1      46.282   4.991   9.732  0.00  0.00    +0.000 HD
BRANCH  24  26
ATOM     26  C   UNL     1      44.519   4.373   8.963  0.00  0.00    +0.000 C 
BRANCH  26  27
ATOM     27  C   UNL     1      45.367   3.285   8.339  0.00  0.00    +0.000 A 
ATOM     28  C   UNL     1      45.394   2.009   8.901  0.00  0.00    +0.000 A 
ATOM     29  N   UNL     1      46.116   0.986   8.376  0.00  0.00    +0.000 NA
ATOM     30  C   UNL     1      46.801   1.290   7.247  0.00  0.00    +0.000 A 
ATOM     31  C   UNL     1      46.775   2.553   6.682  0.00  0.00    +0.000 A 
ATOM     32 CL   UNL     1      47.630   2.922   5.245  0.00  0.00    +0.000 Cl
ATOM     33  N   UNL     1      46.069   3.577   7.209  0.00  0.00    +0.000 NA
ENDBRANCH  26  27
ENDBRANCH  24  26
ENDBRANCH  23  24
ENDBRANCH   4  23
TORSDOF 7
ENDMDL
MODEL 7
REMARK VINA RESULT:    -7.251      3.625      8.845
REMARK INTER + INTRA:         -11.059
REMARK INTER:                  -9.603
REMARK INTRA:                  -1.456
REMARK UNBOUND:                -0.841
REMARK  Name = 
REMARK  7 active torsions:
REMARK  status: ('A' for Active; 'I' for Inactive)
REMARK    1  A    between atoms: C_2  and  C_21
REMARK    2  A    between atoms: N_3  and  C_4
REMARK    3  A    between atoms: C_4  and  C_5
REMARK    4  A    between atoms: C_8  and  C_9
REMARK    5  A    between atoms: C_9  and  N_10
REMARK    6  A    between atoms: N_10  and  C_11
REMARK    7  A    between atoms: C_11  and  C_12
REMARK                            x       y       z     vdW  Elec       q    Type
REMARK                         _______ _______ _______ _____ _____    ______ ____
ROOT
ATOM      1  C   UNL     1      48.115   8.134  13.121  0.00  0.00    +0.000 A 
ATOM      2  C   UNL     1      47.679   8.838  14.243  0.00  0.00    +0.000 A 
ATOM      3  C   UNL     1      48.495   8.921  15.369  0.00  0.00    +0.000 A 
ATOM      4  C   UNL     1      49.731   8.278  15.354  0.00  0.00    +0.000 A 
ATOM      5  N   UNL     1      50.185   7.600  14.274  0.00  0.00    +0.000 NA
ATOM      6  C   UNL     1      49.376   7.552  13.190  0.00  0.00    +0.000 A 
ENDROOT
BRANCH   1   7
ATOM      7  C   UNL     1      47.245   7.967  11.911  0.00  0.00    +0.000 C 
BRANCH   7  10
ATOM      8  O   UNL     1      44.547   7.508  11.507  0.00  0.00    +0.000 OA
ATOM      9  C   UNL     1      45.312   6.532  11.572  0.00  0.00    +0.000 C 
ATOM     10  N   UNL     1      46.655   6.662  11.788  0.00  0.00    +0.000 N 
ATOM     11  H   UNL     1      47.272   5.873  11.618  0.00  0.00    +0.000 HD
BRANCH   9  12
ATOM     12  C   UNL     1      44.800   5.178  11.434  0.00  0.00    +0.000 A 
ATOM     13  C   UNL     1      44.091   4.531  12.437  0.00  0.00    +0.000 A 
ATOM     14  S   UNL     1      43.514   2.992  11.949  0.00  0.00    +0.000 S 
ATOM     15  C   UNL     1      44.206   3.158  10.402  0.00  0.00    +0.000 A 
ATOM     16  N   UNL     1      44.074   2.197   9.451  0.00  0.00    +0.000 NA
ATOM     17  C   UNL     1      44.639   2.481   8.321  0.00  0.00    +0.000 A 
ATOM     18  N   UNL     1      45.333   3.637   8.063  0.00  0.00    +0.000 N 
ATOM     19  C   UNL     1      45.558   4.596   9.004  0.00  0.00    +0.000 A 
ATOM     20  O   UNL     1      46.330   5.531   8.783  0.00  0.00    +0.000 OA
ATOM     21  C   UNL     1      44.894   4.349  10.269  0.00  0.00    +0.000 A 
ATOM     22  H   UNL     1      45.794   3.775   7.175  0.00  0.00    +0.000 HD
ENDBRANCH   9  12
ENDBRANCH   7  10
ENDBRANCH   1   7
BRANCH   4  23
ATOM     23  C   UNL     1      50.641   8.317  16.564  0.00  0.00    +0.000 C 
BRANCH  23  24
ATOM     24  N   UNL     1      50.246   7.424  17.668  0.00  0.00    +0.000 NA
ATOM     25  H   UNL     1      49.221   7.388  17.689  0.00  0.00    +0.000 HD
BRANCH  24  26
ATOM     26  C   UNL     1      50.718   6.046  17.491  0.00  0.00    +0.000 C 
BRANCH  26  27
ATOM     27  C   UNL     1      49.542   5.101  17.350  0.00  0.00    +0.000 A 
ATOM     28  C   UNL     1      49.250   4.190  18.365  0.00  0.00    +0.000 A 
ATOM     29  N   UNL     1      48.197   3.334  18.308  0.00  0.00    +0.000 NA
ATOM     30  C   UNL     1      47.435   3.439  17.192  0.00  0.00    +0.000 A 
ATOM     31  C   UNL     1      47.717   4.343  16.184  0.00  0.00    +0.000 A 
ATOM     32 CL   UNL     1      46.736   4.481  14.788  0.00  0.00    +0.000 Cl
ATOM     33  N   UNL     1      48.771   5.188  16.231  0.00  0.00    +0.000 NA
ENDBRANCH  26  27
ENDBRANCH  24  26
ENDBRANCH  23  24
ENDBRANCH   4  23
TORSDOF 7
ENDMDL
MODEL 8
REMARK VINA RESULT:    -7.056      3.403      5.052
REMARK INTER + INTRA:         -10.785
REMARK INTER:                  -9.933
REMARK INTRA:                  -0.852
REMARK UNBOUND:                -0.841
REMARK  Name = 
REMARK  7 active torsions:
REMARK  status: ('A' for Active; 'I' for Inactive)
REMARK    1  A    between atoms: C_2  and  C_21
REMARK    2  A    between atoms: N_3  and  C_4
REMARK    3  A    between atoms: C_4  and  C_5
REMARK    4  A    between atoms: C_8  and  C_9
REMARK    5  A    between atoms: C_9  and  N_10
REMARK    6  A    between atoms: N_10  and  C_11
REMARK    7  A    between atoms: C_11  and  C_12
REMARK                            x       y       z     vdW  Elec       q    Type
REMARK                         _______ _______ _______ _____ _____    ______ ____
ROOT
ATOM      1  C   UNL     1      47.893   4.123  16.331  0.00  0.00    +0.000 A 
ATOM      2  C   UNL     1      47.127   3.652  15.265  0.00  0.00    +0.000 A 
ATOM      3  C   UNL     1      46.949   4.449  14.136  0.00  0.00    +0.000 A 
ATOM      4  C   UNL     1      47.529   5.715  14.106  0.00  0.00    +0.000 A 
ATOM      5  N   UNL     1      48.289   6.191  15.121  0.00  0.00    +0.000 NA
ATOM      6  C   UNL     1      48.457   5.387  16.196  0.00  0.00    +0.000 A 
ENDROOT
BRANCH   1   7
ATOM      7  C   UNL     1      48.061   3.325  17.590  0.00  0.00    +0.000 C 
BRANCH   7  10
ATOM      8  O   UNL     1      49.730   1.677  16.124  0.00  0.00    +0.000 OA
ATOM      9  C   UNL     1      50.185   2.232  17.137  0.00  0.00    +0.000 C 
ATOM     10  N   UNL     1      49.429   3.048  17.932  0.00  0.00    +0.000 N 
ATOM     11  H   UNL     1      49.882   3.649  18.614  0.00  0.00    +0.000 HD
BRANCH   9  12
ATOM     12  C   UNL     1      51.565   2.024  17.541  0.00  0.00    +0.000 A 
ATOM     13  C   UNL     1      52.118   0.764  17.727  0.00  0.00    +0.000 A 
ATOM     14  S   UNL     1      53.793   0.825  18.086  0.00  0.00    +0.000 S 
ATOM     15  C   UNL     1      53.807   2.526  18.011  0.00  0.00    +0.000 A 
ATOM     16  N   UNL     1      54.945   3.242  18.201  0.00  0.00    +0.000 NA
ATOM     17  C   UNL     1      54.796   4.523  18.091  0.00  0.00    +0.000 A 
ATOM     18  N   UNL     1      53.607   5.151  17.817  0.00  0.00    +0.000 N 
ATOM     19  C   UNL     1      52.425   4.484  17.693  0.00  0.00    +0.000 A 
ATOM     20  O   UNL     1      51.358   5.096  17.622  0.00  0.00    +0.000 OA
ATOM     21  C   UNL     1      52.552   3.042  17.750  0.00  0.00    +0.000 A 
ATOM     22  H   UNL     1      53.549   6.158  17.794  0.00  0.00    +0.000 HD
ENDBRANCH   9  12
ENDBRANCH   7  10
ENDBRANCH   1   7
BRANCH   4  23
ATOM     23  C   UNL     1      47.339   6.628  12.912  0.00  0.00    +0.000 C 
BRANCH  23  24
ATOM     24  N   UNL     1      46.055   7.349  12.878  0.00  0.00    +0.000 NA
ATOM     25  H   UNL     1      46.259   8.354  12.911  0.00  0.00    +0.000 HD
BRANCH  24  26
ATOM     26  C   UNL     1      45.293   7.110  11.645  0.00  0.00    +0.000 C 
BRANCH  26  27
ATOM     27  C   UNL     1      44.617   5.756  11.698  0.00  0.00    +0.000 A 
ATOM     28  C   UNL     1      43.743   5.449  12.740  0.00  0.00    +0.000 A 
ATOM     29  N   UNL     1      43.089   4.262  12.831  0.00  0.00    +0.000 NA
ATOM     30  C   UNL     1      43.335   3.395  11.818  0.00  0.00    +0.000 A 
ATOM     31  C   UNL     1      44.198   3.695  10.778  0.00  0.00    +0.000 A 
ATOM     32 CL   UNL     1      44.486   2.600   9.494  0.00  0.00    +0.000 Cl
ATOM     33  N   UNL     1      44.860   4.870  10.692  0.00  0.00    +0.000 NA
ENDBRANCH  26  27
ENDBRANCH  24  26
ENDBRANCH  23  24
ENDBRANCH   4  23
TORSDOF 7
ENDMDL
MODEL 9
REMARK VINA RESULT:    -6.946      3.881      8.181
REMARK INTER + INTRA:         -10.629
REMARK INTER:                  -8.889
REMARK INTRA:                  -1.740
REMARK UNBOUND:                -0.841
REMARK  Name = 
REMARK  7 active torsions:
REMARK  status: ('A' for Active; 'I' for Inactive)
REMARK    1  A    between atoms: C_2  and  C_21
REMARK    2  A    between atoms: N_3  and  C_4
REMARK    3  A    between atoms: C_4  and  C_5
REMARK    4  A    between atoms: C_8  and  C_9
REMARK    5  A    between atoms: C_9  and  N_10
REMARK    6  A    between atoms: N_10  and  C_11
REMARK    7  A    between atoms: C_11  and  C_12
REMARK                            x       y       z     vdW  Elec       q    Type
REMARK                         _______ _______ _______ _____ _____    ______ ____
ROOT
ATOM      1  C   UNL     1      49.526   8.222  16.119  0.00  0.00    +0.000 A 
ATOM      2  C   UNL     1      50.484   7.432  15.482  0.00  0.00    +0.000 A 
ATOM      3  C   UNL     1      51.406   6.716  16.242  0.00  0.00    +0.000 A 
ATOM      4  C   UNL     1      51.362   6.821  17.630  0.00  0.00    +0.000 A 
ATOM      5  N   UNL     1      50.435   7.569  18.274  0.00  0.00    +0.000 NA
ATOM      6  C   UNL     1      49.543   8.239  17.508  0.00  0.00    +0.000 A 
ENDROOT
BRANCH   1   7
ATOM      7  C   UNL     1      48.554   9.057  15.340  0.00  0.00    +0.000 C 
BRANCH   7  10
ATOM      8  O   UNL     1      48.310   8.632  12.618  0.00  0.00    +0.000 OA
ATOM      9  C   UNL     1      47.461   8.134  13.375  0.00  0.00    +0.000 C 
ATOM     10  N   UNL     1      47.491   8.306  14.731  0.00  0.00    +0.000 N 
ATOM     11  H   UNL     1      46.921   7.714  15.327  0.00  0.00    +0.000 HD
BRANCH   9  12
ATOM     12  C   UNL     1      46.365   7.341  12.842  0.00  0.00    +0.000 A 
ATOM     13  C   UNL     1      45.342   7.882  12.076  0.00  0.00    +0.000 A 
ATOM     14  S   UNL     1      44.257   6.691  11.489  0.00  0.00    +0.000 S 
ATOM     15  C   UNL     1      45.124   5.440  12.253  0.00  0.00    +0.000 A 
ATOM     16  N   UNL     1      44.751   4.139  12.143  0.00  0.00    +0.000 NA
ATOM     17  C   UNL     1      45.524   3.307  12.763  0.00  0.00    +0.000 A 
ATOM     18  N   UNL     1      46.632   3.663  13.492  0.00  0.00    +0.000 N 
ATOM     19  C   UNL     1      47.004   4.957  13.694  0.00  0.00    +0.000 A 
ATOM     20  O   UNL     1      47.898   5.241  14.495  0.00  0.00    +0.000 OA
ATOM     21  C   UNL     1      46.202   5.923  12.970  0.00  0.00    +0.000 A 
ATOM     22  H   UNL     1      47.164   2.967  13.994  0.00  0.00    +0.000 HD
ENDBRANCH   9  12
ENDBRANCH   7  10
ENDBRANCH   1   7
BRANCH   4  23
ATOM     23  C   UNL     1      52.362   6.083  18.496  0.00  0.00    +0.000 C 
BRANCH  23  24
ATOM     24  N   UNL     1      51.823   4.913  19.211  0.00  0.00    +0.000 NA
ATOM     25  H   UNL     1      50.809   5.043  19.300  0.00  0.00    +0.000 HD
BRANCH  24  26
ATOM     26  C   UNL     1      52.030   3.652  18.490  0.00  0.00    +0.000 C 
BRANCH  26  27
ATOM     27  C   UNL     1      50.757   3.233  17.784  0.00  0.00    +0.000 A 
ATOM     28  C   UNL     1      50.754   2.116  16.949  0.00  0.00    +0.000 A 
ATOM     29  N   UNL     1      49.641   1.677  16.307  0.00  0.00    +0.000 NA
ATOM     30  C   UNL     1      48.519   2.398  16.550  0.00  0.00    +0.000 A 
ATOM     31  C   UNL     1      48.514   3.505  17.380  0.00  0.00    +0.000 A 
ATOM     32 CL   UNL     1      47.088   4.397  17.695  0.00  0.00    +0.000 Cl
ATOM     33  N   UNL     1      49.623   3.953  18.011  0.00  0.00    +0.000 NA
ENDBRANCH  26  27
ENDBRANCH  24  26
ENDBRANCH  23  24
ENDBRANCH   4  23
TORSDOF 7
ENDMDL
