MODEL 1
REMARK VINA RESULT:    -7.746      0.000      0.000
REMARK INTER + INTRA:         -10.619
REMARK INTER:                 -10.011
REMARK INTRA:                  -0.608
REMARK UNBOUND:                -0.608
REMARK  Name = 
REMARK  7 active torsions:
REMARK  status: ('A' for Active; 'I' for Inactive)
REMARK    1  A    between atoms: C_1  and  C_2
REMARK    2  A    between atoms: C_2  and  C_3
REMARK    3  A    between atoms: C_2  and  C_4
REMARK    4  A    between atoms: C_2  and  C_15
REMARK    5  A    between atoms: C_4  and  O_5
REMARK    6  A    between atoms: O_5  and  C_6
REMARK    7  A    between atoms: C_9  and  C_10
REMARK                            x       y       z     vdW  Elec       q    Type
REMARK                         _______ _______ _______ _____ _____    ______ ____
ROOT
ATOM      1  O   UNL     1      43.792   3.399  10.175  0.00  0.00    +0.000 OA
ENDROOT
BRANCH   1   2
ATOM      2  C   UNL     1      44.733   3.035   9.252  0.00  0.00    +0.000 A 
ATOM      3  C   UNL     1      45.251   1.756   9.071  0.00  0.00    +0.000 A 
ATOM      4  C   UNL     1      46.198   1.527   8.071  0.00  0.00    +0.000 A 
ATOM      5  C   UNL     1      46.599   2.598   7.284  0.00  0.00    +0.000 A 
ATOM      6  N   UNL     1      46.126   3.865   7.430  0.00  0.00    +0.000 NA
ATOM      7  C   UNL     1      45.206   4.042   8.412  0.00  0.00    +0.000 A 
BRANCH   5   8
ATOM      8  C   UNL     1      47.605   2.369   6.197  0.00  0.00    +0.000 C 
ATOM      9  N   UNL     1      47.534   3.229   5.139  0.00  0.00    +0.000 N 
ATOM     10  O   UNL     1      48.437   1.472   6.244  0.00  0.00    +0.000 OA
ATOM     11  H   UNL     1      46.828   3.957   5.132  0.00  0.00    +0.000 HD
ATOM     12  H   UNL     1      48.175   3.133   4.364  0.00  0.00    +0.000 HD
ENDBRANCH   5   8
ENDBRANCH   1   2
BRANCH   1  13
ATOM     13  C   UNL     1      43.877   4.737  10.679  0.00  0.00    +0.000 C 
BRANCH  13  15
ATOM     14  C   UNL     1      42.614   5.412  12.728  0.00  0.00    +0.000 C 
ATOM     15  C   UNL     1      43.914   4.739  12.235  0.00  0.00    +0.000 C 
ATOM     16  C   UNL     1      43.890   3.267  12.708  0.00  0.00    +0.000 C 
BRANCH  15  17
ATOM     17  C   UNL     1      45.203   5.469  12.775  0.00  0.00    +0.000 C 
ATOM     18  C   UNL     1      46.143   5.985  11.662  0.00  0.00    +0.000 C 
ATOM     19  C   UNL     1      47.418   6.596  12.232  0.00  0.00    +0.000 C 
ATOM     20  O   UNL     1      48.093   5.668  13.074  0.00  0.00    +0.000 OA
ATOM     21  C   UNL     1      47.302   5.310  14.203  0.00  0.00    +0.000 C 
ATOM     22  C   UNL     1      46.025   4.607  13.760  0.00  0.00    +0.000 C 
ENDBRANCH  15  17
ENDBRANCH  13  15
ENDBRANCH   1  13
TORSDOF 5
ENDMDL
MODEL 2
REMARK VINA RESULT:    -7.478      1.056      1.699
REMARK INTER + INTRA:         -10.272
REMARK INTER:                  -9.610
REMARK INTRA:                  -0.662
REMARK UNBOUND:                -0.608
REMARK  Name = 
REMARK  7 active torsions:
REMARK  status: ('A' for Active; 'I' for Inactive)
REMARK    1  A    between atoms: C_1  and  C_2
REMARK    2  A    between atoms: C_2  and  C_3
REMARK    3  A    between atoms: C_2  and  C_4
REMARK    4  A    between atoms: C_2  and  C_15
REMARK    5  A    between atoms: C_4  and  O_5
REMARK    6  A    between atoms: O_5  and  C_6
REMARK    7  A    between atoms: C_9  and  C_10
REMARK                            x       y       z     vdW  Elec       q    Type
REMARK                         _______ _______ _______ _____ _____    ______ ____
ROOT
ATOM      1  O   UNL     1      43.481   3.253  10.197  0.00  0.00    +0.000 OA
ENDROOT
BRANCH   1   2
ATOM      2  C   UNL     1      44.466   3.135   9.256  0.00  0.00    +0.000 A 
ATOM      3  C   UNL     1      44.975   4.163   8.470  0.00  0.00    +0.000 A 
ATOM      4  C   UNL     1      45.998   3.897   7.558  0.00  0.00    +0.000 A 
ATOM      5  C   UNL     1      46.476   2.597   7.462  0.00  0.00    +0.000 A 
ATOM      6  N   UNL     1      46.003   1.560   8.204  0.00  0.00    +0.000 NA
ATOM      7  C   UNL     1      45.011   1.864   9.079  0.00  0.00    +0.000 A 
BRANCH   5   8
ATOM      8  C   UNL     1      47.583   2.295   6.499  0.00  0.00    +0.000 C 
ATOM      9  N   UNL     1      47.558   3.005   5.333  0.00  0.00    +0.000 N 
ATOM     10  O   UNL     1      48.455   1.468   6.732  0.00  0.00    +0.000 OA
ATOM     11  H   UNL     1      46.818   3.679   5.172  0.00  0.00    +0.000 HD
ATOM     12  H   UNL     1      48.268   2.851   4.631  0.00  0.00    +0.000 HD
ENDBRANCH   5   8
ENDBRANCH   1   2
BRANCH   1  13
ATOM     13  C   UNL     1      43.901   3.246  11.566  0.00  0.00    +0.000 C 
BRANCH  13  15
ATOM     14  C   UNL     1      42.707   5.434  11.370  0.00  0.00    +0.000 C 
ATOM     15  C   UNL     1      43.764   4.664  12.192  0.00  0.00    +0.000 C 
ATOM     16  C   UNL     1      43.213   4.494  13.626  0.00  0.00    +0.000 C 
BRANCH  15  17
ATOM     17  C   UNL     1      45.153   5.411  12.222  0.00  0.00    +0.000 C 
ATOM     18  C   UNL     1      46.156   4.828  13.243  0.00  0.00    +0.000 C 
ATOM     19  C   UNL     1      47.444   5.641  13.302  0.00  0.00    +0.000 C 
ATOM     20  O   UNL     1      47.169   7.008  13.588  0.00  0.00    +0.000 OA
ATOM     21  C   UNL     1      46.382   7.611  12.565  0.00  0.00    +0.000 C 
ATOM     22  C   UNL     1      45.022   6.932  12.466  0.00  0.00    +0.000 C 
ENDBRANCH  15  17
ENDBRANCH  13  15
ENDBRANCH   1  13
TORSDOF 5
ENDMDL
MODEL 3
REMARK VINA RESULT:    -6.522      2.362      2.782
REMARK INTER + INTRA:          -9.036
REMARK INTER:                  -8.622
REMARK INTRA:                  -0.414
REMARK UNBOUND:                -0.608
REMARK  Name = 
REMARK  7 active torsions:
REMARK  status: ('A' for Active; 'I' for Inactive)
REMARK    1  A    between atoms: C_1  and  C_2
REMARK    2  A    between atoms: C_2  and  C_3
REMARK    3  A    between atoms: C_2  and  C_4
REMARK    4  A    between atoms: C_2  and  C_15
REMARK    5  A    between atoms: C_4  and  O_5
REMARK    6  A    between atoms: O_5  and  C_6
REMARK    7  A    between atoms: C_9  and  C_10
REMARK                            x       y       z     vdW  Elec       q    Type
REMARK                         _______ _______ _______ _____ _____    ______ ____
ROOT
ATOM      1  O   UNL     1      44.412   4.866  10.024  0.00  0.00    +0.000 OA
ENDROOT
BRANCH   1   2
ATOM      2  C   UNL     1      45.104   3.991   9.234  0.00  0.00    +0.000 A 
ATOM      3  C   UNL     1      45.854   4.319   8.109  0.00  0.00    +0.000 A 
ATOM      4  C   UNL     1      46.525   3.317   7.406  0.00  0.00    +0.000 A 
ATOM      5  C   UNL     1      46.417   2.008   7.857  0.00  0.00    +0.000 A 
ATOM      6  N   UNL     1      45.690   1.641   8.946  0.00  0.00    +0.000 NA
ATOM      7  C   UNL     1      45.056   2.646   9.600  0.00  0.00    +0.000 A 
BRANCH   5   8
ATOM      8  C   UNL     1      47.141   0.921   7.124  0.00  0.00    +0.000 C 
ATOM      9  N   UNL     1      46.835  -0.353   7.508  0.00  0.00    +0.000 N 
ATOM     10  O   UNL     1      47.957   1.149   6.239  0.00  0.00    +0.000 OA
ATOM     11  H   UNL     1      46.158  -0.503   8.248  0.00  0.00    +0.000 HD
ATOM     12  H   UNL     1      47.288  -1.139   7.064  0.00  0.00    +0.000 HD
ENDBRANCH   5   8
ENDBRANCH   1   2
BRANCH   1  13
ATOM     13  C   UNL     1      45.184   5.866  10.697  0.00  0.00    +0.000 C 
BRANCH  13  15
ATOM     14  C   UNL     1      42.911   6.522  11.505  0.00  0.00    +0.000 C 
ATOM     15  C   UNL     1      44.399   6.445  11.910  0.00  0.00    +0.000 C 
ATOM     16  C   UNL     1      44.519   5.435  13.074  0.00  0.00    +0.000 C 
BRANCH  15  17
ATOM     17  C   UNL     1      44.971   7.851  12.341  0.00  0.00    +0.000 C 
ATOM     18  C   UNL     1      44.532   9.014  11.423  0.00  0.00    +0.000 C 
ATOM     19  C   UNL     1      45.185  10.332  11.823  0.00  0.00    +0.000 C 
ATOM     20  O   UNL     1      46.604  10.210  11.843  0.00  0.00    +0.000 OA
ATOM     21  C   UNL     1      47.036   9.259  12.811  0.00  0.00    +0.000 C 
ATOM     22  C   UNL     1      46.511   7.870  12.468  0.00  0.00    +0.000 C 
ENDBRANCH  15  17
ENDBRANCH  13  15
ENDBRANCH   1  13
TORSDOF 5
ENDMDL
MODEL 4
REMARK VINA RESULT:    -6.226      2.969      5.920
REMARK INTER + INTRA:          -8.654
REMARK INTER:                  -7.893
REMARK INTRA:                  -0.761
REMARK UNBOUND:                -0.608
REMARK  Name = 
REMARK  7 active torsions:
REMARK  status: ('A' for Active; 'I' for Inactive)
REMARK    1  A    between atoms: C_1  and  C_2
REMARK    2  A    between atoms: C_2  and  C_3
REMARK    3  A    between atoms: C_2  and  C_4
REMARK    4  A    between atoms: C_2  and  C_15
REMARK    5  A    between atoms: C_4  and  O_5
REMARK    6  A    between atoms: O_5  and  C_6
REMARK    7  A    between atoms: C_9  and  C_10
REMARK                            x       y       z     vdW  Elec       q    Type
REMARK                         _______ _______ _______ _____ _____    ______ ____
ROOT
ATOM      1  O   UNL     1      45.007   5.483  12.909  0.00  0.00    +0.000 OA
ENDROOT
BRANCH   1   2
ATOM      2  C   UNL     1      46.220   6.089  12.731  0.00  0.00    +0.000 A 
ATOM      3  C   UNL     1      46.503   7.105  11.824  0.00  0.00    +0.000 A 
ATOM      4  C   UNL     1      47.790   7.643  11.766  0.00  0.00    +0.000 A 
ATOM      5  C   UNL     1      48.758   7.134  12.622  0.00  0.00    +0.000 A 
ATOM      6  N   UNL     1      48.528   6.137  13.517  0.00  0.00    +0.000 NA
ATOM      7  C   UNL     1      47.264   5.645  13.542  0.00  0.00    +0.000 A 
BRANCH   5   8
ATOM      8  C   UNL     1      50.142   7.708  12.583  0.00  0.00    +0.000 C 
ATOM      9  N   UNL     1      50.900   7.343  11.507  0.00  0.00    +0.000 N 
ATOM     10  O   UNL     1      50.574   8.453  13.453  0.00  0.00    +0.000 OA
ATOM     11  H   UNL     1      50.511   6.720  10.809  0.00  0.00    +0.000 HD
ATOM     12  H   UNL     1      51.846   7.684  11.416  0.00  0.00    +0.000 HD
ENDBRANCH   5   8
ENDBRANCH   1   2
BRANCH   1  13
ATOM     13  C   UNL     1      44.964   4.067  12.705  0.00  0.00    +0.000 C 
BRANCH  13  15
ATOM     14  C   UNL     1      43.295   2.490  11.716  0.00  0.00    +0.000 C 
ATOM     15  C   UNL     1      44.176   3.720  11.408  0.00  0.00    +0.000 C 
ATOM     16  C   UNL     1      43.235   4.907  11.097  0.00  0.00    +0.000 C 
BRANCH  15  17
ATOM     17  C   UNL     1      45.154   3.463  10.198  0.00  0.00    +0.000 C 
ATOM     18  C   UNL     1      45.248   4.645   9.206  0.00  0.00    +0.000 C 
ATOM     19  C   UNL     1      46.128   4.312   8.007  0.00  0.00    +0.000 C 
ATOM     20  O   UNL     1      45.669   3.135   7.350  0.00  0.00    +0.000 OA
ATOM     21  C   UNL     1      45.738   1.997   8.203  0.00  0.00    +0.000 C 
ATOM     22  C   UNL     1      44.824   2.176   9.409  0.00  0.00    +0.000 C 
ENDBRANCH  15  17
ENDBRANCH  13  15
ENDBRANCH   1  13
TORSDOF 5
ENDMDL
MODEL 5
REMARK VINA RESULT:    -6.009      3.696      7.223
REMARK INTER + INTRA:          -8.374
REMARK INTER:                  -7.863
REMARK INTRA:                  -0.510
REMARK UNBOUND:                -0.608
REMARK  Name = 
REMARK  7 active torsions:
REMARK  status: ('A' for Active; 'I' for Inactive)
REMARK    1  A    between atoms: C_1  and  C_2
REMARK    2  A    between atoms: C_2  and  C_3
REMARK    3  A    between atoms: C_2  and  C_4
REMARK    4  A    between atoms: C_2  and  C_15
REMARK    5  A    between atoms: C_4  and  O_5
REMARK    6  A    between atoms: O_5  and  C_6
REMARK    7  A    between atoms: C_9  and  C_10
REMARK                            x       y       z     vdW  Elec       q    Type
REMARK                         _______ _______ _______ _____ _____    ______ ____
ROOT
ATOM      1  O   UNL     1      46.364   5.178  12.604  0.00  0.00    +0.000 OA
ENDROOT
BRANCH   1   2
ATOM      2  C   UNL     1      46.961   5.127  13.833  0.00  0.00    +0.000 A 
ATOM      3  C   UNL     1      47.786   6.102  14.384  0.00  0.00    +0.000 A 
ATOM      4  C   UNL     1      48.314   5.922  15.664  0.00  0.00    +0.000 A 
ATOM      5  C   UNL     1      47.998   4.757  16.350  0.00  0.00    +0.000 A 
ATOM      6  N   UNL     1      47.204   3.774  15.848  0.00  0.00    +0.000 NA
ATOM      7  C   UNL     1      46.710   3.992  14.603  0.00  0.00    +0.000 A 
BRANCH   5   8
ATOM      8  C   UNL     1      48.545   4.551  17.730  0.00  0.00    +0.000 C 
ATOM      9  N   UNL     1      47.827   3.706  18.527  0.00  0.00    +0.000 N 
ATOM     10  O   UNL     1      49.564   5.101  18.127  0.00  0.00    +0.000 OA
ATOM     11  H   UNL     1      46.985   3.273  18.166  0.00  0.00    +0.000 HD
ATOM     12  H   UNL     1      48.130   3.524  19.473  0.00  0.00    +0.000 HD
ENDBRANCH   5   8
ENDBRANCH   1   2
BRANCH   1  13
ATOM     13  C   UNL     1      45.021   4.688  12.526  0.00  0.00    +0.000 C 
BRANCH  13  15
ATOM     14  C   UNL     1      42.807   5.542  11.740  0.00  0.00    +0.000 C 
ATOM     15  C   UNL     1      44.275   5.317  11.314  0.00  0.00    +0.000 C 
ATOM     16  C   UNL     1      44.904   6.702  11.041  0.00  0.00    +0.000 C 
BRANCH  15  17
ATOM     17  C   UNL     1      44.388   4.400  10.036  0.00  0.00    +0.000 C 
ATOM     18  C   UNL     1      44.440   2.888  10.352  0.00  0.00    +0.000 C 
ATOM     19  C   UNL     1      44.646   2.051   9.094  0.00  0.00    +0.000 C 
ATOM     20  O   UNL     1      45.816   2.463   8.396  0.00  0.00    +0.000 OA
ATOM     21  C   UNL     1      45.714   3.810   7.947  0.00  0.00    +0.000 C 
ATOM     22  C   UNL     1      45.588   4.761   9.131  0.00  0.00    +0.000 C 
ENDBRANCH  15  17
ENDBRANCH  13  15
ENDBRANCH   1  13
TORSDOF 5
ENDMDL
MODEL 6
REMARK VINA RESULT:    -5.925      3.709      6.400
REMARK INTER + INTRA:          -8.265
REMARK INTER:                  -7.795
REMARK INTRA:                  -0.469
REMARK UNBOUND:                -0.608
REMARK  Name = 
REMARK  7 active torsions:
REMARK  status: ('A' for Active; 'I' for Inactive)
REMARK    1  A    between atoms: C_1  and  C_2
REMARK    2  A    between atoms: C_2  and  C_3
REMARK    3  A    between atoms: C_2  and  C_4
REMARK    4  A    between atoms: C_2  and  C_15
REMARK    5  A    between atoms: C_4  and  O_5
REMARK    6  A    between atoms: O_5  and  C_6
REMARK    7  A    between atoms: C_9  and  C_10
REMARK                            x       y       z     vdW  Elec       q    Type
REMARK                         _______ _______ _______ _____ _____    ______ ____
ROOT
ATOM      1  O   UNL     1      47.753   4.928  14.819  0.00  0.00    +0.000 OA
ENDROOT
BRANCH   1   2
ATOM      2  C   UNL     1      46.775   4.803  13.872  0.00  0.00    +0.000 A 
ATOM      3  C   UNL     1      46.088   5.847  13.260  0.00  0.00    +0.000 A 
ATOM      4  C   UNL     1      45.123   5.567  12.291  0.00  0.00    +0.000 A 
ATOM      5  C   UNL     1      44.874   4.240  11.970  0.00  0.00    +0.000 A 
ATOM      6  N   UNL     1      45.515   3.188  12.548  0.00  0.00    +0.000 NA
ATOM      7  C   UNL     1      46.447   3.505  13.482  0.00  0.00    +0.000 A 
BRANCH   5   8
ATOM      8  C   UNL     1      43.851   3.921  10.923  0.00  0.00    +0.000 C 
ATOM      9  N   UNL     1      43.902   4.691   9.797  0.00  0.00    +0.000 N 
ATOM     10  O   UNL     1      43.019   3.033  11.060  0.00  0.00    +0.000 OA
ATOM     11  H   UNL     1      44.601   5.420   9.721  0.00  0.00    +0.000 HD
ATOM     12  H   UNL     1      43.239   4.539   9.049  0.00  0.00    +0.000 HD
ENDBRANCH   5   8
ENDBRANCH   1   2
BRANCH   1  13
ATOM     13  C   UNL     1      47.556   4.205  16.039  0.00  0.00    +0.000 C 
BRANCH  13  15
ATOM     14  C   UNL     1      48.899   6.212  16.687  0.00  0.00    +0.000 C 
ATOM     15  C   UNL     1      48.347   4.866  17.205  0.00  0.00    +0.000 C 
ATOM     16  C   UNL     1      47.342   5.174  18.340  0.00  0.00    +0.000 C 
BRANCH  15  17
ATOM     17  C   UNL     1      49.492   3.916  17.729  0.00  0.00    +0.000 C 
ATOM     18  C   UNL     1      50.892   4.569  17.739  0.00  0.00    +0.000 C 
ATOM     19  C   UNL     1      51.977   3.584  18.161  0.00  0.00    +0.000 C 
ATOM     20  O   UNL     1      51.963   2.428  17.330  0.00  0.00    +0.000 OA
ATOM     21  C   UNL     1      50.734   1.716  17.440  0.00  0.00    +0.000 C 
ATOM     22  C   UNL     1      49.573   2.577  16.961  0.00  0.00    +0.000 C 
ENDBRANCH  15  17
ENDBRANCH  13  15
ENDBRANCH   1  13
TORSDOF 5
ENDMDL
MODEL 7
REMARK VINA RESULT:    -5.765      2.780      6.685
REMARK INTER + INTRA:          -8.059
REMARK INTER:                  -7.738
REMARK INTRA:                  -0.320
REMARK UNBOUND:                -0.608
REMARK  Name = 
REMARK  7 active torsions:
REMARK  status: ('A' for Active; 'I' for Inactive)
REMARK    1  A    between atoms: C_1  and  C_2
REMARK    2  A    between atoms: C_2  and  C_3
REMARK    3  A    between atoms: C_2  and  C_4
REMARK    4  A    between atoms: C_2  and  C_15
REMARK    5  A    between atoms: C_4  and  O_5
REMARK    6  A    between atoms: O_5  and  C_6
REMARK    7  A    between atoms: C_9  and  C_10
REMARK                            x       y       z     vdW  Elec       q    Type
REMARK                         _______ _______ _______ _____ _____    ______ ____
ROOT
ATOM      1  O   UNL     1      44.676   3.812  11.077  0.00  0.00    +0.000 OA
ENDROOT
BRANCH   1   2
ATOM      2  C   UNL     1      45.472   4.244  12.101  0.00  0.00    +0.000 A 
ATOM      3  C   UNL     1      46.100   3.440  13.046  0.00  0.00    +0.000 A 
ATOM      4  C   UNL     1      46.902   4.023  14.029  0.00  0.00    +0.000 A 
ATOM      5  C   UNL     1      47.042   5.404  14.034  0.00  0.00    +0.000 A 
ATOM      6  N   UNL     1      46.441   6.229  13.136  0.00  0.00    +0.000 NA
ATOM      7  C   UNL     1      45.673   5.620  12.197  0.00  0.00    +0.000 A 
BRANCH   5   8
ATOM      8  C   UNL     1      47.909   6.046  15.073  0.00  0.00    +0.000 C 
ATOM      9  N   UNL     1      47.901   7.412  15.084  0.00  0.00    +0.000 N 
ATOM     10  O   UNL     1      48.585   5.399  15.863  0.00  0.00    +0.000 OA
ATOM     11  H   UNL     1      47.333   7.914  14.412  0.00  0.00    +0.000 HD
ATOM     12  H   UNL     1      48.466   7.916  15.752  0.00  0.00    +0.000 HD
ENDBRANCH   5   8
ENDBRANCH   1   2
BRANCH   1  13
ATOM     13  C   UNL     1      45.302   2.992  10.085  0.00  0.00    +0.000 C 
BRANCH  13  15
ATOM     14  C   UNL     1      43.833   4.119   8.404  0.00  0.00    +0.000 C 
ATOM     15  C   UNL     1      45.290   3.699   8.698  0.00  0.00    +0.000 C 
ATOM     16  C   UNL     1      46.136   4.987   8.820  0.00  0.00    +0.000 C 
BRANCH  15  17
ATOM     17  C   UNL     1      45.877   2.761   7.574  0.00  0.00    +0.000 C 
ATOM     18  C   UNL     1      46.444   1.425   8.106  0.00  0.00    +0.000 C 
ATOM     19  C   UNL     1      47.084   0.598   6.997  0.00  0.00    +0.000 C 
ATOM     20  O   UNL     1      48.092   1.344   6.324  0.00  0.00    +0.000 OA
ATOM     21  C   UNL     1      47.554   2.495   5.681  0.00  0.00    +0.000 C 
ATOM     22  C   UNL     1      46.954   3.449   6.706  0.00  0.00    +0.000 C 
ENDBRANCH  15  17
ENDBRANCH  13  15
ENDBRANCH   1  13
TORSDOF 5
ENDMDL
MODEL 8
REMARK VINA RESULT:    -5.686      4.492      8.126
REMARK INTER + INTRA:          -7.957
REMARK INTER:                  -7.483
REMARK INTRA:                  -0.474
REMARK UNBOUND:                -0.608
REMARK  Name = 
REMARK  7 active torsions:
REMARK  status: ('A' for Active; 'I' for Inactive)
REMARK    1  A    between atoms: C_1  and  C_2
REMARK    2  A    between atoms: C_2  and  C_3
REMARK    3  A    between atoms: C_2  and  C_4
REMARK    4  A    between atoms: C_2  and  C_15
REMARK    5  A    between atoms: C_4  and  O_5
REMARK    6  A    between atoms: O_5  and  C_6
REMARK    7  A    between atoms: C_9  and  C_10
REMARK                            x       y       z     vdW  Elec       q    Type
REMARK                         _______ _______ _______ _____ _____    ______ ____
ROOT
ATOM      1  O   UNL     1      47.613   5.495  13.936  0.00  0.00    +0.000 OA
ENDROOT
BRANCH   1   2
ATOM      2  C   UNL     1      47.763   5.200  15.263  0.00  0.00    +0.000 A 
ATOM      3  C   UNL     1      47.197   4.119  15.931  0.00  0.00    +0.000 A 
ATOM      4  C   UNL     1      47.453   3.933  17.291  0.00  0.00    +0.000 A 
ATOM      5  C   UNL     1      48.269   4.849  17.940  0.00  0.00    +0.000 A 
ATOM      6  N   UNL     1      48.837   5.923  17.330  0.00  0.00    +0.000 NA
ATOM      7  C   UNL     1      48.564   6.064  16.008  0.00  0.00    +0.000 A 
BRANCH   5   8
ATOM      8  C   UNL     1      48.566   4.658  19.396  0.00  0.00    +0.000 C 
ATOM      9  N   UNL     1      48.445   3.379  19.859  0.00  0.00    +0.000 N 
ATOM     10  O   UNL     1      48.894   5.581  20.131  0.00  0.00    +0.000 OA
ATOM     11  H   UNL     1      48.167   2.641  19.223  0.00  0.00    +0.000 HD
ATOM     12  H   UNL     1      48.623   3.174  20.832  0.00  0.00    +0.000 HD
ENDBRANCH   5   8
ENDBRANCH   1   2
BRANCH   1  13
ATOM     13  C   UNL     1      46.481   4.917  13.278  0.00  0.00    +0.000 C 
BRANCH  13  15
ATOM     14  C   UNL     1      45.084   6.949  12.864  0.00  0.00    +0.000 C 
ATOM     15  C   UNL     1      45.943   5.869  12.170  0.00  0.00    +0.000 C 
ATOM     16  C   UNL     1      47.157   6.575  11.525  0.00  0.00    +0.000 C 
BRANCH  15  17
ATOM     17  C   UNL     1      45.128   5.072  11.080  0.00  0.00    +0.000 C 
ATOM     18  C   UNL     1      44.924   3.578  11.418  0.00  0.00    +0.000 C 
ATOM     19  C   UNL     1      44.217   2.832  10.292  0.00  0.00    +0.000 C 
ATOM     20  O   UNL     1      44.919   2.982   9.063  0.00  0.00    +0.000 OA
ATOM     21  C   UNL     1      44.969   4.343   8.648  0.00  0.00    +0.000 C 
ATOM     22  C   UNL     1      45.734   5.184   9.662  0.00  0.00    +0.000 C 
ENDBRANCH  15  17
ENDBRANCH  13  15
ENDBRANCH   1  13
TORSDOF 5
ENDMDL
MODEL 9
REMARK VINA RESULT:    -5.559      3.965      6.436
REMARK INTER + INTRA:          -7.792
REMARK INTER:                  -7.226
REMARK INTRA:                  -0.566
REMARK UNBOUND:                -0.608
REMARK  Name = 
REMARK  7 active torsions:
REMARK  status: ('A' for Active; 'I' for Inactive)
REMARK    1  A    between atoms: C_1  and  C_2
REMARK    2  A    between atoms: C_2  and  C_3
REMARK    3  A    between atoms: C_2  and  C_4
REMARK    4  A    between atoms: C_2  and  C_15
REMARK    5  A    between atoms: C_4  and  O_5
REMARK    6  A    between atoms: O_5  and  C_6
REMARK    7  A    between atoms: C_9  and  C_10
REMARK                            x       y       z     vdW  Elec       q    Type
REMARK                         _______ _______ _______ _____ _____    ______ ____
ROOT
ATOM      1  O   UNL     1      48.340   5.819  13.952  0.00  0.00    +0.000 OA
ENDROOT
BRANCH   1   2
ATOM      2  C   UNL     1      47.177   5.597  13.269  0.00  0.00    +0.000 A 
ATOM      3  C   UNL     1      46.792   6.216  12.083  0.00  0.00    +0.000 A 
ATOM      4  C   UNL     1      45.577   5.875  11.487  0.00  0.00    +0.000 A 
ATOM      5  C   UNL     1      44.780   4.923  12.107  0.00  0.00    +0.000 A 
ATOM      6  N   UNL     1      45.113   4.298  13.269  0.00  0.00    +0.000 NA
ATOM      7  C   UNL     1      46.303   4.657  13.813  0.00  0.00    +0.000 A 
BRANCH   5   8
ATOM      8  C   UNL     1      43.479   4.534  11.474  0.00  0.00    +0.000 C 
ATOM      9  N   UNL     1      43.077   3.249  11.697  0.00  0.00    +0.000 N 
ATOM     10  O   UNL     1      42.813   5.310  10.800  0.00  0.00    +0.000 OA
ATOM     11  H   UNL     1      43.656   2.633  12.256  0.00  0.00    +0.000 HD
ATOM     12  H   UNL     1      42.213   2.912  11.296  0.00  0.00    +0.000 HD
ENDBRANCH   5   8
ENDBRANCH   1   2
BRANCH   1  13
ATOM     13  C   UNL     1      48.347   6.925  14.860  0.00  0.00    +0.000 C 
BRANCH  13  15
ATOM     14  C   UNL     1      50.600   6.905  15.943  0.00  0.00    +0.000 C 
ATOM     15  C   UNL     1      49.111   6.561  16.166  0.00  0.00    +0.000 C 
ATOM     16  C   UNL     1      48.579   7.477  17.293  0.00  0.00    +0.000 C 
BRANCH  15  17
ATOM     17  C   UNL     1      48.902   5.045  16.546  0.00  0.00    +0.000 C 
ATOM     18  C   UNL     1      47.542   4.749  17.218  0.00  0.00    +0.000 C 
ATOM     19  C   UNL     1      47.427   3.292  17.652  0.00  0.00    +0.000 C 
ATOM     20  O   UNL     1      48.505   2.931  18.510  0.00  0.00    +0.000 OA
ATOM     21  C   UNL     1      49.761   3.036  17.848  0.00  0.00    +0.000 C 
ATOM     22  C   UNL     1      50.031   4.477  17.437  0.00  0.00    +0.000 C 
ENDBRANCH  15  17
ENDBRANCH  13  15
ENDBRANCH   1  13
TORSDOF 5
ENDMDL
