MODEL 1
REMARK VINA RESULT:    -8.260      0.000      0.000
REMARK INTER + INTRA:         -10.789
REMARK INTER:                 -10.192
REMARK INTRA:                  -0.598
REMARK UNBOUND:                -0.598
REMARK  Name = 
REMARK  5 active torsions:
REMARK  status: ('A' for Active; 'I' for Inactive)
REMARK    1  A    between atoms: C_1  and  C_2
REMARK    2  A    between atoms: C_2  and  N_3
REMARK    3  A    between atoms: C_2  and  C_13
REMARK    4  A    between atoms: N_3  and  C_4
REMARK    5  A    between atoms: C_7  and  C_8
REMARK                            x       y       z     vdW  Elec       q    Type
REMARK                         _______ _______ _______ _____ _____    ______ ____
ROOT
ATOM      1  N   UNL     1      43.774   4.878   9.859  0.00  0.00    +0.000 N 
ATOM      2  H   UNL     1      43.978   5.839   9.586  0.00  0.00    +0.000 HD
ENDROOT
BRANCH   1   3
ATOM      3  C   UNL     1      44.564   3.978   9.142  0.00  0.00    +0.000 A 
ATOM      4  C   UNL     1      45.556   4.352   8.235  0.00  0.00    +0.000 A 
ATOM      5  C   UNL     1      46.386   3.394   7.648  0.00  0.00    +0.000 A 
ATOM      6  C   UNL     1      46.209   2.062   7.995  0.00  0.00    +0.000 A 
ATOM      7  N   UNL     1      45.267   1.636   8.874  0.00  0.00    +0.000 NA
ATOM      8  C   UNL     1      44.496   2.604   9.427  0.00  0.00    +0.000 A 
BRANCH   6   9
ATOM      9  C   UNL     1      47.102   1.018   7.396  0.00  0.00    +0.000 C 
ATOM     10  N   UNL     1      46.756  -0.276   7.667  0.00  0.00    +0.000 N 
ATOM     11  O   UNL     1      48.082   1.299   6.717  0.00  0.00    +0.000 OA
ATOM     12  H   UNL     1      45.948  -0.472   8.246  0.00  0.00    +0.000 HD
ATOM     13  H   UNL     1      47.332  -1.027   7.313  0.00  0.00    +0.000 HD
ENDBRANCH   6   9
ENDBRANCH   1   3
BRANCH   1  15
ATOM     14  C   UNL     1      42.323   5.533  11.763  0.00  0.00    +0.000 C 
ATOM     15  C   UNL     1      43.564   4.758  11.309  0.00  0.00    +0.000 C 
BRANCH  15  16
ATOM     16  C   UNL     1      44.802   5.308  11.999  0.00  0.00    +0.000 A 
ATOM     17  C   UNL     1      45.507   6.417  11.503  0.00  0.00    +0.000 A 
ATOM     18  C   UNL     1      46.659   6.853  12.147  0.00  0.00    +0.000 A 
ATOM     19  C   UNL     1      47.074   6.159  13.270  0.00  0.00    +0.000 A 
ATOM     20 CL   UNL     1      48.501   6.609  14.106  0.00  0.00    +0.000 Cl
ATOM     21  N   UNL     1      46.432   5.091  13.785  0.00  0.00    +0.000 NA
ATOM     22  C   UNL     1      45.312   4.692  13.139  0.00  0.00    +0.000 A 
ENDBRANCH  15  16
ENDBRANCH   1  15
TORSDOF 4
ENDMDL
MODEL 2
REMARK VINA RESULT:    -7.292      1.730      1.992
REMARK INTER + INTRA:          -9.595
REMARK INTER:                  -9.065
REMARK INTRA:                  -0.530
REMARK UNBOUND:                -0.598
REMARK  Name = 
REMARK  5 active torsions:
REMARK  status: ('A' for Active; 'I' for Inactive)
REMARK    1  A    between atoms: C_1  and  C_2
REMARK    2  A    between atoms: C_2  and  N_3
REMARK    3  A    between atoms: C_2  and  C_13
REMARK    4  A    between atoms: N_3  and  C_4
REMARK    5  A    between atoms: C_7  and  C_8
REMARK                            x       y       z     vdW  Elec       q    Type
REMARK                         _______ _______ _______ _____ _____    ______ ____
ROOT
ATOM      1  N   UNL     1      43.923   4.238  10.441  0.00  0.00    +0.000 N 
ATOM      2  H   UNL     1      43.458   5.053  10.042  0.00  0.00    +0.000 HD
ENDROOT
BRANCH   1   3
ATOM      3  C   UNL     1      44.846   3.701   9.541  0.00  0.00    +0.000 A 
ATOM      4  C   UNL     1      45.079   2.335   9.377  0.00  0.00    +0.000 A 
ATOM      5  C   UNL     1      45.930   1.872   8.369  0.00  0.00    +0.000 A 
ATOM      6  C   UNL     1      46.529   2.799   7.530  0.00  0.00    +0.000 A 
ATOM      7  N   UNL     1      46.337   4.138   7.634  0.00  0.00    +0.000 NA
ATOM      8  C   UNL     1      45.493   4.538   8.617  0.00  0.00    +0.000 A 
BRANCH   6   9
ATOM      9  C   UNL     1      47.427   2.325   6.428  0.00  0.00    +0.000 C 
ATOM     10  N   UNL     1      47.348   3.032   5.260  0.00  0.00    +0.000 N 
ATOM     11  O   UNL     1      48.177   1.365   6.555  0.00  0.00    +0.000 OA
ATOM     12  H   UNL     1      46.705   3.811   5.184  0.00  0.00    +0.000 HD
ATOM     13  H   UNL     1      47.910   2.747   4.471  0.00  0.00    +0.000 HD
ENDBRANCH   6   9
ENDBRANCH   1   3
BRANCH   1  15
ATOM     14  C   UNL     1      42.960   4.570  12.703  0.00  0.00    +0.000 C 
ATOM     15  C   UNL     1      44.234   4.431  11.864  0.00  0.00    +0.000 C 
BRANCH  15  16
ATOM     16  C   UNL     1      45.076   5.691  11.983  0.00  0.00    +0.000 A 
ATOM     17  C   UNL     1      44.564   6.965  11.690  0.00  0.00    +0.000 A 
ATOM     18  C   UNL     1      45.389   8.082  11.772  0.00  0.00    +0.000 A 
ATOM     19  C   UNL     1      46.707   7.885  12.142  0.00  0.00    +0.000 A 
ATOM     20 CL   UNL     1      47.800   9.202  12.238  0.00  0.00    +0.000 Cl
ATOM     21  N   UNL     1      47.244   6.683  12.435  0.00  0.00    +0.000 NA
ATOM     22  C   UNL     1      46.417   5.616  12.349  0.00  0.00    +0.000 A 
ENDBRANCH  15  16
ENDBRANCH   1  15
TORSDOF 4
ENDMDL
MODEL 3
REMARK VINA RESULT:    -6.810      3.222      6.036
REMARK INTER + INTRA:          -9.000
REMARK INTER:                  -9.287
REMARK INTRA:                   0.287
REMARK UNBOUND:                -0.598
REMARK  Name = 
REMARK  5 active torsions:
REMARK  status: ('A' for Active; 'I' for Inactive)
REMARK    1  A    between atoms: C_1  and  C_2
REMARK    2  A    between atoms: C_2  and  N_3
REMARK    3  A    between atoms: C_2  and  C_13
REMARK    4  A    between atoms: N_3  and  C_4
REMARK    5  A    between atoms: C_7  and  C_8
REMARK                            x       y       z     vdW  Elec       q    Type
REMARK                         _______ _______ _______ _____ _____    ______ ____
ROOT
ATOM      1  N   UNL     1      44.608   5.795  10.834  0.00  0.00    +0.000 N 
ATOM      2  H   UNL     1      44.061   6.634  11.023  0.00  0.00    +0.000 HD
ENDROOT
BRANCH   1   3
ATOM      3  C   UNL     1      45.468   5.511  11.897  0.00  0.00    +0.000 A 
ATOM      4  C   UNL     1      46.713   6.113  12.081  0.00  0.00    +0.000 A 
ATOM      5  C   UNL     1      47.462   5.866  13.235  0.00  0.00    +0.000 A 
ATOM      6  C   UNL     1      46.936   5.017  14.197  0.00  0.00    +0.000 A 
ATOM      7  N   UNL     1      45.730   4.407  14.080  0.00  0.00    +0.000 NA
ATOM      8  C   UNL     1      45.035   4.689  12.950  0.00  0.00    +0.000 A 
BRANCH   6   9
ATOM      9  C   UNL     1      47.710   4.755  15.453  0.00  0.00    +0.000 C 
ATOM     10  N   UNL     1      48.107   5.867  16.142  0.00  0.00    +0.000 N 
ATOM     11  O   UNL     1      47.980   3.623  15.838  0.00  0.00    +0.000 OA
ATOM     12  H   UNL     1      47.880   6.788  15.787  0.00  0.00    +0.000 HD
ATOM     13  H   UNL     1      48.654   5.758  16.984  0.00  0.00    +0.000 HD
ENDBRANCH   6   9
ENDBRANCH   1   3
BRANCH   1  15
ATOM     14  C   UNL     1      43.065   3.885  11.199  0.00  0.00    +0.000 C 
ATOM     15  C   UNL     1      43.802   4.756  10.176  0.00  0.00    +0.000 C 
BRANCH  15  16
ATOM     16  C   UNL     1      44.746   3.901   9.347  0.00  0.00    +0.000 A 
ATOM     17  C   UNL     1      45.585   4.448   8.363  0.00  0.00    +0.000 A 
ATOM     18  C   UNL     1      46.398   3.616   7.601  0.00  0.00    +0.000 A 
ATOM     19  C   UNL     1      46.341   2.256   7.847  0.00  0.00    +0.000 A 
ATOM     20 CL   UNL     1      47.286   1.156   6.933  0.00  0.00    +0.000 Cl
ATOM     21  N   UNL     1      45.554   1.683   8.780  0.00  0.00    +0.000 NA
ATOM     22  C   UNL     1      44.777   2.518   9.508  0.00  0.00    +0.000 A 
ENDBRANCH  15  16
ENDBRANCH   1  15
TORSDOF 4
ENDMDL
MODEL 4
REMARK VINA RESULT:    -6.771      3.661      6.641
REMARK INTER + INTRA:          -8.952
REMARK INTER:                  -8.427
REMARK INTRA:                  -0.525
REMARK UNBOUND:                -0.598
REMARK  Name = 
REMARK  5 active torsions:
REMARK  status: ('A' for Active; 'I' for Inactive)
REMARK    1  A    between atoms: C_1  and  C_2
REMARK    2  A    between atoms: C_2  and  N_3
REMARK    3  A    between atoms: C_2  and  C_13
REMARK    4  A    between atoms: N_3  and  C_4
REMARK    5  A    between atoms: C_7  and  C_8
REMARK                            x       y       z     vdW  Elec       q    Type
REMARK                         _______ _______ _______ _____ _____    ______ ____
ROOT
ATOM      1  N   UNL     1      45.359   3.928  12.286  0.00  0.00    +0.000 N 
ATOM      2  H   UNL     1      45.720   3.007  12.037  0.00  0.00    +0.000 HD
ENDROOT
BRANCH   1   3
ATOM      3  C   UNL     1      46.335   4.688  12.932  0.00  0.00    +0.000 A 
ATOM      4  C   UNL     1      46.767   5.943  12.502  0.00  0.00    +0.000 A 
ATOM      5  C   UNL     1      47.659   6.694  13.271  0.00  0.00    +0.000 A 
ATOM      6  C   UNL     1      48.099   6.169  14.477  0.00  0.00    +0.000 A 
ATOM      7  N   UNL     1      47.712   4.959  14.953  0.00  0.00    +0.000 NA
ATOM      8  C   UNL     1      46.835   4.275  14.179  0.00  0.00    +0.000 A 
BRANCH   6   9
ATOM      9  C   UNL     1      49.039   6.966  15.330  0.00  0.00    +0.000 C 
ATOM     10  N   UNL     1      48.447   7.761  16.272  0.00  0.00    +0.000 N 
ATOM     11  O   UNL     1      50.255   6.920  15.192  0.00  0.00    +0.000 OA
ATOM     12  H   UNL     1      47.437   7.788  16.347  0.00  0.00    +0.000 HD
ATOM     13  H   UNL     1      49.024   8.343  16.862  0.00  0.00    +0.000 HD
ENDBRANCH   6   9
ENDBRANCH   1   3
BRANCH   1  15
ATOM     14  C   UNL     1      43.046   4.046  11.395  0.00  0.00    +0.000 C 
ATOM     15  C   UNL     1      44.505   4.482  11.226  0.00  0.00    +0.000 C 
BRANCH  15  16
ATOM     16  C   UNL     1      45.046   3.984   9.895  0.00  0.00    +0.000 A 
ATOM     17  C   UNL     1      45.058   2.622   9.552  0.00  0.00    +0.000 A 
ATOM     18  C   UNL     1      45.604   2.215   8.340  0.00  0.00    +0.000 A 
ATOM     19  C   UNL     1      46.128   3.188   7.508  0.00  0.00    +0.000 A 
ATOM     20 CL   UNL     1      46.848   2.771   6.010  0.00  0.00    +0.000 Cl
ATOM     21  N   UNL     1      46.138   4.506   7.791  0.00  0.00    +0.000 NA
ATOM     22  C   UNL     1      45.597   4.873   8.976  0.00  0.00    +0.000 A 
ENDBRANCH  15  16
ENDBRANCH   1  15
TORSDOF 4
ENDMDL
MODEL 5
REMARK VINA RESULT:    -6.762      3.162      6.049
REMARK INTER + INTRA:          -8.940
REMARK INTER:                  -9.107
REMARK INTRA:                   0.166
REMARK UNBOUND:                -0.598
REMARK  Name = 
REMARK  5 active torsions:
REMARK  status: ('A' for Active; 'I' for Inactive)
REMARK    1  A    between atoms: C_1  and  C_2
REMARK    2  A    between atoms: C_2  and  N_3
REMARK    3  A    between atoms: C_2  and  C_13
REMARK    4  A    between atoms: N_3  and  C_4
REMARK    5  A    between atoms: C_7  and  C_8
REMARK                            x       y       z     vdW  Elec       q    Type
REMARK                         _______ _______ _______ _____ _____    ______ ____
ROOT
ATOM      1  N   UNL     1      44.047   5.462  10.539  0.00  0.00    +0.000 N 
ATOM      2  H   UNL     1      43.253   6.095  10.629  0.00  0.00    +0.000 HD
ENDROOT
BRANCH   1   3
ATOM      3  C   UNL     1      45.004   5.720  11.522  0.00  0.00    +0.000 A 
ATOM      4  C   UNL     1      44.983   5.168  12.803  0.00  0.00    +0.000 A 
ATOM      5  C   UNL     1      46.042   5.378  13.690  0.00  0.00    +0.000 A 
ATOM      6  C   UNL     1      47.121   6.140  13.264  0.00  0.00    +0.000 A 
ATOM      7  N   UNL     1      47.204   6.697  12.030  0.00  0.00    +0.000 NA
ATOM      8  C   UNL     1      46.159   6.453  11.202  0.00  0.00    +0.000 A 
BRANCH   6   9
ATOM      9  C   UNL     1      48.279   6.360  14.189  0.00  0.00    +0.000 C 
ATOM     10  N   UNL     1      48.021   6.152  15.515  0.00  0.00    +0.000 N 
ATOM     11  O   UNL     1      49.383   6.713  13.791  0.00  0.00    +0.000 OA
ATOM     12  H   UNL     1      47.092   5.876  15.811  0.00  0.00    +0.000 HD
ATOM     13  H   UNL     1      48.753   6.307  16.192  0.00  0.00    +0.000 HD
ENDBRANCH   6   9
ENDBRANCH   1   3
BRANCH   1  15
ATOM     14  C   UNL     1      43.444   3.233  11.447  0.00  0.00    +0.000 C 
ATOM     15  C   UNL     1      43.620   4.098  10.195  0.00  0.00    +0.000 C 
BRANCH  15  16
ATOM     16  C   UNL     1      44.686   3.498   9.293  0.00  0.00    +0.000 A 
ATOM     17  C   UNL     1      45.346   4.251   8.308  0.00  0.00    +0.000 A 
ATOM     18  C   UNL     1      46.282   3.642   7.479  0.00  0.00    +0.000 A 
ATOM     19  C   UNL     1      46.526   2.293   7.661  0.00  0.00    +0.000 A 
ATOM     20 CL   UNL     1      47.641   1.458   6.663  0.00  0.00    +0.000 Cl
ATOM     21  N   UNL     1      45.921   1.529   8.592  0.00  0.00    +0.000 NA
ATOM     22  C   UNL     1      45.017   2.149   9.386  0.00  0.00    +0.000 A 
ENDBRANCH  15  16
ENDBRANCH   1  15
TORSDOF 4
ENDMDL
MODEL 6
REMARK VINA RESULT:    -6.734      3.893      6.686
REMARK INTER + INTRA:          -8.906
REMARK INTER:                  -8.402
REMARK INTRA:                  -0.504
REMARK UNBOUND:                -0.598
REMARK  Name = 
REMARK  5 active torsions:
REMARK  status: ('A' for Active; 'I' for Inactive)
REMARK    1  A    between atoms: C_1  and  C_2
REMARK    2  A    between atoms: C_2  and  N_3
REMARK    3  A    between atoms: C_2  and  C_13
REMARK    4  A    between atoms: N_3  and  C_4
REMARK    5  A    between atoms: C_7  and  C_8
REMARK                            x       y       z     vdW  Elec       q    Type
REMARK                         _______ _______ _______ _____ _____    ______ ____
ROOT
ATOM      1  N   UNL     1      45.216   4.391  11.781  0.00  0.00    +0.000 N 
ATOM      2  H   UNL     1      46.078   3.850  11.717  0.00  0.00    +0.000 HD
ENDROOT
BRANCH   1   3
ATOM      3  C   UNL     1      45.490   5.745  11.983  0.00  0.00    +0.000 A 
ATOM      4  C   UNL     1      46.722   6.242  12.410  0.00  0.00    +0.000 A 
ATOM      5  C   UNL     1      46.955   7.618  12.471  0.00  0.00    +0.000 A 
ATOM      6  C   UNL     1      45.938   8.480  12.088  0.00  0.00    +0.000 A 
ATOM      7  N   UNL     1      44.722   8.059  11.658  0.00  0.00    +0.000 NA
ATOM      8  C   UNL     1      44.549   6.716  11.602  0.00  0.00    +0.000 A 
BRANCH   6   9
ATOM      9  C   UNL     1      46.172   9.959  12.123  0.00  0.00    +0.000 C 
ATOM     10  N   UNL     1      45.044  10.731  12.176  0.00  0.00    +0.000 N 
ATOM     11  O   UNL     1      47.294  10.451  12.097  0.00  0.00    +0.000 OA
ATOM     12  H   UNL     1      44.132  10.292  12.180  0.00  0.00    +0.000 HD
ATOM     13  H   UNL     1      45.133  11.738  12.177  0.00  0.00    +0.000 HD
ENDBRANCH   6   9
ENDBRANCH   1   3
BRANCH   1  15
ATOM     14  C   UNL     1      43.400   2.751  11.365  0.00  0.00    +0.000 C 
ATOM     15  C   UNL     1      44.211   3.928  10.813  0.00  0.00    +0.000 C 
BRANCH  15  16
ATOM     16  C   UNL     1      44.948   3.507   9.552  0.00  0.00    +0.000 A 
ATOM     17  C   UNL     1      45.249   2.164   9.272  0.00  0.00    +0.000 A 
ATOM     18  C   UNL     1      45.964   1.836   8.126  0.00  0.00    +0.000 A 
ATOM     19  C   UNL     1      46.363   2.869   7.296  0.00  0.00    +0.000 A 
ATOM     20 CL   UNL     1      47.275   2.557   5.878  0.00  0.00    +0.000 Cl
ATOM     21  N   UNL     1      46.097   4.172   7.520  0.00  0.00    +0.000 NA
ATOM     22  C   UNL     1      45.397   4.459   8.641  0.00  0.00    +0.000 A 
ENDBRANCH  15  16
ENDBRANCH   1  15
TORSDOF 4
ENDMDL
MODEL 7
REMARK VINA RESULT:    -6.062      4.413      6.213
REMARK INTER + INTRA:          -8.077
REMARK INTER:                  -7.605
REMARK INTRA:                  -0.472
REMARK UNBOUND:                -0.598
REMARK  Name = 
REMARK  5 active torsions:
REMARK  status: ('A' for Active; 'I' for Inactive)
REMARK    1  A    between atoms: C_1  and  C_2
REMARK    2  A    between atoms: C_2  and  N_3
REMARK    3  A    between atoms: C_2  and  C_13
REMARK    4  A    between atoms: N_3  and  C_4
REMARK    5  A    between atoms: C_7  and  C_8
REMARK                            x       y       z     vdW  Elec       q    Type
REMARK                         _______ _______ _______ _____ _____    ______ ____
ROOT
ATOM      1  N   UNL     1      47.583   5.044  15.533  0.00  0.00    +0.000 N 
ATOM      2  H   UNL     1      48.563   5.149  15.271  0.00  0.00    +0.000 HD
ENDROOT
BRANCH   1   3
ATOM      3  C   UNL     1      46.787   4.820  14.408  0.00  0.00    +0.000 A 
ATOM      4  C   UNL     1      46.306   5.829  13.573  0.00  0.00    +0.000 A 
ATOM      5  C   UNL     1      45.618   5.516  12.398  0.00  0.00    +0.000 A 
ATOM      6  C   UNL     1      45.433   4.180  12.074  0.00  0.00    +0.000 A 
ATOM      7  N   UNL     1      45.881   3.154  12.841  0.00  0.00    +0.000 NA
ATOM      8  C   UNL     1      46.555   3.508  13.963  0.00  0.00    +0.000 A 
BRANCH   6   9
ATOM      9  C   UNL     1      44.718   3.820  10.808  0.00  0.00    +0.000 C 
ATOM     10  N   UNL     1      44.845   2.518  10.411  0.00  0.00    +0.000 N 
ATOM     11  O   UNL     1      44.069   4.634  10.162  0.00  0.00    +0.000 OA
ATOM     12  H   UNL     1      45.403   1.875  10.961  0.00  0.00    +0.000 HD
ATOM     13  H   UNL     1      44.408   2.217   9.552  0.00  0.00    +0.000 HD
ENDBRANCH   6   9
ENDBRANCH   1   3
BRANCH   1  15
ATOM     14  C   UNL     1      47.119   5.168  17.968  0.00  0.00    +0.000 C 
ATOM     15  C   UNL     1      47.432   4.265  16.771  0.00  0.00    +0.000 C 
BRANCH  15  16
ATOM     16  C   UNL     1      48.737   3.522  17.006  0.00  0.00    +0.000 A 
ATOM     17  C   UNL     1      49.802   4.086  17.726  0.00  0.00    +0.000 A 
ATOM     18  C   UNL     1      50.991   3.381  17.875  0.00  0.00    +0.000 A 
ATOM     19  C   UNL     1      51.078   2.129  17.292  0.00  0.00    +0.000 A 
ATOM     20 CL   UNL     1      52.517   1.205  17.401  0.00  0.00    +0.000 Cl
ATOM     21  N   UNL     1      50.083   1.544  16.594  0.00  0.00    +0.000 NA
ATOM     22  C   UNL     1      48.938   2.253  16.469  0.00  0.00    +0.000 A 
ENDBRANCH  15  16
ENDBRANCH   1  15
TORSDOF 4
ENDMDL
MODEL 8
REMARK VINA RESULT:    -6.012      3.739      6.366
REMARK INTER + INTRA:          -8.015
REMARK INTER:                  -7.993
REMARK INTRA:                  -0.022
REMARK UNBOUND:                -0.598
REMARK  Name = 
REMARK  5 active torsions:
REMARK  status: ('A' for Active; 'I' for Inactive)
REMARK    1  A    between atoms: C_1  and  C_2
REMARK    2  A    between atoms: C_2  and  N_3
REMARK    3  A    between atoms: C_2  and  C_13
REMARK    4  A    between atoms: N_3  and  C_4
REMARK    5  A    between atoms: C_7  and  C_8
REMARK                            x       y       z     vdW  Elec       q    Type
REMARK                         _______ _______ _______ _____ _____    ______ ____
ROOT
ATOM      1  N   UNL     1      46.509   6.269  12.347  0.00  0.00    +0.000 N 
ATOM      2  H   UNL     1      46.781   7.245  12.467  0.00  0.00    +0.000 HD
ENDROOT
BRANCH   1   3
ATOM      3  C   UNL     1      46.990   5.485  13.398  0.00  0.00    +0.000 A 
ATOM      4  C   UNL     1      47.453   5.995  14.611  0.00  0.00    +0.000 A 
ATOM      5  C   UNL     1      47.803   5.140  15.659  0.00  0.00    +0.000 A 
ATOM      6  C   UNL     1      47.671   3.772  15.469  0.00  0.00    +0.000 A 
ATOM      7  N   UNL     1      47.221   3.215  14.317  0.00  0.00    +0.000 NA
ATOM      8  C   UNL     1      46.881   4.086  13.335  0.00  0.00    +0.000 A 
BRANCH   6   9
ATOM      9  C   UNL     1      48.019   2.835  16.586  0.00  0.00    +0.000 C 
ATOM     10  N   UNL     1      47.117   2.783  17.612  0.00  0.00    +0.000 N 
ATOM     11  O   UNL     1      49.045   2.166  16.590  0.00  0.00    +0.000 OA
ATOM     12  H   UNL     1      46.286   3.362  17.584  0.00  0.00    +0.000 HD
ATOM     13  H   UNL     1      47.305   2.189  18.407  0.00  0.00    +0.000 HD
ENDBRANCH   6   9
ENDBRANCH   1   3
BRANCH   1  15
ATOM     14  C   UNL     1      44.217   5.468  12.859  0.00  0.00    +0.000 C 
ATOM     15  C   UNL     1      45.136   6.145  11.838  0.00  0.00    +0.000 C 
BRANCH  15  16
ATOM     16  C   UNL     1      45.194   5.320  10.562  0.00  0.00    +0.000 A 
ATOM     17  C   UNL     1      44.475   4.124  10.409  0.00  0.00    +0.000 A 
ATOM     18  C   UNL     1      44.597   3.384   9.238  0.00  0.00    +0.000 A 
ATOM     19  C   UNL     1      45.443   3.865   8.255  0.00  0.00    +0.000 A 
ATOM     20 CL   UNL     1      45.676   3.001   6.793  0.00  0.00    +0.000 Cl
ATOM     21  N   UNL     1      46.152   5.008   8.353  0.00  0.00    +0.000 NA
ATOM     22  C   UNL     1      46.010   5.708   9.502  0.00  0.00    +0.000 A 
ENDBRANCH  15  16
ENDBRANCH   1  15
TORSDOF 4
ENDMDL
MODEL 9
REMARK VINA RESULT:    -5.621      3.371      5.201
REMARK INTER + INTRA:          -7.533
REMARK INTER:                  -7.027
REMARK INTRA:                  -0.507
REMARK UNBOUND:                -0.598
REMARK  Name = 
REMARK  5 active torsions:
REMARK  status: ('A' for Active; 'I' for Inactive)
REMARK    1  A    between atoms: C_1  and  C_2
REMARK    2  A    between atoms: C_2  and  N_3
REMARK    3  A    between atoms: C_2  and  C_13
REMARK    4  A    between atoms: N_3  and  C_4
REMARK    5  A    between atoms: C_7  and  C_8
REMARK                            x       y       z     vdW  Elec       q    Type
REMARK                         _______ _______ _______ _____ _____    ______ ____
ROOT
ATOM      1  N   UNL     1      46.793   6.881  13.622  0.00  0.00    +0.000 N 
ATOM      2  H   UNL     1      46.463   7.829  13.445  0.00  0.00    +0.000 HD
ENDROOT
BRANCH   1   3
ATOM      3  C   UNL     1      46.006   5.945  12.949  0.00  0.00    +0.000 A 
ATOM      4  C   UNL     1      45.629   6.052  11.610  0.00  0.00    +0.000 A 
ATOM      5  C   UNL     1      44.942   5.014  10.975  0.00  0.00    +0.000 A 
ATOM      6  C   UNL     1      44.652   3.870  11.703  0.00  0.00    +0.000 A 
ATOM      7  N   UNL     1      44.996   3.702  13.005  0.00  0.00    +0.000 NA
ATOM      8  C   UNL     1      45.673   4.730  13.572  0.00  0.00    +0.000 A 
BRANCH   6   9
ATOM      9  C   UNL     1      43.936   2.733  11.038  0.00  0.00    +0.000 C 
ATOM     10  N   UNL     1      44.514   2.267   9.890  0.00  0.00    +0.000 N 
ATOM     11  O   UNL     1      42.899   2.256  11.482  0.00  0.00    +0.000 OA
ATOM     12  H   UNL     1      45.363   2.695   9.542  0.00  0.00    +0.000 HD
ATOM     13  H   UNL     1      44.067   1.518   9.380  0.00  0.00    +0.000 HD
ENDBRANCH   6   9
ENDBRANCH   1   3
BRANCH   1  15
ATOM     14  C   UNL     1      48.818   6.959  15.054  0.00  0.00    +0.000 C 
ATOM     15  C   UNL     1      48.261   6.809  13.635  0.00  0.00    +0.000 C 
BRANCH  15  16
ATOM     16  C   UNL     1      48.782   7.931  12.750  0.00  0.00    +0.000 A 
ATOM     17  C   UNL     1      50.032   7.865  12.114  0.00  0.00    +0.000 A 
ATOM     18  C   UNL     1      50.481   8.938  11.351  0.00  0.00    +0.000 A 
ATOM     19  C   UNL     1      49.661  10.048  11.252  0.00  0.00    +0.000 A 
ATOM     20 CL   UNL     1      50.150  11.425  10.356  0.00  0.00    +0.000 Cl
ATOM     21  N   UNL     1      48.453  10.157  11.841  0.00  0.00    +0.000 NA
ATOM     22  C   UNL     1      48.042   9.098  12.574  0.00  0.00    +0.000 A 
ENDBRANCH  15  16
ENDBRANCH   1  15
TORSDOF 4
ENDMDL
