MODEL 1
REMARK VINA RESULT:    -7.858      0.000      0.000
REMARK INTER + INTRA:         -10.932
REMARK INTER:                 -10.384
REMARK INTRA:                  -0.548
REMARK UNBOUND:                -0.548
REMARK  Name = 
REMARK  7 active torsions:
REMARK  status: ('A' for Active; 'I' for Inactive)
REMARK    1  A    between atoms: C_1  and  O_2
REMARK    2  A    between atoms: O_2  and  C_3
REMARK    3  A    between atoms: N_10  and  C_11
REMARK    4  A    between atoms: C_11  and  C_12
REMARK    5  A    between atoms: C_15  and  C_16
REMARK    6  A    between atoms: C_16  and  C_17
REMARK    7  A    between atoms: C_17  and  N_18
REMARK                            x       y       z     vdW  Elec       q    Type
REMARK                         _______ _______ _______ _____ _____    ______ ____
ROOT
ATOM      1  C   UNL     1      43.768   4.636  10.528  0.00  0.00    +0.000 C 
ENDROOT
BRANCH   1   9
ATOM      2  C   UNL     1      47.197   4.644  14.379  0.00  0.00    +0.000 A 
ATOM      3  C   UNL     1      46.477   3.623  13.766  0.00  0.00    +0.000 A 
ATOM      4  N   UNL     1      45.592   3.770  12.746  0.00  0.00    +0.000 NA
ATOM      5  C   UNL     1      45.457   5.051  12.344  0.00  0.00    +0.000 A 
ATOM      6  C   UNL     1      46.105   6.164  12.874  0.00  0.00    +0.000 A 
ATOM      7  C   UNL     1      45.661   7.295  12.140  0.00  0.00    +0.000 A 
ATOM      8  C   UNL     1      44.765   6.852  11.190  0.00  0.00    +0.000 A 
ATOM      9  N   UNL     1      44.649   5.486  11.319  0.00  0.00    +0.000 N 
ATOM     10  C   UNL     1      46.994   5.952  13.941  0.00  0.00    +0.000 A 
BRANCH   2  12
ATOM     11  C   UNL     1      47.607   3.748  16.528  0.00  0.00    +0.000 C 
ATOM     12  O   UNL     1      48.080   4.500  15.416  0.00  0.00    +0.000 OA
ENDBRANCH   2  12
ENDBRANCH   1   9
BRANCH   1  13
ATOM     13  C   UNL     1      44.543   3.788   9.547  0.00  0.00    +0.000 A 
ATOM     14  C   UNL     1      44.493   2.389   9.622  0.00  0.00    +0.000 A 
ATOM     15  C   UNL     1      45.286   1.601   8.785  0.00  0.00    +0.000 A 
ATOM     16  C   UNL     1      46.143   2.196   7.852  0.00  0.00    +0.000 A 
ATOM     17  C   UNL     1      46.136   3.589   7.721  0.00  0.00    +0.000 A 
ATOM     18  C   UNL     1      45.347   4.379   8.563  0.00  0.00    +0.000 A 
BRANCH  16  19
ATOM     19  C   UNL     1      47.093   1.350   7.041  0.00  0.00    +0.000 C 
BRANCH  19  20
ATOM     20  C   UNL     1      48.341   2.106   6.582  0.00  0.00    +0.000 C 
BRANCH  20  21
ATOM     21  N   UNL     1      48.372   2.209   5.122  0.00  0.00    +0.000 NA
ATOM     22  H   UNL     1      47.649   2.857   4.809  0.00  0.00    +0.000 HD
ATOM     23  H   UNL     1      48.142   1.306   4.713  0.00  0.00    +0.000 HD
ENDBRANCH  20  21
ENDBRANCH  19  20
ENDBRANCH  16  19
ENDBRANCH   1  13
TORSDOF 6
ENDMDL
MODEL 2
REMARK VINA RESULT:    -7.150      1.593      2.567
REMARK INTER + INTRA:          -9.997
REMARK INTER:                  -9.423
REMARK INTRA:                  -0.575
REMARK UNBOUND:                -0.548
REMARK  Name = 
REMARK  7 active torsions:
REMARK  status: ('A' for Active; 'I' for Inactive)
REMARK    1  A    between atoms: C_1  and  O_2
REMARK    2  A    between atoms: O_2  and  C_3
REMARK    3  A    between atoms: N_10  and  C_11
REMARK    4  A    between atoms: C_11  and  C_12
REMARK    5  A    between atoms: C_15  and  C_16
REMARK    6  A    between atoms: C_16  and  C_17
REMARK    7  A    between atoms: C_17  and  N_18
REMARK                            x       y       z     vdW  Elec       q    Type
REMARK                         _______ _______ _______ _____ _____    ______ ____
ROOT
ATOM      1  C   UNL     1      44.317   4.314  11.621  0.00  0.00    +0.000 C 
ENDROOT
BRANCH   1   9
ATOM      2  C   UNL     1      47.566   7.718  13.728  0.00  0.00    +0.000 A 
ATOM      3  C   UNL     1      46.500   7.861  12.845  0.00  0.00    +0.000 A 
ATOM      4  N   UNL     1      45.720   6.859  12.365  0.00  0.00    +0.000 NA
ATOM      5  C   UNL     1      46.071   5.644  12.837  0.00  0.00    +0.000 A 
ATOM      6  C   UNL     1      47.117   5.360  13.711  0.00  0.00    +0.000 A 
ATOM      7  C   UNL     1      47.107   3.957  13.932  0.00  0.00    +0.000 A 
ATOM      8  C   UNL     1      46.069   3.425  13.198  0.00  0.00    +0.000 A 
ATOM      9  N   UNL     1      45.442   4.458  12.537  0.00  0.00    +0.000 N 
ATOM     10  C   UNL     1      47.901   6.435  14.158  0.00  0.00    +0.000 A 
BRANCH   2  12
ATOM     11  C   UNL     1      48.228   9.019  15.589  0.00  0.00    +0.000 C 
ATOM     12  O   UNL     1      48.363   8.727  14.203  0.00  0.00    +0.000 OA
ENDBRANCH   2  12
ENDBRANCH   1   9
BRANCH   1  13
ATOM     13  C   UNL     1      44.772   3.932  10.233  0.00  0.00    +0.000 A 
ATOM     14  C   UNL     1      44.710   2.599   9.804  0.00  0.00    +0.000 A 
ATOM     15  C   UNL     1      45.224   2.224   8.562  0.00  0.00    +0.000 A 
ATOM     16  C   UNL     1      45.807   3.175   7.718  0.00  0.00    +0.000 A 
ATOM     17  C   UNL     1      45.798   4.519   8.108  0.00  0.00    +0.000 A 
ATOM     18  C   UNL     1      45.291   4.895   9.356  0.00  0.00    +0.000 A 
BRANCH  16  19
ATOM     19  C   UNL     1      46.477   2.749   6.435  0.00  0.00    +0.000 C 
BRANCH  19  20
ATOM     20  C   UNL     1      47.536   1.662   6.633  0.00  0.00    +0.000 C 
BRANCH  20  21
ATOM     21  N   UNL     1      48.602   1.796   5.640  0.00  0.00    +0.000 NA
ATOM     22  H   UNL     1      49.381   2.319   6.041  0.00  0.00    +0.000 HD
ATOM     23  H   UNL     1      48.266   2.346   4.852  0.00  0.00    +0.000 HD
ENDBRANCH  20  21
ENDBRANCH  19  20
ENDBRANCH  16  19
ENDBRANCH   1  13
TORSDOF 6
ENDMDL
MODEL 3
REMARK VINA RESULT:    -6.742      1.545      2.130
REMARK INTER + INTRA:          -9.458
REMARK INTER:                  -9.098
REMARK INTRA:                  -0.360
REMARK UNBOUND:                -0.548
REMARK  Name = 
REMARK  7 active torsions:
REMARK  status: ('A' for Active; 'I' for Inactive)
REMARK    1  A    between atoms: C_1  and  O_2
REMARK    2  A    between atoms: O_2  and  C_3
REMARK    3  A    between atoms: N_10  and  C_11
REMARK    4  A    between atoms: C_11  and  C_12
REMARK    5  A    between atoms: C_15  and  C_16
REMARK    6  A    between atoms: C_16  and  C_17
REMARK    7  A    between atoms: C_17  and  N_18
REMARK                            x       y       z     vdW  Elec       q    Type
REMARK                         _______ _______ _______ _____ _____    ______ ____
ROOT
ATOM      1  C   UNL     1      43.728   5.152  11.110  0.00  0.00    +0.000 C 
ENDROOT
BRANCH   1   9
ATOM      2  C   UNL     1      47.872   6.413  13.907  0.00  0.00    +0.000 A 
ATOM      3  C   UNL     1      47.294   5.188  13.585  0.00  0.00    +0.000 A 
ATOM      4  N   UNL     1      46.183   5.003  12.827  0.00  0.00    +0.000 NA
ATOM      5  C   UNL     1      45.651   6.160  12.379  0.00  0.00    +0.000 A 
ATOM      6  C   UNL     1      46.118   7.446  12.634  0.00  0.00    +0.000 A 
ATOM      7  C   UNL     1      45.252   8.347  11.959  0.00  0.00    +0.000 A 
ATOM      8  C   UNL     1      44.289   7.598  11.316  0.00  0.00    +0.000 A 
ATOM      9  N   UNL     1      44.540   6.270  11.574  0.00  0.00    +0.000 N 
ATOM     10  C   UNL     1      47.261   7.575  13.440  0.00  0.00    +0.000 A 
BRANCH   2  12
ATOM     11  C   UNL     1      50.012   7.398  14.104  0.00  0.00    +0.000 C 
ATOM     12  O   UNL     1      48.985   6.601  14.682  0.00  0.00    +0.000 OA
ENDBRANCH   2  12
ENDBRANCH   1   9
BRANCH   1  13
ATOM     13  C   UNL     1      44.473   4.295  10.115  0.00  0.00    +0.000 A 
ATOM     14  C   UNL     1      45.306   4.882   9.152  0.00  0.00    +0.000 A 
ATOM     15  C   UNL     1      45.916   4.104   8.166  0.00  0.00    +0.000 A 
ATOM     16  C   UNL     1      45.710   2.721   8.124  0.00  0.00    +0.000 A 
ATOM     17  C   UNL     1      44.943   2.121   9.131  0.00  0.00    +0.000 A 
ATOM     18  C   UNL     1      44.326   2.901  10.114  0.00  0.00    +0.000 A 
BRANCH  16  19
ATOM     19  C   UNL     1      46.262   1.901   6.985  0.00  0.00    +0.000 C 
BRANCH  19  20
ATOM     20  C   UNL     1      47.355   0.921   7.413  0.00  0.00    +0.000 C 
BRANCH  20  21
ATOM     21  N   UNL     1      46.788  -0.406   7.662  0.00  0.00    +0.000 NA
ATOM     22  H   UNL     1      47.165  -1.072   6.988  0.00  0.00    +0.000 HD
ATOM     23  H   UNL     1      45.782  -0.380   7.506  0.00  0.00    +0.000 HD
ENDBRANCH  20  21
ENDBRANCH  19  20
ENDBRANCH  16  19
ENDBRANCH   1  13
TORSDOF 6
ENDMDL
MODEL 4
REMARK VINA RESULT:    -6.447      2.704      6.667
REMARK INTER + INTRA:          -9.068
REMARK INTER:                  -8.718
REMARK INTRA:                  -0.350
REMARK UNBOUND:                -0.548
REMARK  Name = 
REMARK  7 active torsions:
REMARK  status: ('A' for Active; 'I' for Inactive)
REMARK    1  A    between atoms: C_1  and  O_2
REMARK    2  A    between atoms: O_2  and  C_3
REMARK    3  A    between atoms: N_10  and  C_11
REMARK    4  A    between atoms: C_11  and  C_12
REMARK    5  A    between atoms: C_15  and  C_16
REMARK    6  A    between atoms: C_16  and  C_17
REMARK    7  A    between atoms: C_17  and  N_18
REMARK                            x       y       z     vdW  Elec       q    Type
REMARK                         _______ _______ _______ _____ _____    ______ ____
ROOT
ATOM      1  C   UNL     1      43.870   6.216  11.036  0.00  0.00    +0.000 C 
ENDROOT
BRANCH   1   9
ATOM      2  C   UNL     1      45.990   2.638   7.988  0.00  0.00    +0.000 A 
ATOM      3  C   UNL     1      46.055   4.029   7.989  0.00  0.00    +0.000 A 
ATOM      4  N   UNL     1      45.433   4.858   8.867  0.00  0.00    +0.000 NA
ATOM      5  C   UNL     1      44.709   4.197   9.795  0.00  0.00    +0.000 A 
ATOM      6  C   UNL     1      44.550   2.818   9.901  0.00  0.00    +0.000 A 
ATOM      7  C   UNL     1      43.711   2.579  11.022  0.00  0.00    +0.000 A 
ATOM      8  C   UNL     1      43.383   3.803  11.567  0.00  0.00    +0.000 A 
ATOM      9  N   UNL     1      43.996   4.780  10.816  0.00  0.00    +0.000 N 
ATOM     10  C   UNL     1      45.202   2.013   8.952  0.00  0.00    +0.000 A 
BRANCH   2  12
ATOM     11  C   UNL     1      47.942   2.147   6.747  0.00  0.00    +0.000 C 
ATOM     12  O   UNL     1      46.607   1.802   7.096  0.00  0.00    +0.000 OA
ENDBRANCH   2  12
ENDBRANCH   1   9
BRANCH   1  13
ATOM     13  C   UNL     1      45.046   6.769  11.805  0.00  0.00    +0.000 A 
ATOM     14  C   UNL     1      46.053   5.915  12.278  0.00  0.00    +0.000 A 
ATOM     15  C   UNL     1      47.088   6.406  13.077  0.00  0.00    +0.000 A 
ATOM     16  C   UNL     1      47.141   7.762  13.416  0.00  0.00    +0.000 A 
ATOM     17  C   UNL     1      46.183   8.631  12.880  0.00  0.00    +0.000 A 
ATOM     18  C   UNL     1      45.142   8.139  12.086  0.00  0.00    +0.000 A 
BRANCH  16  19
ATOM     19  C   UNL     1      48.183   8.267  14.383  0.00  0.00    +0.000 C 
BRANCH  19  20
ATOM     20  C   UNL     1      48.893   7.150  15.151  0.00  0.00    +0.000 C 
BRANCH  20  21
ATOM     21  N   UNL     1      50.288   7.038  14.722  0.00  0.00    +0.000 NA
ATOM     22  H   UNL     1      50.814   6.495  15.408  0.00  0.00    +0.000 HD
ATOM     23  H   UNL     1      50.713   7.963  14.704  0.00  0.00    +0.000 HD
ENDBRANCH  20  21
ENDBRANCH  19  20
ENDBRANCH  16  19
ENDBRANCH   1  13
TORSDOF 6
ENDMDL
MODEL 5
REMARK VINA RESULT:    -5.841      3.670      7.913
REMARK INTER + INTRA:          -8.267
REMARK INTER:                  -7.973
REMARK INTRA:                  -0.295
REMARK UNBOUND:                -0.548
REMARK  Name = 
REMARK  7 active torsions:
REMARK  status: ('A' for Active; 'I' for Inactive)
REMARK    1  A    between atoms: C_1  and  O_2
REMARK    2  A    between atoms: O_2  and  C_3
REMARK    3  A    between atoms: N_10  and  C_11
REMARK    4  A    between atoms: C_11  and  C_12
REMARK    5  A    between atoms: C_15  and  C_16
REMARK    6  A    between atoms: C_16  and  C_17
REMARK    7  A    between atoms: C_17  and  N_18
REMARK                            x       y       z     vdW  Elec       q    Type
REMARK                         _______ _______ _______ _____ _____    ______ ____
ROOT
ATOM      1  C   UNL     1      47.310   4.227  16.578  0.00  0.00    +0.000 C 
ENDROOT
BRANCH   1   9
ATOM      2  C   UNL     1      45.583   5.085  11.795  0.00  0.00    +0.000 A 
ATOM      3  C   UNL     1      45.232   4.151  12.766  0.00  0.00    +0.000 A 
ATOM      4  N   UNL     1      45.783   4.039  14.003  0.00  0.00    +0.000 NA
ATOM      5  C   UNL     1      46.746   4.954  14.237  0.00  0.00    +0.000 A 
ATOM      6  C   UNL     1      47.199   5.932  13.355  0.00  0.00    +0.000 A 
ATOM      7  C   UNL     1      48.213   6.664  14.029  0.00  0.00    +0.000 A 
ATOM      8  C   UNL     1      48.352   6.124  15.290  0.00  0.00    +0.000 A 
ATOM      9  N   UNL     1      47.454   5.087  15.409  0.00  0.00    +0.000 N 
ATOM     10  C   UNL     1      46.606   5.986  12.084  0.00  0.00    +0.000 A 
BRANCH   2  12
ATOM     11  C   UNL     1      43.728   4.657  10.393  0.00  0.00    +0.000 C 
ATOM     12  O   UNL     1      45.038   5.191  10.543  0.00  0.00    +0.000 OA
ENDBRANCH   2  12
ENDBRANCH   1   9
BRANCH   1  13
ATOM     13  C   UNL     1      48.634   3.644  17.010  0.00  0.00    +0.000 A 
ATOM     14  C   UNL     1      49.512   4.388  17.810  0.00  0.00    +0.000 A 
ATOM     15  C   UNL     1      50.780   3.895  18.127  0.00  0.00    +0.000 A 
ATOM     16  C   UNL     1      51.194   2.645  17.655  0.00  0.00    +0.000 A 
ATOM     17  C   UNL     1      50.290   1.865  16.924  0.00  0.00    +0.000 A 
ATOM     18  C   UNL     1      49.023   2.362  16.600  0.00  0.00    +0.000 A 
BRANCH  16  19
ATOM     19  C   UNL     1      52.607   2.171  17.888  0.00  0.00    +0.000 C 
BRANCH  19  20
ATOM     20  C   UNL     1      52.881   0.774  17.328  0.00  0.00    +0.000 C 
BRANCH  20  21
ATOM     21  N   UNL     1      52.822  -0.228  18.393  0.00  0.00    +0.000 NA
ATOM     22  H   UNL     1      53.685  -0.771  18.400  0.00  0.00    +0.000 HD
ATOM     23  H   UNL     1      52.072  -0.887  18.198  0.00  0.00    +0.000 HD
ENDBRANCH  20  21
ENDBRANCH  19  20
ENDBRANCH  16  19
ENDBRANCH   1  13
TORSDOF 6
ENDMDL
MODEL 6
REMARK VINA RESULT:    -5.651      1.787      2.992
REMARK INTER + INTRA:          -8.016
REMARK INTER:                  -7.990
REMARK INTRA:                  -0.026
REMARK UNBOUND:                -0.548
REMARK  Name = 
REMARK  7 active torsions:
REMARK  status: ('A' for Active; 'I' for Inactive)
REMARK    1  A    between atoms: C_1  and  O_2
REMARK    2  A    between atoms: O_2  and  C_3
REMARK    3  A    between atoms: N_10  and  C_11
REMARK    4  A    between atoms: C_11  and  C_12
REMARK    5  A    between atoms: C_15  and  C_16
REMARK    6  A    between atoms: C_16  and  C_17
REMARK    7  A    between atoms: C_17  and  N_18
REMARK                            x       y       z     vdW  Elec       q    Type
REMARK                         _______ _______ _______ _____ _____    ______ ____
ROOT
ATOM      1  C   UNL     1      45.096   5.006  13.279  0.00  0.00    +0.000 C 
ENDROOT
BRANCH   1   9
ATOM      2  C   UNL     1      48.658   4.424  16.963  0.00  0.00    +0.000 A 
ATOM      3  C   UNL     1      47.495   3.719  16.661  0.00  0.00    +0.000 A 
ATOM      4  N   UNL     1      46.637   3.991  15.644  0.00  0.00    +0.000 NA
ATOM      5  C   UNL     1      47.017   5.052  14.901  0.00  0.00    +0.000 A 
ATOM      6  C   UNL     1      48.144   5.847  15.098  0.00  0.00    +0.000 A 
ATOM      7  C   UNL     1      48.140   6.836  14.080  0.00  0.00    +0.000 A 
ATOM      8  C   UNL     1      47.026   6.624  13.295  0.00  0.00    +0.000 A 
ATOM      9  N   UNL     1      46.351   5.536  13.799  0.00  0.00    +0.000 N 
ATOM     10  C   UNL     1      48.983   5.529  16.178  0.00  0.00    +0.000 A 
BRANCH   2  12
ATOM     11  C   UNL     1      50.897   4.104  17.652  0.00  0.00    +0.000 C 
ATOM     12  O   UNL     1      49.517   4.159  17.996  0.00  0.00    +0.000 OA
ENDBRANCH   2  12
ENDBRANCH   1   9
BRANCH   1  13
ATOM     13  C   UNL     1      45.222   4.588  11.834  0.00  0.00    +0.000 A 
ATOM     14  C   UNL     1      45.581   5.522  10.851  0.00  0.00    +0.000 A 
ATOM     15  C   UNL     1      45.599   5.167   9.501  0.00  0.00    +0.000 A 
ATOM     16  C   UNL     1      45.264   3.868   9.105  0.00  0.00    +0.000 A 
ATOM     17  C   UNL     1      44.983   2.912  10.088  0.00  0.00    +0.000 A 
ATOM     18  C   UNL     1      44.958   3.270  11.440  0.00  0.00    +0.000 A 
BRANCH  16  19
ATOM     19  C   UNL     1      45.156   3.520   7.640  0.00  0.00    +0.000 C 
BRANCH  19  20
ATOM     20  C   UNL     1      46.477   3.050   7.028  0.00  0.00    +0.000 C 
BRANCH  20  21
ATOM     21  N   UNL     1      46.879   3.933   5.932  0.00  0.00    +0.000 NA
ATOM     22  H   UNL     1      47.122   4.851   6.303  0.00  0.00    +0.000 HD
ATOM     23  H   UNL     1      46.089   4.078   5.305  0.00  0.00    +0.000 HD
ENDBRANCH  20  21
ENDBRANCH  19  20
ENDBRANCH  16  19
ENDBRANCH   1  13
TORSDOF 6
ENDMDL
MODEL 7
REMARK VINA RESULT:    -5.592      2.575      3.278
REMARK INTER + INTRA:          -7.938
REMARK INTER:                  -7.546
REMARK INTRA:                  -0.392
REMARK UNBOUND:                -0.548
REMARK  Name = 
REMARK  7 active torsions:
REMARK  status: ('A' for Active; 'I' for Inactive)
REMARK    1  A    between atoms: C_1  and  O_2
REMARK    2  A    between atoms: O_2  and  C_3
REMARK    3  A    between atoms: N_10  and  C_11
REMARK    4  A    between atoms: C_11  and  C_12
REMARK    5  A    between atoms: C_15  and  C_16
REMARK    6  A    between atoms: C_16  and  C_17
REMARK    7  A    between atoms: C_17  and  N_18
REMARK                            x       y       z     vdW  Elec       q    Type
REMARK                         _______ _______ _______ _____ _____    ______ ____
ROOT
ATOM      1  C   UNL     1      45.235   5.465  12.677  0.00  0.00    +0.000 C 
ENDROOT
BRANCH   1   9
ATOM      2  C   UNL     1      49.465   8.398  12.973  0.00  0.00    +0.000 A 
ATOM      3  C   UNL     1      49.274   7.020  13.015  0.00  0.00    +0.000 A 
ATOM      4  N   UNL     1      48.082   6.375  12.925  0.00  0.00    +0.000 NA
ATOM      5  C   UNL     1      47.036   7.216  12.779  0.00  0.00    +0.000 A 
ATOM      6  C   UNL     1      47.086   8.607  12.734  0.00  0.00    +0.000 A 
ATOM      7  C   UNL     1      45.752   9.067  12.568  0.00  0.00    +0.000 A 
ATOM      8  C   UNL     1      44.932   7.960  12.515  0.00  0.00    +0.000 A 
ATOM      9  N   UNL     1      45.721   6.839  12.642  0.00  0.00    +0.000 N 
ATOM     10  C   UNL     1      48.345   9.218  12.852  0.00  0.00    +0.000 A 
BRANCH   2  12
ATOM     11  C   UNL     1      51.684   8.614  12.184  0.00  0.00    +0.000 C 
ATOM     12  O   UNL     1      50.666   9.050  13.077  0.00  0.00    +0.000 OA
ENDBRANCH   2  12
ENDBRANCH   1   9
BRANCH   1  13
ATOM     13  C   UNL     1      45.222   4.842  11.301  0.00  0.00    +0.000 A 
ATOM     14  C   UNL     1      44.783   3.522  11.121  0.00  0.00    +0.000 A 
ATOM     15  C   UNL     1      44.865   2.907   9.871  0.00  0.00    +0.000 A 
ATOM     16  C   UNL     1      45.382   3.600   8.771  0.00  0.00    +0.000 A 
ATOM     17  C   UNL     1      45.746   4.943   8.929  0.00  0.00    +0.000 A 
ATOM     18  C   UNL     1      45.672   5.557  10.183  0.00  0.00    +0.000 A 
BRANCH  16  19
ATOM     19  C   UNL     1      45.591   2.895   7.454  0.00  0.00    +0.000 C 
BRANCH  19  20
ATOM     20  C   UNL     1      46.931   2.163   7.361  0.00  0.00    +0.000 C 
BRANCH  20  21
ATOM     21  N   UNL     1      47.925   2.995   6.681  0.00  0.00    +0.000 NA
ATOM     22  H   UNL     1      48.253   3.724   7.315  0.00  0.00    +0.000 HD
ATOM     23  H   UNL     1      47.488   3.475   5.897  0.00  0.00    +0.000 HD
ENDBRANCH  20  21
ENDBRANCH  19  20
ENDBRANCH  16  19
ENDBRANCH   1  13
TORSDOF 6
ENDMDL
MODEL 8
REMARK VINA RESULT:    -5.475      3.502      5.378
REMARK INTER + INTRA:          -7.783
REMARK INTER:                  -7.208
REMARK INTRA:                  -0.575
REMARK UNBOUND:                -0.548
REMARK  Name = 
REMARK  7 active torsions:
REMARK  status: ('A' for Active; 'I' for Inactive)
REMARK    1  A    between atoms: C_1  and  O_2
REMARK    2  A    between atoms: O_2  and  C_3
REMARK    3  A    between atoms: N_10  and  C_11
REMARK    4  A    between atoms: C_11  and  C_12
REMARK    5  A    between atoms: C_15  and  C_16
REMARK    6  A    between atoms: C_16  and  C_17
REMARK    7  A    between atoms: C_17  and  N_18
REMARK                            x       y       z     vdW  Elec       q    Type
REMARK                         _______ _______ _______ _____ _____    ______ ____
ROOT
ATOM      1  C   UNL     1      48.664   6.664  13.327  0.00  0.00    +0.000 C 
ENDROOT
BRANCH   1   9
ATOM      2  C   UNL     1      49.300   6.251  18.428  0.00  0.00    +0.000 A 
ATOM      3  C   UNL     1      49.465   5.344  17.385  0.00  0.00    +0.000 A 
ATOM      4  N   UNL     1      49.256   5.594  16.066  0.00  0.00    +0.000 NA
ATOM      5  C   UNL     1      48.857   6.862  15.827  0.00  0.00    +0.000 A 
ATOM      6  C   UNL     1      48.643   7.861  16.772  0.00  0.00    +0.000 A 
ATOM      7  C   UNL     1      48.236   9.024  16.066  0.00  0.00    +0.000 A 
ATOM      8  C   UNL     1      48.214   8.711  14.723  0.00  0.00    +0.000 A 
ATOM      9  N   UNL     1      48.596   7.396  14.587  0.00  0.00    +0.000 N 
ATOM     10  C   UNL     1      48.856   7.536  18.122  0.00  0.00    +0.000 A 
BRANCH   2  12
ATOM     11  C   UNL     1      48.810   4.863  20.279  0.00  0.00    +0.000 C 
ATOM     12  O   UNL     1      49.497   5.995  19.759  0.00  0.00    +0.000 OA
ENDBRANCH   2  12
ENDBRANCH   1   9
BRANCH   1  13
ATOM     13  C   UNL     1      47.300   6.193  12.880  0.00  0.00    +0.000 A 
ATOM     14  C   UNL     1      46.619   5.200  13.598  0.00  0.00    +0.000 A 
ATOM     15  C   UNL     1      45.406   4.689  13.133  0.00  0.00    +0.000 A 
ATOM     16  C   UNL     1      44.846   5.163  11.942  0.00  0.00    +0.000 A 
ATOM     17  C   UNL     1      45.483   6.209  11.265  0.00  0.00    +0.000 A 
ATOM     18  C   UNL     1      46.701   6.717  11.726  0.00  0.00    +0.000 A 
BRANCH  16  19
ATOM     19  C   UNL     1      43.605   4.520  11.373  0.00  0.00    +0.000 C 
BRANCH  19  20
ATOM     20  C   UNL     1      43.831   3.089  10.882  0.00  0.00    +0.000 C 
BRANCH  20  21
ATOM     21  N   UNL     1      43.048   2.142  11.678  0.00  0.00    +0.000 NA
ATOM     22  H   UNL     1      42.847   2.547  12.592  0.00  0.00    +0.000 HD
ATOM     23  H   UNL     1      43.601   1.305  11.852  0.00  0.00    +0.000 HD
ENDBRANCH  20  21
ENDBRANCH  19  20
ENDBRANCH  16  19
ENDBRANCH   1  13
TORSDOF 6
ENDMDL
MODEL 9
REMARK VINA RESULT:    -5.393      3.339      4.611
REMARK INTER + INTRA:          -7.674
REMARK INTER:                  -7.084
REMARK INTRA:                  -0.591
REMARK UNBOUND:                -0.548
REMARK  Name = 
REMARK  7 active torsions:
REMARK  status: ('A' for Active; 'I' for Inactive)
REMARK    1  A    between atoms: C_1  and  O_2
REMARK    2  A    between atoms: O_2  and  C_3
REMARK    3  A    between atoms: N_10  and  C_11
REMARK    4  A    between atoms: C_11  and  C_12
REMARK    5  A    between atoms: C_15  and  C_16
REMARK    6  A    between atoms: C_16  and  C_17
REMARK    7  A    between atoms: C_17  and  N_18
REMARK                            x       y       z     vdW  Elec       q    Type
REMARK                         _______ _______ _______ _____ _____    ______ ____
ROOT
ATOM      1  C   UNL     1      45.261   6.840  12.646  0.00  0.00    +0.000 C 
ENDROOT
BRANCH   1   9
ATOM      2  C   UNL     1      48.938  10.406  12.057  0.00  0.00    +0.000 A 
ATOM      3  C   UNL     1      47.572  10.414  11.791  0.00  0.00    +0.000 A 
ATOM      4  N   UNL     1      46.711   9.384  11.998  0.00  0.00    +0.000 NA
ATOM      5  C   UNL     1      47.310   8.290  12.515  0.00  0.00    +0.000 A 
ATOM      6  C   UNL     1      48.662   8.145  12.816  0.00  0.00    +0.000 A 
ATOM      7  C   UNL     1      48.835   6.836  13.338  0.00  0.00    +0.000 A 
ATOM      8  C   UNL     1      47.600   6.221  13.344  0.00  0.00    +0.000 A 
ATOM      9  N   UNL     1      46.679   7.114  12.844  0.00  0.00    +0.000 N 
ATOM     10  C   UNL     1      49.506   9.238  12.562  0.00  0.00    +0.000 A 
BRANCH   2  12
ATOM     11  C   UNL     1      50.915  11.516  12.730  0.00  0.00    +0.000 C 
ATOM     12  O   UNL     1      49.810  11.440  11.837  0.00  0.00    +0.000 OA
ENDBRANCH   2  12
ENDBRANCH   1   9
BRANCH   1  13
ATOM     13  C   UNL     1      45.042   5.669  11.718  0.00  0.00    +0.000 A 
ATOM     14  C   UNL     1      44.472   4.479  12.195  0.00  0.00    +0.000 A 
ATOM     15  C   UNL     1      44.362   3.360  11.368  0.00  0.00    +0.000 A 
ATOM     16  C   UNL     1      44.815   3.406  10.045  0.00  0.00    +0.000 A 
ATOM     17  C   UNL     1      45.311   4.615   9.543  0.00  0.00    +0.000 A 
ATOM     18  C   UNL     1      45.428   5.735  10.373  0.00  0.00    +0.000 A 
BRANCH  16  19
ATOM     19  C   UNL     1      44.816   2.161   9.194  0.00  0.00    +0.000 C 
BRANCH  19  20
ATOM     20  C   UNL     1      46.011   2.073   8.244  0.00  0.00    +0.000 C 
BRANCH  20  21
ATOM     21  N   UNL     1      46.407   0.678   8.042  0.00  0.00    +0.000 NA
ATOM     22  H   UNL     1      47.424   0.609   8.029  0.00  0.00    +0.000 HD
ATOM     23  H   UNL     1      46.087   0.363   7.128  0.00  0.00    +0.000 HD
ENDBRANCH  20  21
ENDBRANCH  19  20
ENDBRANCH  16  19
ENDBRANCH   1  13
TORSDOF 6
ENDMDL
