MODEL 1
REMARK VINA RESULT:    -8.495      0.000      0.000
REMARK INTER + INTRA:         -12.638
REMARK INTER:                 -11.475
REMARK INTRA:                  -1.163
REMARK UNBOUND:                -1.163
REMARK  Name = 
REMARK  6 active torsions:
REMARK  status: ('A' for Active; 'I' for Inactive)
REMARK    1  A    between atoms: C_2  and  C_25
REMARK    2  A    between atoms: N_3  and  C_4
REMARK    3  A    between atoms: C_4  and  C_5
REMARK    4  A    between atoms: C_8  and  C_9
REMARK    5  A    between atoms: C_9  and  N_10
REMARK    6  A    between atoms: C_11  and  C_13
REMARK                            x       y       z     vdW  Elec       q    Type
REMARK                         _______ _______ _______ _____ _____    ______ ____
ROOT
ATOM      1  C   UNL     1      44.918   5.814  11.361  0.00  0.00    +0.000 C 
ATOM      2  C   UNL     1      44.331   7.170  11.787  0.00  0.00    +0.000 C 
ATOM      3  C   UNL     1      45.212   7.886  12.811  0.00  0.00    +0.000 C 
ATOM      4  C   UNL     1      46.653   8.065  12.307  0.00  0.00    +0.000 C 
ATOM      5  C   UNL     1      47.238   6.706  11.889  0.00  0.00    +0.000 C 
ATOM      6  C   UNL     1      46.361   5.990  10.865  0.00  0.00    +0.000 C 
ENDROOT
BRANCH   1   7
ATOM      7  C   UNL     1      44.066   5.153  10.263  0.00  0.00    +0.000 C 
BRANCH   7  10
ATOM      8  O   UNL     1      44.579   2.377   9.964  0.00  0.00    +0.000 OA
ATOM      9  C   UNL     1      45.057   3.169   9.167  0.00  0.00    +0.000 C 
ATOM     10  N   UNL     1      44.870   4.535   9.227  0.00  0.00    +0.000 N 
ATOM     11  H   UNL     1      45.118   5.103   8.429  0.00  0.00    +0.000 HD
BRANCH   9  12
ATOM     12  C   UNL     1      45.866   2.685   8.029  0.00  0.00    +0.000 A 
ATOM     13  C   UNL     1      46.160   3.479   6.917  0.00  0.00    +0.000 A 
ATOM     14  C   UNL     1      46.924   2.946   5.882  0.00  0.00    +0.000 A 
ATOM     15  C   UNL     1      47.371   1.640   5.998  0.00  0.00    +0.000 A 
ATOM     16  N   UNL     1      47.117   0.850   7.065  0.00  0.00    +0.000 NA
ATOM     17  C   UNL     1      46.379   1.395   8.066  0.00  0.00    +0.000 A 
ENDBRANCH   9  12
ENDBRANCH   7  10
ENDBRANCH   1   7
BRANCH   4  18
ATOM     18  C   UNL     1      47.559   8.715  13.370  0.00  0.00    +0.000 C 
BRANCH  18  19
ATOM     19  N   UNL     1      47.787   7.868  14.522  0.00  0.00    +0.000 N 
ATOM     20  C   UNL     1      49.004   7.295  14.792  0.00  0.00    +0.000 C 
ATOM     21  O   UNL     1      49.987   7.474  14.076  0.00  0.00    +0.000 OA
ATOM     22  H   UNL     1      46.970   7.566  15.043  0.00  0.00    +0.000 HD
BRANCH  20  23
ATOM     23  C   UNL     1      49.096   6.505  16.027  0.00  0.00    +0.000 A 
ATOM     24  C   UNL     1      49.992   6.886  17.017  0.00  0.00    +0.000 A 
ATOM     25  S   UNL     1      49.943   5.895  18.404  0.00  0.00    +0.000 S 
ATOM     26  C   UNL     1      48.757   4.890  17.709  0.00  0.00    +0.000 A 
ATOM     27  N   UNL     1      48.278   3.807  18.376  0.00  0.00    +0.000 NA
ATOM     28  C   UNL     1      47.413   3.113  17.719  0.00  0.00    +0.000 A 
ATOM     29  N   UNL     1      46.977   3.403  16.454  0.00  0.00    +0.000 N 
ATOM     30  C   UNL     1      47.398   4.516  15.757  0.00  0.00    +0.000 A 
ATOM     31  O   UNL     1      46.926   4.794  14.657  0.00  0.00    +0.000 OA
ATOM     32  C   UNL     1      48.391   5.315  16.444  0.00  0.00    +0.000 A 
ATOM     33  H   UNL     1      46.283   2.830  16.000  0.00  0.00    +0.000 HD
ENDBRANCH  20  23
ENDBRANCH  18  19
ENDBRANCH   4  18
TORSDOF 6
ENDMDL
MODEL 2
REMARK VINA RESULT:    -8.129      2.211      2.671
REMARK INTER + INTRA:         -12.144
REMARK INTER:                 -11.196
REMARK INTRA:                  -0.948
REMARK UNBOUND:                -1.163
REMARK  Name = 
REMARK  6 active torsions:
REMARK  status: ('A' for Active; 'I' for Inactive)
REMARK    1  A    between atoms: C_2  and  C_25
REMARK    2  A    between atoms: N_3  and  C_4
REMARK    3  A    between atoms: C_4  and  C_5
REMARK    4  A    between atoms: C_8  and  C_9
REMARK    5  A    between atoms: C_9  and  N_10
REMARK    6  A    between atoms: C_11  and  C_13
REMARK                            x       y       z     vdW  Elec       q    Type
REMARK                         _______ _______ _______ _____ _____    ______ ____
ROOT
ATOM      1  C   UNL     1      44.692   4.431  12.392  0.00  0.00    +0.000 C 
ATOM      2  C   UNL     1      44.975   5.755  11.664  0.00  0.00    +0.000 C 
ATOM      3  C   UNL     1      45.808   6.716  12.512  0.00  0.00    +0.000 C 
ATOM      4  C   UNL     1      47.123   6.077  12.985  0.00  0.00    +0.000 C 
ATOM      5  C   UNL     1      46.835   4.758  13.718  0.00  0.00    +0.000 C 
ATOM      6  C   UNL     1      46.005   3.795  12.872  0.00  0.00    +0.000 C 
ENDROOT
BRANCH   1   7
ATOM      7  C   UNL     1      43.934   3.443  11.489  0.00  0.00    +0.000 C 
BRANCH   7  10
ATOM      8  O   UNL     1      44.052   4.286   8.780  0.00  0.00    +0.000 OA
ATOM      9  C   UNL     1      44.757   3.365   9.158  0.00  0.00    +0.000 C 
ATOM     10  N   UNL     1      44.772   2.879  10.449  0.00  0.00    +0.000 N 
ATOM     11  H   UNL     1      45.519   2.263  10.737  0.00  0.00    +0.000 HD
BRANCH   9  12
ATOM     12  C   UNL     1      45.699   2.714   8.220  0.00  0.00    +0.000 A 
ATOM     13  C   UNL     1      46.329   3.405   7.181  0.00  0.00    +0.000 A 
ATOM     14  C   UNL     1      47.198   2.719   6.336  0.00  0.00    +0.000 A 
ATOM     15  C   UNL     1      47.408   1.368   6.564  0.00  0.00    +0.000 A 
ATOM     16  N   UNL     1      46.826   0.675   7.568  0.00  0.00    +0.000 NA
ATOM     17  C   UNL     1      45.991   1.368   8.384  0.00  0.00    +0.000 A 
ENDBRANCH   9  12
ENDBRANCH   7  10
ENDBRANCH   1   7
BRANCH   4  18
ATOM     18  C   UNL     1      47.924   7.019  13.904  0.00  0.00    +0.000 C 
BRANCH  18  19
ATOM     19  N   UNL     1      47.900   6.615  15.294  0.00  0.00    +0.000 N 
ATOM     20  C   UNL     1      49.043   6.401  16.024  0.00  0.00    +0.000 C 
ATOM     21  O   UNL     1      50.165   6.548  15.545  0.00  0.00    +0.000 OA
ATOM     22  H   UNL     1      47.006   6.328  15.678  0.00  0.00    +0.000 HD
BRANCH  20  23
ATOM     23  C   UNL     1      48.859   6.049  17.438  0.00  0.00    +0.000 A 
ATOM     24  C   UNL     1      49.173   4.767  17.870  0.00  0.00    +0.000 A 
ATOM     25  S   UNL     1      48.948   4.534  19.545  0.00  0.00    +0.000 S 
ATOM     26  C   UNL     1      48.372   6.124  19.743  0.00  0.00    +0.000 A 
ATOM     27  N   UNL     1      47.971   6.577  20.960  0.00  0.00    +0.000 NA
ATOM     28  C   UNL     1      47.521   7.785  20.960  0.00  0.00    +0.000 A 
ATOM     29  N   UNL     1      47.440   8.588  19.854  0.00  0.00    +0.000 N 
ATOM     30  C   UNL     1      47.878   8.189  18.609  0.00  0.00    +0.000 A 
ATOM     31  O   UNL     1      47.867   8.961  17.653  0.00  0.00    +0.000 OA
ATOM     32  C   UNL     1      48.369   6.828  18.551  0.00  0.00    +0.000 A 
ATOM     33  H   UNL     1      47.095   9.533  19.922  0.00  0.00    +0.000 HD
ENDBRANCH  20  23
ENDBRANCH  18  19
ENDBRANCH   4  18
TORSDOF 6
ENDMDL
MODEL 3
REMARK VINA RESULT:    -7.593      2.509      3.339
REMARK INTER + INTRA:         -11.419
REMARK INTER:                 -10.589
REMARK INTRA:                  -0.830
REMARK UNBOUND:                -1.163
REMARK  Name = 
REMARK  6 active torsions:
REMARK  status: ('A' for Active; 'I' for Inactive)
REMARK    1  A    between atoms: C_2  and  C_25
REMARK    2  A    between atoms: N_3  and  C_4
REMARK    3  A    between atoms: C_4  and  C_5
REMARK    4  A    between atoms: C_8  and  C_9
REMARK    5  A    between atoms: C_9  and  N_10
REMARK    6  A    between atoms: C_11  and  C_13
REMARK                            x       y       z     vdW  Elec       q    Type
REMARK                         _______ _______ _______ _____ _____    ______ ____
ROOT
ATOM      1  C   UNL     1      45.576   6.086  11.709  0.00  0.00    +0.000 C 
ATOM      2  C   UNL     1      47.016   6.334  12.189  0.00  0.00    +0.000 C 
ATOM      3  C   UNL     1      47.179   6.080  13.687  0.00  0.00    +0.000 C 
ATOM      4  C   UNL     1      46.721   4.669  14.087  0.00  0.00    +0.000 C 
ATOM      5  C   UNL     1      45.279   4.429  13.612  0.00  0.00    +0.000 C 
ATOM      6  C   UNL     1      45.114   4.679  12.115  0.00  0.00    +0.000 C 
ENDROOT
BRANCH   1   7
ATOM      7  C   UNL     1      45.454   6.256  10.185  0.00  0.00    +0.000 C 
BRANCH   7  10
ATOM      8  O   UNL     1      44.009   4.269   8.763  0.00  0.00    +0.000 OA
ATOM      9  C   UNL     1      45.229   4.229   8.787  0.00  0.00    +0.000 C 
ATOM     10  N   UNL     1      46.022   5.143   9.451  0.00  0.00    +0.000 N 
ATOM     11  H   UNL     1      47.012   5.169   9.258  0.00  0.00    +0.000 HD
BRANCH   9  12
ATOM     12  C   UNL     1      45.954   3.173   8.047  0.00  0.00    +0.000 A 
ATOM     13  C   UNL     1      45.939   1.831   8.435  0.00  0.00    +0.000 A 
ATOM     14  C   UNL     1      46.654   0.898   7.689  0.00  0.00    +0.000 A 
ATOM     15  C   UNL     1      47.355   1.340   6.578  0.00  0.00    +0.000 A 
ATOM     16  N   UNL     1      47.378   2.628   6.168  0.00  0.00    +0.000 NA
ATOM     17  C   UNL     1      46.666   3.517   6.906  0.00  0.00    +0.000 A 
ENDBRANCH   9  12
ENDBRANCH   7  10
ENDBRANCH   1   7
BRANCH   4  18
ATOM     18  C   UNL     1      46.811   4.441  15.608  0.00  0.00    +0.000 C 
BRANCH  18  19
ATOM     19  N   UNL     1      48.172   4.330  16.088  0.00  0.00    +0.000 N 
ATOM     20  C   UNL     1      48.514   4.532  17.402  0.00  0.00    +0.000 C 
ATOM     21  O   UNL     1      47.681   4.812  18.261  0.00  0.00    +0.000 OA
ATOM     22  H   UNL     1      48.906   4.261  15.390  0.00  0.00    +0.000 HD
BRANCH  20  23
ATOM     23  C   UNL     1      49.927   4.330  17.748  0.00  0.00    +0.000 A 
ATOM     24  C   UNL     1      50.654   5.379  18.295  0.00  0.00    +0.000 A 
ATOM     25  S   UNL     1      52.263   4.968  18.684  0.00  0.00    +0.000 S 
ATOM     26  C   UNL     1      52.060   3.386  18.087  0.00  0.00    +0.000 A 
ATOM     27  N   UNL     1      53.087   2.497  18.098  0.00  0.00    +0.000 NA
ATOM     28  C   UNL     1      52.807   1.349  17.582  0.00  0.00    +0.000 A 
ATOM     29  N   UNL     1      51.590   1.005  17.057  0.00  0.00    +0.000 N 
ATOM     30  C   UNL     1      50.506   1.857  17.067  0.00  0.00    +0.000 A 
ATOM     31  O   UNL     1      49.404   1.490  16.664  0.00  0.00    +0.000 OA
ATOM     32  C   UNL     1      50.777   3.170  17.614  0.00  0.00    +0.000 A 
ATOM     33  H   UNL     1      51.427   0.083  16.684  0.00  0.00    +0.000 HD
ENDBRANCH  20  23
ENDBRANCH  18  19
ENDBRANCH   4  18
TORSDOF 6
ENDMDL
MODEL 4
REMARK VINA RESULT:    -6.920      2.543      3.873
REMARK INTER + INTRA:         -10.510
REMARK INTER:                  -9.828
REMARK INTRA:                  -0.682
REMARK UNBOUND:                -1.163
REMARK  Name = 
REMARK  6 active torsions:
REMARK  status: ('A' for Active; 'I' for Inactive)
REMARK    1  A    between atoms: C_2  and  C_25
REMARK    2  A    between atoms: N_3  and  C_4
REMARK    3  A    between atoms: C_4  and  C_5
REMARK    4  A    between atoms: C_8  and  C_9
REMARK    5  A    between atoms: C_9  and  N_10
REMARK    6  A    between atoms: C_11  and  C_13
REMARK                            x       y       z     vdW  Elec       q    Type
REMARK                         _______ _______ _______ _____ _____    ______ ____
ROOT
ATOM      1  C   UNL     1      44.437   4.625  11.638  0.00  0.00    +0.000 C 
ATOM      2  C   UNL     1      45.317   5.884  11.576  0.00  0.00    +0.000 C 
ATOM      3  C   UNL     1      46.031   6.158  12.899  0.00  0.00    +0.000 C 
ATOM      4  C   UNL     1      46.860   4.953  13.368  0.00  0.00    +0.000 C 
ATOM      5  C   UNL     1      45.975   3.698  13.436  0.00  0.00    +0.000 C 
ATOM      6  C   UNL     1      45.263   3.420  12.114  0.00  0.00    +0.000 C 
ENDROOT
BRANCH   1   7
ATOM      7  C   UNL     1      43.802   4.314  10.272  0.00  0.00    +0.000 C 
BRANCH   7  10
ATOM      8  O   UNL     1      44.340   1.726   9.235  0.00  0.00    +0.000 OA
ATOM      9  C   UNL     1      44.969   2.686   8.820  0.00  0.00    +0.000 C 
ATOM     10  N   UNL     1      44.786   3.981   9.260  0.00  0.00    +0.000 N 
ATOM     11  H   UNL     1      45.187   4.743   8.733  0.00  0.00    +0.000 HD
BRANCH   9  12
ATOM     12  C   UNL     1      45.979   2.511   7.754  0.00  0.00    +0.000 A 
ATOM     13  C   UNL     1      46.166   3.442   6.729  0.00  0.00    +0.000 A 
ATOM     14  C   UNL     1      47.134   3.201   5.758  0.00  0.00    +0.000 A 
ATOM     15  C   UNL     1      47.884   2.039   5.850  0.00  0.00    +0.000 A 
ATOM     16  N   UNL     1      47.739   1.126   6.836  0.00  0.00    +0.000 NA
ATOM     17  C   UNL     1      46.796   1.389   7.776  0.00  0.00    +0.000 A 
ENDBRANCH   9  12
ENDBRANCH   7  10
ENDBRANCH   1   7
BRANCH   4  18
ATOM     18  C   UNL     1      47.515   5.202  14.740  0.00  0.00    +0.000 C 
BRANCH  18  19
ATOM     19  N   UNL     1      48.120   6.512  14.854  0.00  0.00    +0.000 N 
ATOM     20  C   UNL     1      48.700   6.962  16.014  0.00  0.00    +0.000 C 
ATOM     21  O   UNL     1      48.753   6.275  17.031  0.00  0.00    +0.000 OA
ATOM     22  H   UNL     1      47.956   7.166  14.096  0.00  0.00    +0.000 HD
BRANCH  20  23
ATOM     23  C   UNL     1      49.321   8.292  15.960  0.00  0.00    +0.000 A 
ATOM     24  C   UNL     1      48.516   9.423  15.930  0.00  0.00    +0.000 A 
ATOM     25  S   UNL     1      49.389  10.887  15.916  0.00  0.00    +0.000 S 
ATOM     26  C   UNL     1      50.878  10.061  15.897  0.00  0.00    +0.000 A 
ATOM     27  N   UNL     1      52.055  10.739  15.856  0.00  0.00    +0.000 NA
ATOM     28  C   UNL     1      53.103   9.990  15.807  0.00  0.00    +0.000 A 
ATOM     29  N   UNL     1      53.085   8.621  15.801  0.00  0.00    +0.000 N 
ATOM     30  C   UNL     1      51.919   7.890  15.888  0.00  0.00    +0.000 A 
ATOM     31  O   UNL     1      51.940   6.664  15.963  0.00  0.00    +0.000 OA
ATOM     32  C   UNL     1      50.710   8.687  15.920  0.00  0.00    +0.000 A 
ATOM     33  H   UNL     1      53.942   8.090  15.780  0.00  0.00    +0.000 HD
ENDBRANCH  20  23
ENDBRANCH  18  19
ENDBRANCH   4  18
TORSDOF 6
ENDMDL
MODEL 5
REMARK VINA RESULT:    -6.885      1.913      2.421
REMARK INTER + INTRA:         -10.464
REMARK INTER:                  -9.490
REMARK INTRA:                  -0.974
REMARK UNBOUND:                -1.163
REMARK  Name = 
REMARK  6 active torsions:
REMARK  status: ('A' for Active; 'I' for Inactive)
REMARK    1  A    between atoms: C_2  and  C_25
REMARK    2  A    between atoms: N_3  and  C_4
REMARK    3  A    between atoms: C_4  and  C_5
REMARK    4  A    between atoms: C_8  and  C_9
REMARK    5  A    between atoms: C_9  and  N_10
REMARK    6  A    between atoms: C_11  and  C_13
REMARK                            x       y       z     vdW  Elec       q    Type
REMARK                         _______ _______ _______ _____ _____    ______ ____
ROOT
ATOM      1  C   UNL     1      45.754   5.942  12.041  0.00  0.00    +0.000 C 
ATOM      2  C   UNL     1      46.743   6.625  11.082  0.00  0.00    +0.000 C 
ATOM      3  C   UNL     1      47.776   7.475  11.823  0.00  0.00    +0.000 C 
ATOM      4  C   UNL     1      48.536   6.664  12.883  0.00  0.00    +0.000 C 
ATOM      5  C   UNL     1      47.544   5.990  13.844  0.00  0.00    +0.000 C 
ATOM      6  C   UNL     1      46.513   5.138  13.106  0.00  0.00    +0.000 C 
ENDROOT
BRANCH   1   7
ATOM      7  C   UNL     1      44.784   5.019  11.284  0.00  0.00    +0.000 C 
BRANCH   7  10
ATOM      8  O   UNL     1      44.042   4.427   8.608  0.00  0.00    +0.000 OA
ATOM      9  C   UNL     1      45.023   3.889   9.098  0.00  0.00    +0.000 C 
ATOM     10  N   UNL     1      45.464   4.106  10.387  0.00  0.00    +0.000 N 
ATOM     11  H   UNL     1      46.386   3.793  10.653  0.00  0.00    +0.000 HD
BRANCH   9  12
ATOM     12  C   UNL     1      45.845   2.963   8.289  0.00  0.00    +0.000 A 
ATOM     13  C   UNL     1      45.847   1.580   8.491  0.00  0.00    +0.000 A 
ATOM     14  C   UNL     1      46.655   0.775   7.692  0.00  0.00    +0.000 A 
ATOM     15  C   UNL     1      47.429   1.383   6.716  0.00  0.00    +0.000 A 
ATOM     16  N   UNL     1      47.439   2.715   6.485  0.00  0.00    +0.000 NA
ATOM     17  C   UNL     1      46.636   3.476   7.270  0.00  0.00    +0.000 A 
ENDBRANCH   9  12
ENDBRANCH   7  10
ENDBRANCH   1   7
BRANCH   4  18
ATOM     18  C   UNL     1      49.520   7.540  13.683  0.00  0.00    +0.000 C 
BRANCH  18  19
ATOM     19  N   UNL     1      49.148   7.691  15.073  0.00  0.00    +0.000 N 
ATOM     20  C   UNL     1      50.053   7.578  16.099  0.00  0.00    +0.000 C 
ATOM     21  O   UNL     1      51.244   7.351  15.902  0.00  0.00    +0.000 OA
ATOM     22  H   UNL     1      48.157   7.718  15.288  0.00  0.00    +0.000 HD
BRANCH  20  23
ATOM     23  C   UNL     1      49.537   7.813  17.455  0.00  0.00    +0.000 A 
ATOM     24  C   UNL     1      49.889   8.974  18.129  0.00  0.00    +0.000 A 
ATOM     25  S   UNL     1      49.172   9.117  19.669  0.00  0.00    +0.000 S 
ATOM     26  C   UNL     1      48.405   7.605  19.511  0.00  0.00    +0.000 A 
ATOM     27  N   UNL     1      47.636   7.102  20.512  0.00  0.00    +0.000 NA
ATOM     28  C   UNL     1      47.147   5.932  20.276  0.00  0.00    +0.000 A 
ATOM     29  N   UNL     1      47.353   5.218  19.126  0.00  0.00    +0.000 N 
ATOM     30  C   UNL     1      48.087   5.706  18.066  0.00  0.00    +0.000 A 
ATOM     31  O   UNL     1      48.186   5.075  17.015  0.00  0.00    +0.000 OA
ATOM     32  C   UNL     1      48.679   7.008  18.293  0.00  0.00    +0.000 A 
ATOM     33  H   UNL     1      46.928   4.313  18.993  0.00  0.00    +0.000 HD
ENDBRANCH  20  23
ENDBRANCH  18  19
ENDBRANCH   4  18
TORSDOF 6
ENDMDL
MODEL 6
REMARK VINA RESULT:    -6.799      2.437      3.434
REMARK INTER + INTRA:         -10.346
REMARK INTER:                  -9.601
REMARK INTRA:                  -0.745
REMARK UNBOUND:                -1.163
REMARK  Name = 
REMARK  6 active torsions:
REMARK  status: ('A' for Active; 'I' for Inactive)
REMARK    1  A    between atoms: C_2  and  C_25
REMARK    2  A    between atoms: N_3  and  C_4
REMARK    3  A    between atoms: C_4  and  C_5
REMARK    4  A    between atoms: C_8  and  C_9
REMARK    5  A    between atoms: C_9  and  N_10
REMARK    6  A    between atoms: C_11  and  C_13
REMARK                            x       y       z     vdW  Elec       q    Type
REMARK                         _______ _______ _______ _____ _____    ______ ____
ROOT
ATOM      1  C   UNL     1      45.558   6.068  11.802  0.00  0.00    +0.000 C 
ATOM      2  C   UNL     1      47.023   6.366  12.161  0.00  0.00    +0.000 C 
ATOM      3  C   UNL     1      47.321   6.113  13.639  0.00  0.00    +0.000 C 
ATOM      4  C   UNL     1      46.948   4.686  14.067  0.00  0.00    +0.000 C 
ATOM      5  C   UNL     1      45.481   4.395  13.713  0.00  0.00    +0.000 C 
ATOM      6  C   UNL     1      45.182   4.643  12.237  0.00  0.00    +0.000 C 
ENDROOT
BRANCH   1   7
ATOM      7  C   UNL     1      45.303   6.237  10.294  0.00  0.00    +0.000 C 
BRANCH   7  10
ATOM      8  O   UNL     1      43.878   4.260   8.837  0.00  0.00    +0.000 OA
ATOM      9  C   UNL     1      45.099   4.255   8.828  0.00  0.00    +0.000 C 
ATOM     10  N   UNL     1      45.882   5.168   9.505  0.00  0.00    +0.000 N 
ATOM     11  H   UNL     1      46.866   5.231   9.289  0.00  0.00    +0.000 HD
BRANCH   9  12
ATOM     12  C   UNL     1      45.834   3.250   8.032  0.00  0.00    +0.000 A 
ATOM     13  C   UNL     1      46.447   3.551   6.812  0.00  0.00    +0.000 A 
ATOM     14  C   UNL     1      47.115   2.546   6.118  0.00  0.00    +0.000 A 
ATOM     15  C   UNL     1      47.151   1.276   6.671  0.00  0.00    +0.000 A 
ATOM     16  N   UNL     1      46.583   0.955   7.855  0.00  0.00    +0.000 NA
ATOM     17  C   UNL     1      45.946   1.954   8.517  0.00  0.00    +0.000 A 
ENDBRANCH   9  12
ENDBRANCH   7  10
ENDBRANCH   1   7
BRANCH   4  18
ATOM     18  C   UNL     1      47.174   4.458  15.574  0.00  0.00    +0.000 C 
BRANCH  18  19
ATOM     19  N   UNL     1      48.054   5.438  16.173  0.00  0.00    +0.000 N 
ATOM     20  C   UNL     1      48.154   5.614  17.531  0.00  0.00    +0.000 C 
ATOM     21  O   UNL     1      47.506   4.940  18.329  0.00  0.00    +0.000 OA
ATOM     22  H   UNL     1      48.481   6.118  15.553  0.00  0.00    +0.000 HD
BRANCH  20  23
ATOM     23  C   UNL     1      49.131   6.609  17.992  0.00  0.00    +0.000 A 
ATOM     24  C   UNL     1      48.757   7.943  18.085  0.00  0.00    +0.000 A 
ATOM     25  S   UNL     1      49.989   8.960  18.679  0.00  0.00    +0.000 S 
ATOM     26  C   UNL     1      51.085   7.662  18.784  0.00  0.00    +0.000 A 
ATOM     27  N   UNL     1      52.362   7.855  19.207  0.00  0.00    +0.000 NA
ATOM     28  C   UNL     1      53.094   6.794  19.202  0.00  0.00    +0.000 A 
ATOM     29  N   UNL     1      52.667   5.552  18.815  0.00  0.00    +0.000 N 
ATOM     30  C   UNL     1      51.370   5.298  18.423  0.00  0.00    +0.000 A 
ATOM     31  O   UNL     1      50.995   4.157  18.161  0.00  0.00    +0.000 OA
ATOM     32  C   UNL     1      50.513   6.465  18.388  0.00  0.00    +0.000 A 
ATOM     33  H   UNL     1      53.285   4.756  18.851  0.00  0.00    +0.000 HD
ENDBRANCH  20  23
ENDBRANCH  18  19
ENDBRANCH   4  18
TORSDOF 6
ENDMDL
MODEL 7
REMARK VINA RESULT:    -6.739      2.569      3.623
REMARK INTER + INTRA:         -10.266
REMARK INTER:                  -9.507
REMARK INTRA:                  -0.758
REMARK UNBOUND:                -1.163
REMARK  Name = 
REMARK  6 active torsions:
REMARK  status: ('A' for Active; 'I' for Inactive)
REMARK    1  A    between atoms: C_2  and  C_25
REMARK    2  A    between atoms: N_3  and  C_4
REMARK    3  A    between atoms: C_4  and  C_5
REMARK    4  A    between atoms: C_8  and  C_9
REMARK    5  A    between atoms: C_9  and  N_10
REMARK    6  A    between atoms: C_11  and  C_13
REMARK                            x       y       z     vdW  Elec       q    Type
REMARK                         _______ _______ _______ _____ _____    ______ ____
ROOT
ATOM      1  C   UNL     1      45.588   6.032  11.879  0.00  0.00    +0.000 C 
ATOM      2  C   UNL     1      47.047   6.367  12.228  0.00  0.00    +0.000 C 
ATOM      3  C   UNL     1      47.356   6.144  13.709  0.00  0.00    +0.000 C 
ATOM      4  C   UNL     1      47.015   4.715  14.159  0.00  0.00    +0.000 C 
ATOM      5  C   UNL     1      45.554   4.387  13.816  0.00  0.00    +0.000 C 
ATOM      6  C   UNL     1      45.244   4.607  12.337  0.00  0.00    +0.000 C 
ENDROOT
BRANCH   1   7
ATOM      7  C   UNL     1      45.323   6.173  10.371  0.00  0.00    +0.000 C 
BRANCH   7  10
ATOM      8  O   UNL     1      43.888   4.248   8.857  0.00  0.00    +0.000 OA
ATOM      9  C   UNL     1      45.107   4.203   8.891  0.00  0.00    +0.000 C 
ATOM     10  N   UNL     1      45.895   5.088   9.598  0.00  0.00    +0.000 N 
ATOM     11  H   UNL     1      46.888   5.119   9.417  0.00  0.00    +0.000 HD
BRANCH   9  12
ATOM     12  C   UNL     1      45.837   3.176   8.117  0.00  0.00    +0.000 A 
ATOM     13  C   UNL     1      46.523   3.466   6.934  0.00  0.00    +0.000 A 
ATOM     14  C   UNL     1      47.180   2.441   6.259  0.00  0.00    +0.000 A 
ATOM     15  C   UNL     1      47.133   1.163   6.795  0.00  0.00    +0.000 A 
ATOM     16  N   UNL     1      46.491   0.852   7.944  0.00  0.00    +0.000 NA
ATOM     17  C   UNL     1      45.867   1.871   8.588  0.00  0.00    +0.000 A 
ENDBRANCH   9  12
ENDBRANCH   7  10
ENDBRANCH   1   7
BRANCH   4  18
ATOM     18  C   UNL     1      47.252   4.514  15.669  0.00  0.00    +0.000 C 
BRANCH  18  19
ATOM     19  N   UNL     1      48.237   5.422  16.217  0.00  0.00    +0.000 N 
ATOM     20  C   UNL     1      48.384   5.630  17.566  0.00  0.00    +0.000 C 
ATOM     21  O   UNL     1      47.693   5.048  18.399  0.00  0.00    +0.000 OA
ATOM     22  H   UNL     1      48.713   6.038  15.566  0.00  0.00    +0.000 HD
BRANCH  20  23
ATOM     23  C   UNL     1      49.464   6.538  17.974  0.00  0.00    +0.000 A 
ATOM     24  C   UNL     1      50.785   6.177  17.744  0.00  0.00    +0.000 A 
ATOM     25  S   UNL     1      51.913   7.359  18.231  0.00  0.00    +0.000 S 
ATOM     26  C   UNL     1      50.678   8.375  18.815  0.00  0.00    +0.000 A 
ATOM     27  N   UNL     1      50.969   9.567  19.397  0.00  0.00    +0.000 NA
ATOM     28  C   UNL     1      49.943  10.217  19.828  0.00  0.00    +0.000 A 
ATOM     29  N   UNL     1      48.647   9.787  19.727  0.00  0.00    +0.000 N 
ATOM     30  C   UNL     1      48.299   8.607  19.104  0.00  0.00    +0.000 A 
ATOM     31  O   UNL     1      47.122   8.288  18.956  0.00  0.00    +0.000 OA
ATOM     32  C   UNL     1      49.421   7.827  18.624  0.00  0.00    +0.000 A 
ATOM     33  H   UNL     1      47.884  10.351  20.068  0.00  0.00    +0.000 HD
ENDBRANCH  20  23
ENDBRANCH  18  19
ENDBRANCH   4  18
TORSDOF 6
ENDMDL
MODEL 8
REMARK VINA RESULT:    -6.691      3.415      8.668
REMARK INTER + INTRA:         -10.201
REMARK INTER:                  -9.260
REMARK INTRA:                  -0.940
REMARK UNBOUND:                -1.163
REMARK  Name = 
REMARK  6 active torsions:
REMARK  status: ('A' for Active; 'I' for Inactive)
REMARK    1  A    between atoms: C_2  and  C_25
REMARK    2  A    between atoms: N_3  and  C_4
REMARK    3  A    between atoms: C_4  and  C_5
REMARK    4  A    between atoms: C_8  and  C_9
REMARK    5  A    between atoms: C_9  and  N_10
REMARK    6  A    between atoms: C_11  and  C_13
REMARK                            x       y       z     vdW  Elec       q    Type
REMARK                         _______ _______ _______ _____ _____    ______ ____
ROOT
ATOM      1  C   UNL     1      50.138   7.098  15.049  0.00  0.00    +0.000 C 
ATOM      2  C   UNL     1      50.163   8.468  14.353  0.00  0.00    +0.000 C 
ATOM      3  C   UNL     1      49.323   8.485  13.075  0.00  0.00    +0.000 C 
ATOM      4  C   UNL     1      47.874   8.045  13.332  0.00  0.00    +0.000 C 
ATOM      5  C   UNL     1      47.854   6.671  14.021  0.00  0.00    +0.000 C 
ATOM      6  C   UNL     1      48.690   6.653  15.299  0.00  0.00    +0.000 C 
ENDROOT
BRANCH   1   7
ATOM      7  C   UNL     1      50.911   7.128  16.379  0.00  0.00    +0.000 C 
BRANCH   7  10
ATOM      8  O   UNL     1      49.929   5.177  18.193  0.00  0.00    +0.000 OA
ATOM      9  C   UNL     1      50.972   4.973  17.592  0.00  0.00    +0.000 C 
ATOM     10  N   UNL     1      51.534   5.857  16.693  0.00  0.00    +0.000 N 
ATOM     11  H   UNL     1      52.276   5.540  16.087  0.00  0.00    +0.000 HD
BRANCH   9  12
ATOM     12  C   UNL     1      51.702   3.700  17.777  0.00  0.00    +0.000 A 
ATOM     13  C   UNL     1      51.180   2.465  17.382  0.00  0.00    +0.000 A 
ATOM     14  C   UNL     1      51.927   1.310  17.598  0.00  0.00    +0.000 A 
ATOM     15  C   UNL     1      53.171   1.432  18.195  0.00  0.00    +0.000 A 
ATOM     16  N   UNL     1      53.711   2.612  18.574  0.00  0.00    +0.000 NA
ATOM     17  C   UNL     1      52.968   3.725  18.344  0.00  0.00    +0.000 A 
ENDBRANCH   9  12
ENDBRANCH   7  10
ENDBRANCH   1   7
BRANCH   4  18
ATOM     18  C   UNL     1      47.050   7.986  12.031  0.00  0.00    +0.000 C 
BRANCH  18  19
ATOM     19  N   UNL     1      46.436   6.695  11.803  0.00  0.00    +0.000 N 
ATOM     20  C   UNL     1      45.090   6.544  11.578  0.00  0.00    +0.000 C 
ATOM     21  O   UNL     1      44.319   7.499  11.545  0.00  0.00    +0.000 OA
ATOM     22  H   UNL     1      47.004   5.874  11.981  0.00  0.00    +0.000 HD
BRANCH  20  23
ATOM     23  C   UNL     1      44.622   5.178  11.308  0.00  0.00    +0.000 A 
ATOM     24  C   UNL     1      43.843   4.523  12.252  0.00  0.00    +0.000 A 
ATOM     25  S   UNL     1      43.343   2.966  11.767  0.00  0.00    +0.000 S 
ATOM     26  C   UNL     1      44.195   3.091  10.298  0.00  0.00    +0.000 A 
ATOM     27  N   UNL     1      44.206   2.067   9.406  0.00  0.00    +0.000 NA
ATOM     28  C   UNL     1      44.921   2.281   8.355  0.00  0.00    +0.000 A 
ATOM     29  N   UNL     1      45.626   3.429   8.109  0.00  0.00    +0.000 N 
ATOM     30  C   UNL     1      45.607   4.512   8.963  0.00  0.00    +0.000 A 
ATOM     31  O   UNL     1      46.183   5.559   8.675  0.00  0.00    +0.000 OA
ATOM     32  C   UNL     1      44.837   4.311  10.172  0.00  0.00    +0.000 A 
ATOM     33  H   UNL     1      46.153   3.543   7.257  0.00  0.00    +0.000 HD
ENDBRANCH  20  23
ENDBRANCH  18  19
ENDBRANCH   4  18
TORSDOF 6
ENDMDL
MODEL 9
REMARK VINA RESULT:    -6.605      4.760      7.203
REMARK INTER + INTRA:         -10.085
REMARK INTER:                  -9.201
REMARK INTRA:                  -0.884
REMARK UNBOUND:                -1.163
REMARK  Name = 
REMARK  6 active torsions:
REMARK  status: ('A' for Active; 'I' for Inactive)
REMARK    1  A    between atoms: C_2  and  C_25
REMARK    2  A    between atoms: N_3  and  C_4
REMARK    3  A    between atoms: C_4  and  C_5
REMARK    4  A    between atoms: C_8  and  C_9
REMARK    5  A    between atoms: C_9  and  N_10
REMARK    6  A    between atoms: C_11  and  C_13
REMARK                            x       y       z     vdW  Elec       q    Type
REMARK                         _______ _______ _______ _____ _____    ______ ____
ROOT
ATOM      1  C   UNL     1      50.057   8.081  11.390  0.00  0.00    +0.000 C 
ATOM      2  C   UNL     1      49.382   9.442  11.622  0.00  0.00    +0.000 C 
ATOM      3  C   UNL     1      47.886   9.307  11.906  0.00  0.00    +0.000 C 
ATOM      4  C   UNL     1      47.606   8.366  13.088  0.00  0.00    +0.000 C 
ATOM      5  C   UNL     1      48.276   7.004  12.848  0.00  0.00    +0.000 C 
ATOM      6  C   UNL     1      49.771   7.137  12.567  0.00  0.00    +0.000 C 
ENDROOT
BRANCH   1   7
ATOM      7  C   UNL     1      51.576   8.232  11.200  0.00  0.00    +0.000 C 
BRANCH   7  10
ATOM      8  O   UNL     1      53.371   8.607   9.032  0.00  0.00    +0.000 OA
ATOM      9  C   UNL     1      53.011   7.480   9.331  0.00  0.00    +0.000 C 
ATOM     10  N   UNL     1      52.141   7.192  10.363  0.00  0.00    +0.000 N 
ATOM     11  H   UNL     1      52.051   6.238  10.681  0.00  0.00    +0.000 HD
BRANCH   9  12
ATOM     12  C   UNL     1      53.537   6.310   8.594  0.00  0.00    +0.000 A 
ATOM     13  C   UNL     1      52.948   5.828   7.421  0.00  0.00    +0.000 A 
ATOM     14  C   UNL     1      53.499   4.717   6.790  0.00  0.00    +0.000 A 
ATOM     15  C   UNL     1      54.623   4.130   7.350  0.00  0.00    +0.000 A 
ATOM     16  N   UNL     1      55.225   4.580   8.474  0.00  0.00    +0.000 NA
ATOM     17  C   UNL     1      54.675   5.671   9.066  0.00  0.00    +0.000 A 
ENDBRANCH   9  12
ENDBRANCH   7  10
ENDBRANCH   1   7
BRANCH   4  18
ATOM     18  C   UNL     1      46.096   8.167  13.322  0.00  0.00    +0.000 C 
BRANCH  18  19
ATOM     19  N   UNL     1      45.627   6.853  12.938  0.00  0.00    +0.000 N 
ATOM     20  C   UNL     1      44.827   6.643  11.842  0.00  0.00    +0.000 C 
ATOM     21  O   UNL     1      44.465   7.559  11.108  0.00  0.00    +0.000 OA
ATOM     22  H   UNL     1      45.767   6.099  13.601  0.00  0.00    +0.000 HD
BRANCH  20  23
ATOM     23  C   UNL     1      44.477   5.247  11.547  0.00  0.00    +0.000 A 
ATOM     24  C   UNL     1      43.727   4.522  12.464  0.00  0.00    +0.000 A 
ATOM     25  S   UNL     1      43.366   2.936  11.952  0.00  0.00    +0.000 S 
ATOM     26  C   UNL     1      44.244   3.144  10.508  0.00  0.00    +0.000 A 
ATOM     27  N   UNL     1      44.360   2.134   9.607  0.00  0.00    +0.000 NA
ATOM     28  C   UNL     1      45.083   2.416   8.577  0.00  0.00    +0.000 A 
ATOM     29  N   UNL     1      45.700   3.619   8.361  0.00  0.00    +0.000 N 
ATOM     30  C   UNL     1      45.573   4.688   9.223  0.00  0.00    +0.000 A 
ATOM     31  O   UNL     1      46.071   5.780   8.961  0.00  0.00    +0.000 OA
ATOM     32  C   UNL     1      44.789   4.413  10.410  0.00  0.00    +0.000 A 
ATOM     33  H   UNL     1      46.238   3.784   7.525  0.00  0.00    +0.000 HD
ENDBRANCH  20  23
ENDBRANCH  18  19
ENDBRANCH   4  18
TORSDOF 6
ENDMDL
