MODEL 1
REMARK VINA RESULT:    -7.133      0.000      0.000
REMARK INTER + INTRA:         -10.323
REMARK INTER:                  -9.427
REMARK INTRA:                  -0.896
REMARK UNBOUND:                -0.896
REMARK  Name = 
REMARK  6 active torsions:
REMARK  status: ('A' for Active; 'I' for Inactive)
REMARK    1  A    between atoms: N_1  and  C_2
REMARK    2  A    between atoms: C_2  and  C_3
REMARK    3  A    between atoms: C_6  and  N_7
REMARK    4  A    between atoms: C_11  and  C_12
REMARK    5  A    between atoms: C_12  and  N_13
REMARK    6  A    between atoms: C_14  and  C_16
REMARK                            x       y       z     vdW  Elec       q    Type
REMARK                         _______ _______ _______ _____ _____    ______ ____
ROOT
ATOM      1  N   UNL     1      51.616   2.344  18.249  0.00  0.00    +0.000 N 
ATOM      2  C   UNL     1      51.008   3.513  17.761  0.00  0.00    +0.000 A 
ATOM      3  C   UNL     1      49.622   3.529  17.644  0.00  0.00    +0.000 A 
ATOM      4  C   UNL     1      48.984   4.663  17.137  0.00  0.00    +0.000 A 
ATOM      5  C   UNL     1      49.737   5.793  16.825  0.00  0.00    +0.000 A 
ATOM      6  C   UNL     1      51.111   5.700  17.011  0.00  0.00    +0.000 A 
ATOM      7  N   UNL     1      51.753   4.595  17.464  0.00  0.00    +0.000 NA
ATOM      8  H   UNL     1      51.545   2.385  19.264  0.00  0.00    +0.000 HD
ENDROOT
BRANCH   1  12
ATOM      9  C   UNL     1      55.269   0.141  18.319  0.00  0.00    +0.000 C 
ATOM     10  C   UNL     1      54.502   0.173  16.995  0.00  0.00    +0.000 C 
ATOM     11  C   UNL     1      53.077   0.681  17.169  0.00  0.00    +0.000 C 
ATOM     12  C   UNL     1      52.996   2.084  17.800  0.00  0.00    +0.000 C 
ATOM     13  C   UNL     1      53.918   2.218  19.035  0.00  0.00    +0.000 C 
ATOM     14  C   UNL     1      55.296   1.565  18.894  0.00  0.00    +0.000 C 
BRANCH   9  15
ATOM     15  C   UNL     1      54.724  -0.893  19.332  0.00  0.00    +0.000 C 
BRANCH  15  16
ATOM     16  N   UNL     1      55.098  -0.602  20.716  0.00  0.00    +0.000 NA
ATOM     17  H   UNL     1      55.771  -1.291  21.049  0.00  0.00    +0.000 HD
ATOM     18  H   UNL     1      55.564   0.303  20.771  0.00  0.00    +0.000 HD
ENDBRANCH  15  16
ENDBRANCH   9  15
ENDBRANCH   1  12
BRANCH   5  19
ATOM     19  C   UNL     1      49.099   7.052  16.317  0.00  0.00    +0.000 C 
BRANCH  19  20
ATOM     20  N   UNL     1      47.992   6.798  15.425  0.00  0.00    +0.000 N 
ATOM     21  C   UNL     1      48.207   6.674  14.076  0.00  0.00    +0.000 C 
ATOM     22  O   UNL     1      49.337   6.725  13.593  0.00  0.00    +0.000 OA
ATOM     23  H   UNL     1      47.053   6.996  15.763  0.00  0.00    +0.000 HD
BRANCH  21  24
ATOM     24  C   UNL     1      47.033   6.424  13.226  0.00  0.00    +0.000 A 
ATOM     25  C   UNL     1      46.389   7.490  12.612  0.00  0.00    +0.000 A 
ATOM     26  S   UNL     1      45.054   7.032  11.656  0.00  0.00    +0.000 S 
ATOM     27  C   UNL     1      45.262   5.392  12.060  0.00  0.00    +0.000 A 
ATOM     28  N   UNL     1      44.406   4.445  11.592  0.00  0.00    +0.000 NA
ATOM     29  C   UNL     1      44.665   3.247  11.998  0.00  0.00    +0.000 A 
ATOM     30  N   UNL     1      45.710   2.910  12.823  0.00  0.00    +0.000 N 
ATOM     31  C   UNL     1      46.615   3.830  13.295  0.00  0.00    +0.000 A 
ATOM     32  O   UNL     1      47.571   3.493  13.991  0.00  0.00    +0.000 OA
ATOM     33  C   UNL     1      46.355   5.195  12.889  0.00  0.00    +0.000 A 
ATOM     34  H   UNL     1      45.862   1.951  13.092  0.00  0.00    +0.000 HD
ENDBRANCH  21  24
ENDBRANCH  19  20
ENDBRANCH   5  19
TORSDOF 6
ENDMDL
MODEL 2
REMARK VINA RESULT:    -7.061      3.369      9.468
REMARK INTER + INTRA:         -10.228
REMARK INTER:                  -9.240
REMARK INTRA:                  -0.988
REMARK UNBOUND:                -0.896
REMARK  Name = 
REMARK  6 active torsions:
REMARK  status: ('A' for Active; 'I' for Inactive)
REMARK    1  A    between atoms: N_1  and  C_2
REMARK    2  A    between atoms: C_2  and  C_3
REMARK    3  A    between atoms: C_6  and  N_7
REMARK    4  A    between atoms: C_11  and  C_12
REMARK    5  A    between atoms: C_12  and  N_13
REMARK    6  A    between atoms: C_14  and  C_16
REMARK                            x       y       z     vdW  Elec       q    Type
REMARK                         _______ _______ _______ _____ _____    ______ ____
ROOT
ATOM      1  N   UNL     1      46.726   3.990  14.313  0.00  0.00    +0.000 N 
ATOM      2  C   UNL     1      47.428   4.211  15.510  0.00  0.00    +0.000 A 
ATOM      3  C   UNL     1      47.541   3.153  16.407  0.00  0.00    +0.000 A 
ATOM      4  C   UNL     1      48.207   3.343  17.619  0.00  0.00    +0.000 A 
ATOM      5  C   UNL     1      48.815   4.567  17.885  0.00  0.00    +0.000 A 
ATOM      6  C   UNL     1      48.684   5.554  16.915  0.00  0.00    +0.000 A 
ATOM      7  N   UNL     1      48.008   5.402  15.750  0.00  0.00    +0.000 NA
ATOM      8  H   UNL     1      47.380   3.539  13.676  0.00  0.00    +0.000 HD
ENDROOT
BRANCH   1  12
ATOM      9  C   UNL     1      44.966   6.064  11.026  0.00  0.00    +0.000 C 
ATOM     10  C   UNL     1      44.074   5.802  12.242  0.00  0.00    +0.000 C 
ATOM     11  C   UNL     1      44.680   4.777  13.190  0.00  0.00    +0.000 C 
ATOM     12  C   UNL     1      46.080   5.167  13.703  0.00  0.00    +0.000 C 
ATOM     13  C   UNL     1      46.999   5.660  12.562  0.00  0.00    +0.000 C 
ATOM     14  C   UNL     1      46.327   6.570  11.530  0.00  0.00    +0.000 C 
BRANCH   9  15
ATOM     15  C   UNL     1      45.103   4.850  10.079  0.00  0.00    +0.000 C 
BRANCH  15  16
ATOM     16  N   UNL     1      45.675   5.193   8.776  0.00  0.00    +0.000 NA
ATOM     17  H   UNL     1      45.008   4.983   8.035  0.00  0.00    +0.000 HD
ATOM     18  H   UNL     1      45.855   6.195   8.724  0.00  0.00    +0.000 HD
ENDBRANCH  15  16
ENDBRANCH   9  15
ENDBRANCH   1  12
BRANCH   5  19
ATOM     19  C   UNL     1      49.580   4.812  19.153  0.00  0.00    +0.000 C 
BRANCH  19  20
ATOM     20  N   UNL     1      50.740   3.962  19.279  0.00  0.00    +0.000 N 
ATOM     21  C   UNL     1      51.956   4.378  18.800  0.00  0.00    +0.000 C 
ATOM     22  O   UNL     1      52.109   5.491  18.300  0.00  0.00    +0.000 OA
ATOM     23  H   UNL     1      50.587   2.972  19.458  0.00  0.00    +0.000 HD
BRANCH  21  24
ATOM     24  C   UNL     1      53.093   3.458  18.956  0.00  0.00    +0.000 A 
ATOM     25  C   UNL     1      54.220   3.870  19.655  0.00  0.00    +0.000 A 
ATOM     26  S   UNL     1      55.442   2.685  19.752  0.00  0.00    +0.000 S 
ATOM     27  C   UNL     1      54.525   1.589  18.829  0.00  0.00    +0.000 A 
ATOM     28  N   UNL     1      55.022   0.365  18.505  0.00  0.00    +0.000 NA
ATOM     29  C   UNL     1      54.232  -0.354  17.779  0.00  0.00    +0.000 A 
ATOM     30  N   UNL     1      52.986   0.039  17.355  0.00  0.00    +0.000 N 
ATOM     31  C   UNL     1      52.435   1.255  17.683  0.00  0.00    +0.000 A 
ATOM     32  O   UNL     1      51.296   1.560  17.332  0.00  0.00    +0.000 OA
ATOM     33  C   UNL     1      53.291   2.110  18.477  0.00  0.00    +0.000 A 
ATOM     34  H   UNL     1      52.415  -0.578  16.799  0.00  0.00    +0.000 HD
ENDBRANCH  21  24
ENDBRANCH  19  20
ENDBRANCH   5  19
TORSDOF 6
ENDMDL
MODEL 3
REMARK VINA RESULT:    -6.957      4.144      5.505
REMARK INTER + INTRA:         -10.091
REMARK INTER:                  -9.958
REMARK INTRA:                  -0.133
REMARK UNBOUND:                -0.896
REMARK  Name = 
REMARK  6 active torsions:
REMARK  status: ('A' for Active; 'I' for Inactive)
REMARK    1  A    between atoms: N_1  and  C_2
REMARK    2  A    between atoms: C_2  and  C_3
REMARK    3  A    between atoms: C_6  and  N_7
REMARK    4  A    between atoms: C_11  and  C_12
REMARK    5  A    between atoms: C_12  and  N_13
REMARK    6  A    between atoms: C_14  and  C_16
REMARK                            x       y       z     vdW  Elec       q    Type
REMARK                         _______ _______ _______ _____ _____    ______ ____
ROOT
ATOM      1  N   UNL     1      50.975   7.082  16.456  0.00  0.00    +0.000 N 
ATOM      2  C   UNL     1      50.087   7.229  15.378  0.00  0.00    +0.000 A 
ATOM      3  C   UNL     1      50.354   8.224  14.442  0.00  0.00    +0.000 A 
ATOM      4  C   UNL     1      49.479   8.419  13.371  0.00  0.00    +0.000 A 
ATOM      5  C   UNL     1      48.390   7.566  13.210  0.00  0.00    +0.000 A 
ATOM      6  C   UNL     1      48.224   6.576  14.171  0.00  0.00    +0.000 A 
ATOM      7  N   UNL     1      49.039   6.396  15.239  0.00  0.00    +0.000 NA
ATOM      8  H   UNL     1      51.757   6.528  16.112  0.00  0.00    +0.000 HD
ENDROOT
BRANCH   1  12
ATOM      9  C   UNL     1      48.067   4.835  18.625  0.00  0.00    +0.000 C 
ATOM     10  C   UNL     1      49.514   4.338  18.681  0.00  0.00    +0.000 C 
ATOM     11  C   UNL     1      50.388   4.991  17.619  0.00  0.00    +0.000 C 
ATOM     12  C   UNL     1      50.410   6.529  17.702  0.00  0.00    +0.000 C 
ATOM     13  C   UNL     1      48.992   7.122  17.869  0.00  0.00    +0.000 C 
ATOM     14  C   UNL     1      48.075   6.358  18.828  0.00  0.00    +0.000 C 
BRANCH   9  15
ATOM     15  C   UNL     1      47.312   4.417  17.343  0.00  0.00    +0.000 C 
BRANCH  15  16
ATOM     16  N   UNL     1      46.679   3.102  17.445  0.00  0.00    +0.000 NA
ATOM     17  H   UNL     1      45.888   3.143  18.087  0.00  0.00    +0.000 HD
ATOM     18  H   UNL     1      46.298   2.824  16.541  0.00  0.00    +0.000 HD
ENDBRANCH  15  16
ENDBRANCH   9  15
ENDBRANCH   1  12
BRANCH   5  19
ATOM     19  C   UNL     1      47.443   7.704  12.054  0.00  0.00    +0.000 C 
BRANCH  19  20
ATOM     20  N   UNL     1      46.780   6.463  11.725  0.00  0.00    +0.000 N 
ATOM     21  C   UNL     1      45.411   6.382  11.758  0.00  0.00    +0.000 C 
ATOM     22  O   UNL     1      44.711   7.359  12.018  0.00  0.00    +0.000 OA
ATOM     23  H   UNL     1      47.331   5.608  11.750  0.00  0.00    +0.000 HD
BRANCH  21  24
ATOM     24  C   UNL     1      44.805   5.086  11.418  0.00  0.00    +0.000 A 
ATOM     25  C   UNL     1      44.039   4.417  12.364  0.00  0.00    +0.000 A 
ATOM     26  S   UNL     1      43.401   2.936  11.811  0.00  0.00    +0.000 S 
ATOM     27  C   UNL     1      44.159   3.114  10.298  0.00  0.00    +0.000 A 
ATOM     28  N   UNL     1      44.047   2.151   9.345  0.00  0.00    +0.000 NA
ATOM     29  C   UNL     1      44.693   2.403   8.256  0.00  0.00    +0.000 A 
ATOM     30  N   UNL     1      45.435   3.538   8.032  0.00  0.00    +0.000 N 
ATOM     31  C   UNL     1      45.551   4.548   8.957  0.00  0.00    +0.000 A 
ATOM     32  O   UNL     1      46.180   5.575   8.710  0.00  0.00    +0.000 OA
ATOM     33  C   UNL     1      44.864   4.303  10.206  0.00  0.00    +0.000 A 
ATOM     34  H   UNL     1      45.906   3.677   7.152  0.00  0.00    +0.000 HD
ENDBRANCH  21  24
ENDBRANCH  19  20
ENDBRANCH   5  19
TORSDOF 6
ENDMDL
MODEL 4
REMARK VINA RESULT:    -6.851      3.803      5.082
REMARK INTER + INTRA:          -9.951
REMARK INTER:                  -9.454
REMARK INTRA:                  -0.497
REMARK UNBOUND:                -0.896
REMARK  Name = 
REMARK  6 active torsions:
REMARK  status: ('A' for Active; 'I' for Inactive)
REMARK    1  A    between atoms: N_1  and  C_2
REMARK    2  A    between atoms: C_2  and  C_3
REMARK    3  A    between atoms: C_6  and  N_7
REMARK    4  A    between atoms: C_11  and  C_12
REMARK    5  A    between atoms: C_12  and  N_13
REMARK    6  A    between atoms: C_14  and  C_16
REMARK                            x       y       z     vdW  Elec       q    Type
REMARK                         _______ _______ _______ _____ _____    ______ ____
ROOT
ATOM      1  N   UNL     1      50.469   6.912  17.133  0.00  0.00    +0.000 N 
ATOM      2  C   UNL     1      49.876   7.209  15.894  0.00  0.00    +0.000 A 
ATOM      3  C   UNL     1      50.033   8.495  15.386  0.00  0.00    +0.000 A 
ATOM      4  C   UNL     1      49.436   8.836  14.171  0.00  0.00    +0.000 A 
ATOM      5  C   UNL     1      48.752   7.864  13.445  0.00  0.00    +0.000 A 
ATOM      6  C   UNL     1      48.679   6.596  14.011  0.00  0.00    +0.000 A 
ATOM      7  N   UNL     1      49.218   6.256  15.208  0.00  0.00    +0.000 NA
ATOM      8  H   UNL     1      51.446   6.701  16.942  0.00  0.00    +0.000 HD
ENDROOT
BRANCH   1  12
ATOM      9  C   UNL     1      48.070   3.408  17.553  0.00  0.00    +0.000 C 
ATOM     10  C   UNL     1      49.526   3.314  18.015  0.00  0.00    +0.000 C 
ATOM     11  C   UNL     1      50.366   4.480  17.513  0.00  0.00    +0.000 C 
ATOM     12  C   UNL     1      49.821   5.857  17.936  0.00  0.00    +0.000 C 
ATOM     13  C   UNL     1      48.296   5.973  17.706  0.00  0.00    +0.000 C 
ATOM     14  C   UNL     1      47.484   4.728  18.076  0.00  0.00    +0.000 C 
BRANCH   9  15
ATOM     15  C   UNL     1      47.889   3.248  16.025  0.00  0.00    +0.000 C 
BRANCH  15  16
ATOM     16  N   UNL     1      46.731   3.972  15.500  0.00  0.00    +0.000 NA
ATOM     17  H   UNL     1      46.207   4.396  16.263  0.00  0.00    +0.000 HD
ATOM     18  H   UNL     1      47.038   4.739  14.902  0.00  0.00    +0.000 HD
ENDBRANCH  15  16
ENDBRANCH   9  15
ENDBRANCH   1  12
BRANCH   5  19
ATOM     19  C   UNL     1      48.127   8.164  12.114  0.00  0.00    +0.000 C 
BRANCH  19  20
ATOM     20  N   UNL     1      47.510   7.005  11.512  0.00  0.00    +0.000 N 
ATOM     21  C   UNL     1      46.144   6.929  11.404  0.00  0.00    +0.000 C 
ATOM     22  O   UNL     1      45.413   7.850  11.764  0.00  0.00    +0.000 OA
ATOM     23  H   UNL     1      48.063   6.155  11.439  0.00  0.00    +0.000 HD
BRANCH  21  24
ATOM     24  C   UNL     1      45.584   5.717  10.788  0.00  0.00    +0.000 A 
ATOM     25  C   UNL     1      45.748   5.500   9.426  0.00  0.00    +0.000 A 
ATOM     26  S   UNL     1      45.049   4.048   8.870  0.00  0.00    +0.000 S 
ATOM     27  C   UNL     1      44.465   3.674  10.424  0.00  0.00    +0.000 A 
ATOM     28  N   UNL     1      43.727   2.552  10.639  0.00  0.00    +0.000 NA
ATOM     29  C   UNL     1      43.327   2.405  11.858  0.00  0.00    +0.000 A 
ATOM     30  N   UNL     1      43.606   3.275  12.883  0.00  0.00    +0.000 N 
ATOM     31  C   UNL     1      44.371   4.404  12.715  0.00  0.00    +0.000 A 
ATOM     32  O   UNL     1      44.648   5.140  13.662  0.00  0.00    +0.000 OA
ATOM     33  C   UNL     1      44.825   4.629  11.360  0.00  0.00    +0.000 A 
ATOM     34  H   UNL     1      43.272   3.093  13.816  0.00  0.00    +0.000 HD
ENDBRANCH  21  24
ENDBRANCH  19  20
ENDBRANCH   5  19
TORSDOF 6
ENDMDL
MODEL 5
REMARK VINA RESULT:    -6.607      4.345      5.405
REMARK INTER + INTRA:          -9.628
REMARK INTER:                  -8.814
REMARK INTRA:                  -0.814
REMARK UNBOUND:                -0.896
REMARK  Name = 
REMARK  6 active torsions:
REMARK  status: ('A' for Active; 'I' for Inactive)
REMARK    1  A    between atoms: N_1  and  C_2
REMARK    2  A    between atoms: C_2  and  C_3
REMARK    3  A    between atoms: C_6  and  N_7
REMARK    4  A    between atoms: C_11  and  C_12
REMARK    5  A    between atoms: C_12  and  N_13
REMARK    6  A    between atoms: C_14  and  C_16
REMARK                            x       y       z     vdW  Elec       q    Type
REMARK                         _______ _______ _______ _____ _____    ______ ____
ROOT
ATOM      1  N   UNL     1      49.955   7.573  17.097  0.00  0.00    +0.000 N 
ATOM      2  C   UNL     1      49.324   7.615  15.841  0.00  0.00    +0.000 A 
ATOM      3  C   UNL     1      48.685   8.794  15.470  0.00  0.00    +0.000 A 
ATOM      4  C   UNL     1      48.024   8.866  14.243  0.00  0.00    +0.000 A 
ATOM      5  C   UNL     1      48.076   7.782  13.371  0.00  0.00    +0.000 A 
ATOM      6  C   UNL     1      48.770   6.660  13.808  0.00  0.00    +0.000 A 
ATOM      7  N   UNL     1      49.385   6.557  15.012  0.00  0.00    +0.000 NA
ATOM      8  H   UNL     1      50.865   8.011  16.976  0.00  0.00    +0.000 HD
ENDROOT
BRANCH   1  12
ATOM      9  C   UNL     1      49.231   4.845  20.297  0.00  0.00    +0.000 C 
ATOM     10  C   UNL     1      48.621   4.499  18.937  0.00  0.00    +0.000 C 
ATOM     11  C   UNL     1      48.645   5.681  17.978  0.00  0.00    +0.000 C 
ATOM     12  C   UNL     1      50.058   6.247  17.735  0.00  0.00    +0.000 C 
ATOM     13  C   UNL     1      50.844   6.429  19.054  0.00  0.00    +0.000 C 
ATOM     14  C   UNL     1      50.682   5.296  20.071  0.00  0.00    +0.000 C 
BRANCH   9  15
ATOM     15  C   UNL     1      48.412   5.879  21.104  0.00  0.00    +0.000 C 
BRANCH  15  16
ATOM     16  N   UNL     1      46.980   5.586  21.137  0.00  0.00    +0.000 NA
ATOM     17  H   UNL     1      46.823   4.639  21.481  0.00  0.00    +0.000 HD
ATOM     18  H   UNL     1      46.508   6.209  21.792  0.00  0.00    +0.000 HD
ENDBRANCH  15  16
ENDBRANCH   9  15
ENDBRANCH   1  12
BRANCH   5  19
ATOM     19  C   UNL     1      47.420   7.820  12.022  0.00  0.00    +0.000 C 
BRANCH  19  20
ATOM     20  N   UNL     1      46.774   6.574  11.678  0.00  0.00    +0.000 N 
ATOM     21  C   UNL     1      45.434   6.404  11.915  0.00  0.00    +0.000 C 
ATOM     22  O   UNL     1      44.737   7.307  12.373  0.00  0.00    +0.000 OA
ATOM     23  H   UNL     1      47.363   5.757  11.535  0.00  0.00    +0.000 HD
BRANCH  21  24
ATOM     24  C   UNL     1      44.844   5.107  11.548  0.00  0.00    +0.000 A 
ATOM     25  C   UNL     1      44.087   4.409  12.479  0.00  0.00    +0.000 A 
ATOM     26  S   UNL     1      43.469   2.931  11.895  0.00  0.00    +0.000 S 
ATOM     27  C   UNL     1      44.225   3.151  10.387  0.00  0.00    +0.000 A 
ATOM     28  N   UNL     1      44.127   2.206   9.414  0.00  0.00    +0.000 NA
ATOM     29  C   UNL     1      44.771   2.488   8.331  0.00  0.00    +0.000 A 
ATOM     30  N   UNL     1      45.498   3.637   8.131  0.00  0.00    +0.000 N 
ATOM     31  C   UNL     1      45.600   4.629   9.076  0.00  0.00    +0.000 A 
ATOM     32  O   UNL     1      46.216   5.670   8.851  0.00  0.00    +0.000 OA
ATOM     33  C   UNL     1      44.915   4.350  10.320  0.00  0.00    +0.000 A 
ATOM     34  H   UNL     1      45.968   3.801   7.255  0.00  0.00    +0.000 HD
ENDBRANCH  21  24
ENDBRANCH  19  20
ENDBRANCH   5  19
TORSDOF 6
ENDMDL
MODEL 6
REMARK VINA RESULT:    -6.439      3.556      9.517
REMARK INTER + INTRA:          -9.406
REMARK INTER:                  -9.670
REMARK INTRA:                   0.264
REMARK UNBOUND:                -0.896
REMARK  Name = 
REMARK  6 active torsions:
REMARK  status: ('A' for Active; 'I' for Inactive)
REMARK    1  A    between atoms: N_1  and  C_2
REMARK    2  A    between atoms: C_2  and  C_3
REMARK    3  A    between atoms: C_6  and  N_7
REMARK    4  A    between atoms: C_11  and  C_12
REMARK    5  A    between atoms: C_12  and  N_13
REMARK    6  A    between atoms: C_14  and  C_16
REMARK                            x       y       z     vdW  Elec       q    Type
REMARK                         _______ _______ _______ _____ _____    ______ ____
ROOT
ATOM      1  N   UNL     1      45.387   4.821   8.948  0.00  0.00    +0.000 N 
ATOM      2  C   UNL     1      45.451   4.704  10.347  0.00  0.00    +0.000 A 
ATOM      3  C   UNL     1      46.188   5.653  11.049  0.00  0.00    +0.000 A 
ATOM      4  C   UNL     1      46.298   5.554  12.438  0.00  0.00    +0.000 A 
ATOM      5  C   UNL     1      45.607   4.551  13.112  0.00  0.00    +0.000 A 
ATOM      6  C   UNL     1      44.863   3.672  12.333  0.00  0.00    +0.000 A 
ATOM      7  N   UNL     1      44.776   3.727  10.981  0.00  0.00    +0.000 NA
ATOM      8  H   UNL     1      44.664   5.509   8.750  0.00  0.00    +0.000 HD
ENDROOT
BRANCH   1  12
ATOM      9  C   UNL     1      46.816   1.404   6.831  0.00  0.00    +0.000 C 
ATOM     10  C   UNL     1      46.005   1.145   8.103  0.00  0.00    +0.000 C 
ATOM     11  C   UNL     1      45.844   2.401   8.948  0.00  0.00    +0.000 C 
ATOM     12  C   UNL     1      45.185   3.570   8.193  0.00  0.00    +0.000 C 
ATOM     13  C   UNL     1      45.800   3.774   6.789  0.00  0.00    +0.000 C 
ATOM     14  C   UNL     1      46.097   2.487   6.014  0.00  0.00    +0.000 C 
BRANCH   9  15
ATOM     15  C   UNL     1      48.299   1.755   7.097  0.00  0.00    +0.000 C 
BRANCH  15  16
ATOM     16  N   UNL     1      48.815   2.800   6.214  0.00  0.00    +0.000 NA
ATOM     17  H   UNL     1      49.769   3.042   6.477  0.00  0.00    +0.000 HD
ATOM     18  H   UNL     1      48.861   2.458   5.254  0.00  0.00    +0.000 HD
ENDBRANCH  15  16
ENDBRANCH   9  15
ENDBRANCH   1  12
BRANCH   5  19
ATOM     19  C   UNL     1      45.654   4.424  14.606  0.00  0.00    +0.000 C 
BRANCH  19  20
ATOM     20  N   UNL     1      46.958   4.723  15.151  0.00  0.00    +0.000 N 
ATOM     21  C   UNL     1      47.296   4.290  16.408  0.00  0.00    +0.000 C 
ATOM     22  O   UNL     1      46.533   3.601  17.083  0.00  0.00    +0.000 OA
ATOM     23  H   UNL     1      47.491   5.477  14.724  0.00  0.00    +0.000 HD
BRANCH  21  24
ATOM     24  C   UNL     1      48.638   4.638  16.902  0.00  0.00    +0.000 A 
ATOM     25  C   UNL     1      48.951   5.965  17.161  0.00  0.00    +0.000 A 
ATOM     26  S   UNL     1      50.539   6.198  17.735  0.00  0.00    +0.000 S 
ATOM     27  C   UNL     1      50.881   4.536  17.621  0.00  0.00    +0.000 A 
ATOM     28  N   UNL     1      52.114   4.054  17.934  0.00  0.00    +0.000 NA
ATOM     29  C   UNL     1      52.242   2.779  17.777  0.00  0.00    +0.000 A 
ATOM     30  N   UNL     1      51.244   1.940  17.343  0.00  0.00    +0.000 N 
ATOM     31  C   UNL     1      49.977   2.381  17.043  0.00  0.00    +0.000 A 
ATOM     32  O   UNL     1      49.089   1.600  16.705  0.00  0.00    +0.000 OA
ATOM     33  C   UNL     1      49.787   3.809  17.180  0.00  0.00    +0.000 A 
ATOM     34  H   UNL     1      51.409   0.950  17.254  0.00  0.00    +0.000 HD
ENDBRANCH  21  24
ENDBRANCH  19  20
ENDBRANCH   5  19
TORSDOF 6
ENDMDL
MODEL 7
REMARK VINA RESULT:    -6.362      4.252      8.781
REMARK INTER + INTRA:          -9.305
REMARK INTER:                  -9.013
REMARK INTRA:                  -0.291
REMARK UNBOUND:                -0.896
REMARK  Name = 
REMARK  6 active torsions:
REMARK  status: ('A' for Active; 'I' for Inactive)
REMARK    1  A    between atoms: N_1  and  C_2
REMARK    2  A    between atoms: C_2  and  C_3
REMARK    3  A    between atoms: C_6  and  N_7
REMARK    4  A    between atoms: C_11  and  C_12
REMARK    5  A    between atoms: C_12  and  N_13
REMARK    6  A    between atoms: C_14  and  C_16
REMARK                            x       y       z     vdW  Elec       q    Type
REMARK                         _______ _______ _______ _____ _____    ______ ____
ROOT
ATOM      1  N   UNL     1      43.151   6.882  11.135  0.00  0.00    +0.000 N 
ATOM      2  C   UNL     1      44.327   7.353  11.745  0.00  0.00    +0.000 A 
ATOM      3  C   UNL     1      44.785   8.618  11.390  0.00  0.00    +0.000 A 
ATOM      4  C   UNL     1      45.964   9.110  11.954  0.00  0.00    +0.000 A 
ATOM      5  C   UNL     1      46.628   8.359  12.921  0.00  0.00    +0.000 A 
ATOM      6  C   UNL     1      46.077   7.124  13.241  0.00  0.00    +0.000 A 
ATOM      7  N   UNL     1      44.955   6.612  12.677  0.00  0.00    +0.000 NA
ATOM      8  H   UNL     1      42.375   7.291  11.651  0.00  0.00    +0.000 HD
ENDROOT
BRANCH   1  12
ATOM      9  C   UNL     1      44.628   2.898  11.527  0.00  0.00    +0.000 C 
ATOM     10  C   UNL     1      43.382   3.261  12.338  0.00  0.00    +0.000 C 
ATOM     11  C   UNL     1      43.149   4.764  12.394  0.00  0.00    +0.000 C 
ATOM     12  C   UNL     1      43.020   5.418  11.005  0.00  0.00    +0.000 C 
ATOM     13  C   UNL     1      44.123   4.940  10.033  0.00  0.00    +0.000 C 
ATOM     14  C   UNL     1      44.450   3.445  10.103  0.00  0.00    +0.000 C 
BRANCH   9  15
ATOM     15  C   UNL     1      45.952   3.363  12.175  0.00  0.00    +0.000 C 
BRANCH  15  16
ATOM     16  N   UNL     1      45.834   3.633  13.608  0.00  0.00    +0.000 NA
ATOM     17  H   UNL     1      45.744   2.759  14.123  0.00  0.00    +0.000 HD
ATOM     18  H   UNL     1      46.682   4.082  13.952  0.00  0.00    +0.000 HD
ENDBRANCH  15  16
ENDBRANCH   9  15
ENDBRANCH   1  12
BRANCH   5  19
ATOM     19  C   UNL     1      47.875   8.857  13.590  0.00  0.00    +0.000 C 
BRANCH  19  20
ATOM     20  N   UNL     1      48.036   8.340  14.929  0.00  0.00    +0.000 N 
ATOM     21  C   UNL     1      48.989   7.388  15.191  0.00  0.00    +0.000 C 
ATOM     22  O   UNL     1      49.759   6.986  14.321  0.00  0.00    +0.000 OA
ATOM     23  H   UNL     1      47.270   8.472  15.585  0.00  0.00    +0.000 HD
BRANCH  21  24
ATOM     24  C   UNL     1      49.092   6.901  16.575  0.00  0.00    +0.000 A 
ATOM     25  C   UNL     1      49.602   7.736  17.561  0.00  0.00    +0.000 A 
ATOM     26  S   UNL     1      49.646   7.026  19.110  0.00  0.00    +0.000 S 
ATOM     27  C   UNL     1      49.021   5.560  18.513  0.00  0.00    +0.000 A 
ATOM     28  N   UNL     1      48.843   4.492  19.336  0.00  0.00    +0.000 NA
ATOM     29  C   UNL     1      48.388   3.437  18.747  0.00  0.00    +0.000 A 
ATOM     30  N   UNL     1      48.085   3.358  17.409  0.00  0.00    +0.000 N 
ATOM     31  C   UNL     1      48.223   4.421  16.549  0.00  0.00    +0.000 A 
ATOM     32  O   UNL     1      47.896   4.337  15.366  0.00  0.00    +0.000 OA
ATOM     33  C   UNL     1      48.754   5.623  17.155  0.00  0.00    +0.000 A 
ATOM     34  H   UNL     1      47.721   2.505  17.015  0.00  0.00    +0.000 HD
ENDBRANCH  21  24
ENDBRANCH  19  20
ENDBRANCH   5  19
TORSDOF 6
ENDMDL
MODEL 8
REMARK VINA RESULT:    -6.296      3.155      9.107
REMARK INTER + INTRA:          -9.217
REMARK INTER:                  -8.319
REMARK INTRA:                  -0.899
REMARK UNBOUND:                -0.896
REMARK  Name = 
REMARK  6 active torsions:
REMARK  status: ('A' for Active; 'I' for Inactive)
REMARK    1  A    between atoms: N_1  and  C_2
REMARK    2  A    between atoms: C_2  and  C_3
REMARK    3  A    between atoms: C_6  and  N_7
REMARK    4  A    between atoms: C_11  and  C_12
REMARK    5  A    between atoms: C_12  and  N_13
REMARK    6  A    between atoms: C_14  and  C_16
REMARK                            x       y       z     vdW  Elec       q    Type
REMARK                         _______ _______ _______ _____ _____    ______ ____
ROOT
ATOM      1  N   UNL     1      46.650   6.879  11.786  0.00  0.00    +0.000 N 
ATOM      2  C   UNL     1      47.693   7.160  12.686  0.00  0.00    +0.000 A 
ATOM      3  C   UNL     1      48.991   7.211  12.187  0.00  0.00    +0.000 A 
ATOM      4  C   UNL     1      50.056   7.461  13.054  0.00  0.00    +0.000 A 
ATOM      5  C   UNL     1      49.800   7.730  14.396  0.00  0.00    +0.000 A 
ATOM      6  C   UNL     1      48.470   7.697  14.798  0.00  0.00    +0.000 A 
ATOM      7  N   UNL     1      47.426   7.418  13.980  0.00  0.00    +0.000 NA
ATOM      8  H   UNL     1      46.423   7.757  11.325  0.00  0.00    +0.000 HD
ENDROOT
BRANCH   1  12
ATOM      9  C   UNL     1      43.406   4.114  11.601  0.00  0.00    +0.000 C 
ATOM     10  C   UNL     1      44.443   3.897  12.705  0.00  0.00    +0.000 C 
ATOM     11  C   UNL     1      45.709   4.708  12.473  0.00  0.00    +0.000 C 
ATOM     12  C   UNL     1      45.456   6.223  12.350  0.00  0.00    +0.000 C 
ATOM     13  C   UNL     1      44.268   6.538  11.410  0.00  0.00    +0.000 C 
ATOM     14  C   UNL     1      43.059   5.610  11.555  0.00  0.00    +0.000 C 
BRANCH   9  15
ATOM     15  C   UNL     1      43.841   3.568  10.221  0.00  0.00    +0.000 C 
BRANCH  15  16
ATOM     16  N   UNL     1      44.363   2.203  10.275  0.00  0.00    +0.000 NA
ATOM     17  H   UNL     1      44.550   1.938  11.241  0.00  0.00    +0.000 HD
ATOM     18  H   UNL     1      43.665   1.545   9.928  0.00  0.00    +0.000 HD
ENDBRANCH  15  16
ENDBRANCH   9  15
ENDBRANCH   1  12
BRANCH   5  19
ATOM     19  C   UNL     1      50.903   8.047  15.364  0.00  0.00    +0.000 C 
BRANCH  19  20
ATOM     20  N   UNL     1      51.634   6.874  15.782  0.00  0.00    +0.000 N 
ATOM     21  C   UNL     1      51.329   6.258  16.969  0.00  0.00    +0.000 C 
ATOM     22  O   UNL     1      50.407   6.647  17.683  0.00  0.00    +0.000 OA
ATOM     23  H   UNL     1      52.533   6.692  15.342  0.00  0.00    +0.000 HD
BRANCH  21  24
ATOM     24  C   UNL     1      52.120   5.073  17.336  0.00  0.00    +0.000 A 
ATOM     25  C   UNL     1      53.475   5.208  17.606  0.00  0.00    +0.000 A 
ATOM     26  S   UNL     1      54.243   3.744  18.023  0.00  0.00    +0.000 S 
ATOM     27  C   UNL     1      52.800   2.868  17.818  0.00  0.00    +0.000 A 
ATOM     28  N   UNL     1      52.774   1.518  17.988  0.00  0.00    +0.000 NA
ATOM     29  C   UNL     1      51.621   0.978  17.775  0.00  0.00    +0.000 A 
ATOM     30  N   UNL     1      50.488   1.668  17.417  0.00  0.00    +0.000 N 
ATOM     31  C   UNL     1      50.464   3.033  17.263  0.00  0.00    +0.000 A 
ATOM     32  O   UNL     1      49.424   3.631  16.991  0.00  0.00    +0.000 OA
ATOM     33  C   UNL     1      51.739   3.686  17.466  0.00  0.00    +0.000 A 
ATOM     34  H   UNL     1      49.615   1.184  17.278  0.00  0.00    +0.000 HD
ENDBRANCH  21  24
ENDBRANCH  19  20
ENDBRANCH   5  19
TORSDOF 6
ENDMDL
MODEL 9
REMARK VINA RESULT:    -6.232      2.926      4.850
REMARK INTER + INTRA:          -9.132
REMARK INTER:                  -9.131
REMARK INTRA:                  -0.001
REMARK UNBOUND:                -0.896
REMARK  Name = 
REMARK  6 active torsions:
REMARK  status: ('A' for Active; 'I' for Inactive)
REMARK    1  A    between atoms: N_1  and  C_2
REMARK    2  A    between atoms: C_2  and  C_3
REMARK    3  A    between atoms: C_6  and  N_7
REMARK    4  A    between atoms: C_11  and  C_12
REMARK    5  A    between atoms: C_12  and  N_13
REMARK    6  A    between atoms: C_14  and  C_16
REMARK                            x       y       z     vdW  Elec       q    Type
REMARK                         _______ _______ _______ _____ _____    ______ ____
ROOT
ATOM      1  N   UNL     1      52.516   4.942  18.315  0.00  0.00    +0.000 N 
ATOM      2  C   UNL     1      51.226   4.588  17.883  0.00  0.00    +0.000 A 
ATOM      3  C   UNL     1      50.934   3.235  17.739  0.00  0.00    +0.000 A 
ATOM      4  C   UNL     1      49.673   2.844  17.287  0.00  0.00    +0.000 A 
ATOM      5  C   UNL     1      48.696   3.810  17.056  0.00  0.00    +0.000 A 
ATOM      6  C   UNL     1      49.065   5.134  17.264  0.00  0.00    +0.000 A 
ATOM      7  N   UNL     1      50.296   5.536  17.665  0.00  0.00    +0.000 NA
ATOM      8  H   UNL     1      52.516   4.849  19.328  0.00  0.00    +0.000 HD
ENDROOT
BRANCH   1  12
ATOM      9  C   UNL     1      52.146   8.611  16.168  0.00  0.00    +0.000 C 
ATOM     10  C   UNL     1      52.277   8.706  17.690  0.00  0.00    +0.000 C 
ATOM     11  C   UNL     1      52.058   7.363  18.371  0.00  0.00    +0.000 C 
ATOM     12  C   UNL     1      53.015   6.260  17.879  0.00  0.00    +0.000 C 
ATOM     13  C   UNL     1      53.119   6.228  16.336  0.00  0.00    +0.000 C 
ATOM     14  C   UNL     1      53.183   7.600  15.658  0.00  0.00    +0.000 C 
BRANCH   9  15
ATOM     15  C   UNL     1      50.715   8.281  15.684  0.00  0.00    +0.000 C 
BRANCH  15  16
ATOM     16  N   UNL     1      50.685   7.532  14.428  0.00  0.00    +0.000 NA
ATOM     17  H   UNL     1      51.243   6.683  14.513  0.00  0.00    +0.000 HD
ATOM     18  H   UNL     1      49.734   7.228  14.222  0.00  0.00    +0.000 HD
ENDBRANCH  15  16
ENDBRANCH   9  15
ENDBRANCH   1  12
BRANCH   5  19
ATOM     19  C   UNL     1      47.311   3.444  16.610  0.00  0.00    +0.000 C 
BRANCH  19  20
ATOM     20  N   UNL     1      46.738   4.417  15.709  0.00  0.00    +0.000 N 
ATOM     21  C   UNL     1      46.756   4.198  14.355  0.00  0.00    +0.000 C 
ATOM     22  O   UNL     1      47.207   3.161  13.872  0.00  0.00    +0.000 OA
ATOM     23  H   UNL     1      46.591   5.361  16.059  0.00  0.00    +0.000 HD
BRANCH  21  24
ATOM     24  C   UNL     1      46.162   5.234  13.497  0.00  0.00    +0.000 A 
ATOM     25  C   UNL     1      46.855   6.415  13.266  0.00  0.00    +0.000 A 
ATOM     26  S   UNL     1      46.036   7.507  12.245  0.00  0.00    +0.000 S 
ATOM     27  C   UNL     1      44.703   6.458  12.106  0.00  0.00    +0.000 A 
ATOM     28  N   UNL     1      43.608   6.815  11.383  0.00  0.00    +0.000 NA
ATOM     29  C   UNL     1      42.662   5.937  11.384  0.00  0.00    +0.000 A 
ATOM     30  N   UNL     1      42.716   4.729  12.036  0.00  0.00    +0.000 N 
ATOM     31  C   UNL     1      43.814   4.318  12.753  0.00  0.00    +0.000 A 
ATOM     32  O   UNL     1      43.855   3.209  13.285  0.00  0.00    +0.000 OA
ATOM     33  C   UNL     1      44.895   5.277  12.805  0.00  0.00    +0.000 A 
ATOM     34  H   UNL     1      41.945   4.083  11.985  0.00  0.00    +0.000 HD
ENDBRANCH  21  24
ENDBRANCH  19  20
ENDBRANCH   5  19
TORSDOF 6
ENDMDL
