MODEL 1
REMARK VINA RESULT:    -8.100      0.000      0.000
REMARK INTER + INTRA:         -12.907
REMARK INTER:                 -11.415
REMARK INTRA:                  -1.492
REMARK UNBOUND:                -1.492
REMARK  Name = 
REMARK  7 active torsions:
REMARK  status: ('A' for Active; 'I' for Inactive)
REMARK    1  A    between atoms: C_2  and  C_20
REMARK    2  A    between atoms: N_3  and  C_4
REMARK    3  A    between atoms: C_4  and  C_5
REMARK    4  A    between atoms: C_8  and  C_9
REMARK    5  A    between atoms: C_9  and  N_10
REMARK    6  A    between atoms: N_10  and  C_11
REMARK    7  A    between atoms: C_11  and  C_12
REMARK                            x       y       z     vdW  Elec       q    Type
REMARK                         _______ _______ _______ _____ _____    ______ ____
ROOT
ATOM      1  C   UNL     1      47.105   8.412  12.720  0.00  0.00    +0.000 C 
ENDROOT
BRANCH   1   2
ATOM      2  C   UNL     1      46.034   7.631  11.952  0.00  0.00    +0.000 C 
ATOM      3  C   UNL     1      45.017   6.968  12.896  0.00  0.00    +0.000 C 
ATOM      4  C   UNL     1      43.996   6.128  12.129  0.00  0.00    +0.000 C 
ATOM      5  C   UNL     1      44.683   5.068  11.253  0.00  0.00    +0.000 C 
ATOM      6  C   UNL     1      45.694   5.738  10.307  0.00  0.00    +0.000 C 
ATOM      7  C   UNL     1      46.712   6.577  11.070  0.00  0.00    +0.000 C 
BRANCH   5   8
ATOM      8  C   UNL     1      43.633   4.246  10.477  0.00  0.00    +0.000 C 
BRANCH   8   9
ATOM      9  N   UNL     1      44.178   3.851   9.178  0.00  0.00    +0.000 NA
ATOM     10  H   UNL     1      45.022   4.383   8.975  0.00  0.00    +0.000 HD
BRANCH   9  11
ATOM     11  C   UNL     1      44.476   2.424   9.119  0.00  0.00    +0.000 C 
BRANCH  11  12
ATOM     12  C   UNL     1      45.700   2.187   8.266  0.00  0.00    +0.000 A 
ATOM     13  C   UNL     1      46.229   0.906   8.097  0.00  0.00    +0.000 A 
ATOM     14  C   UNL     1      47.358   0.751   7.306  0.00  0.00    +0.000 A 
ATOM     15  N   UNL     1      47.987   1.770   6.682  0.00  0.00    +0.000 NA
ATOM     16  C   UNL     1      47.463   3.002   6.862  0.00  0.00    +0.000 A 
ATOM     17  C   UNL     1      46.339   3.258   7.630  0.00  0.00    +0.000 A 
ENDBRANCH  11  12
ENDBRANCH   9  11
ENDBRANCH   8   9
ENDBRANCH   5   8
ENDBRANCH   1   2
BRANCH   1  20
ATOM     18  O   UNL     1      49.648   7.523  13.625  0.00  0.00    +0.000 OA
ATOM     19  C   UNL     1      48.661   7.357  14.335  0.00  0.00    +0.000 C 
ATOM     20  N   UNL     1      47.411   7.805  13.992  0.00  0.00    +0.000 N 
ATOM     21  H   UNL     1      46.624   7.585  14.591  0.00  0.00    +0.000 HD
BRANCH  19  22
ATOM     22  C   UNL     1      48.748   6.701  15.640  0.00  0.00    +0.000 A 
ATOM     23  C   UNL     1      49.485   7.274  16.664  0.00  0.00    +0.000 A 
ATOM     24  S   UNL     1      49.440   6.377  18.115  0.00  0.00    +0.000 S 
ATOM     25  C   UNL     1      48.472   5.171  17.407  0.00  0.00    +0.000 A 
ATOM     26  N   UNL     1      48.074   4.078  18.116  0.00  0.00    +0.000 NA
ATOM     27  C   UNL     1      47.376   3.227  17.441  0.00  0.00    +0.000 A 
ATOM     28  N   UNL     1      47.035   3.370  16.121  0.00  0.00    +0.000 N 
ATOM     29  C   UNL     1      47.367   4.476  15.380  0.00  0.00    +0.000 A 
ATOM     30  O   UNL     1      46.957   4.612  14.232  0.00  0.00    +0.000 OA
ATOM     31  C   UNL     1      48.173   5.455  16.087  0.00  0.00    +0.000 A 
ATOM     32  H   UNL     1      46.464   2.679  15.656  0.00  0.00    +0.000 HD
ENDBRANCH  19  22
ENDBRANCH   1  20
TORSDOF 7
ENDMDL
MODEL 2
REMARK VINA RESULT:    -8.034      1.606      1.957
REMARK INTER + INTRA:         -12.814
REMARK INTER:                 -11.986
REMARK INTRA:                  -0.828
REMARK UNBOUND:                -1.492
REMARK  Name = 
REMARK  7 active torsions:
REMARK  status: ('A' for Active; 'I' for Inactive)
REMARK    1  A    between atoms: C_2  and  C_20
REMARK    2  A    between atoms: N_3  and  C_4
REMARK    3  A    between atoms: C_4  and  C_5
REMARK    4  A    between atoms: C_8  and  C_9
REMARK    5  A    between atoms: C_9  and  N_10
REMARK    6  A    between atoms: N_10  and  C_11
REMARK    7  A    between atoms: C_11  and  C_12
REMARK                            x       y       z     vdW  Elec       q    Type
REMARK                         _______ _______ _______ _____ _____    ______ ____
ROOT
ATOM      1  C   UNL     1      47.875   6.861  13.482  0.00  0.00    +0.000 C 
ENDROOT
BRANCH   1   2
ATOM      2  C   UNL     1      46.561   6.243  12.993  0.00  0.00    +0.000 C 
ATOM      3  C   UNL     1      46.495   4.733  13.279  0.00  0.00    +0.000 C 
ATOM      4  C   UNL     1      45.217   4.108  12.721  0.00  0.00    +0.000 C 
ATOM      5  C   UNL     1      45.069   4.375  11.215  0.00  0.00    +0.000 C 
ATOM      6  C   UNL     1      45.131   5.887  10.937  0.00  0.00    +0.000 C 
ATOM      7  C   UNL     1      46.404   6.512  11.493  0.00  0.00    +0.000 C 
BRANCH   5   8
ATOM      8  C   UNL     1      43.764   3.749  10.680  0.00  0.00    +0.000 C 
BRANCH   8   9
ATOM      9  N   UNL     1      44.065   2.881   9.541  0.00  0.00    +0.000 NA
ATOM     10  H   UNL     1      43.216   2.420   9.217  0.00  0.00    +0.000 HD
BRANCH   9  11
ATOM     11  C   UNL     1      44.673   3.615   8.437  0.00  0.00    +0.000 C 
BRANCH  11  12
ATOM     12  C   UNL     1      45.822   2.822   7.861  0.00  0.00    +0.000 A 
ATOM     13  C   UNL     1      45.995   1.471   8.166  0.00  0.00    +0.000 A 
ATOM     14  C   UNL     1      47.073   0.796   7.610  0.00  0.00    +0.000 A 
ATOM     15  N   UNL     1      47.975   1.366   6.785  0.00  0.00    +0.000 NA
ATOM     16  C   UNL     1      47.793   2.676   6.506  0.00  0.00    +0.000 A 
ATOM     17  C   UNL     1      46.748   3.434   7.008  0.00  0.00    +0.000 A 
ENDBRANCH  11  12
ENDBRANCH   9  11
ENDBRANCH   8   9
ENDBRANCH   5   8
ENDBRANCH   1   2
BRANCH   1  20
ATOM     18  O   UNL     1      50.160   6.668  15.161  0.00  0.00    +0.000 OA
ATOM     19  C   UNL     1      49.053   6.836  15.663  0.00  0.00    +0.000 C 
ATOM     20  N   UNL     1      47.913   6.992  14.919  0.00  0.00    +0.000 N 
ATOM     21  H   UNL     1      47.019   7.067  15.390  0.00  0.00    +0.000 HD
BRANCH  19  22
ATOM     22  C   UNL     1      48.866   6.931  17.111  0.00  0.00    +0.000 A 
ATOM     23  C   UNL     1      48.687   8.166  17.715  0.00  0.00    +0.000 A 
ATOM     24  S   UNL     1      48.456   8.067  19.402  0.00  0.00    +0.000 S 
ATOM     25  C   UNL     1      48.633   6.375  19.386  0.00  0.00    +0.000 A 
ATOM     26  N   UNL     1      48.559   5.646  20.534  0.00  0.00    +0.000 NA
ATOM     27  C   UNL     1      48.751   4.379  20.377  0.00  0.00    +0.000 A 
ATOM     28  N   UNL     1      49.006   3.771  19.175  0.00  0.00    +0.000 N 
ATOM     29  C   UNL     1      49.037   4.455  17.986  0.00  0.00    +0.000 A 
ATOM     30  O   UNL     1      49.169   3.860  16.921  0.00  0.00    +0.000 OA
ATOM     31  C   UNL     1      48.850   5.889  18.110  0.00  0.00    +0.000 A 
ATOM     32  H   UNL     1      49.121   2.770  19.116  0.00  0.00    +0.000 HD
ENDBRANCH  19  22
ENDBRANCH   1  20
TORSDOF 7
ENDMDL
MODEL 3
REMARK VINA RESULT:    -7.653      2.318      3.580
REMARK INTER + INTRA:         -12.277
REMARK INTER:                 -11.203
REMARK INTRA:                  -1.073
REMARK UNBOUND:                -1.492
REMARK  Name = 
REMARK  7 active torsions:
REMARK  status: ('A' for Active; 'I' for Inactive)
REMARK    1  A    between atoms: C_2  and  C_20
REMARK    2  A    between atoms: N_3  and  C_4
REMARK    3  A    between atoms: C_4  and  C_5
REMARK    4  A    between atoms: C_8  and  C_9
REMARK    5  A    between atoms: C_9  and  N_10
REMARK    6  A    between atoms: N_10  and  C_11
REMARK    7  A    between atoms: C_11  and  C_12
REMARK                            x       y       z     vdW  Elec       q    Type
REMARK                         _______ _______ _______ _____ _____    ______ ____
ROOT
ATOM      1  C   UNL     1      47.473   4.378  15.291  0.00  0.00    +0.000 C 
ENDROOT
BRANCH   1   2
ATOM      2  C   UNL     1      46.466   4.716  14.186  0.00  0.00    +0.000 C 
ATOM      3  C   UNL     1      46.211   3.519  13.255  0.00  0.00    +0.000 C 
ATOM      4  C   UNL     1      45.266   3.885  12.111  0.00  0.00    +0.000 C 
ATOM      5  C   UNL     1      45.791   5.085  11.308  0.00  0.00    +0.000 C 
ATOM      6  C   UNL     1      46.039   6.280  12.243  0.00  0.00    +0.000 C 
ATOM      7  C   UNL     1      46.980   5.918  13.385  0.00  0.00    +0.000 C 
BRANCH   5   8
ATOM      8  C   UNL     1      44.811   5.444  10.170  0.00  0.00    +0.000 C 
BRANCH   8   9
ATOM      9  N   UNL     1      45.386   5.051   8.884  0.00  0.00    +0.000 NA
ATOM     10  H   UNL     1      46.395   4.938   8.969  0.00  0.00    +0.000 HD
BRANCH   9  11
ATOM     11  C   UNL     1      44.799   3.817   8.373  0.00  0.00    +0.000 C 
BRANCH  11  12
ATOM     12  C   UNL     1      45.878   2.931   7.799  0.00  0.00    +0.000 A 
ATOM     13  C   UNL     1      46.770   3.407   6.835  0.00  0.00    +0.000 A 
ATOM     14  C   UNL     1      47.739   2.544   6.341  0.00  0.00    +0.000 A 
ATOM     15  N   UNL     1      47.876   1.261   6.734  0.00  0.00    +0.000 NA
ATOM     16  C   UNL     1      47.000   0.817   7.662  0.00  0.00    +0.000 A 
ATOM     17  C   UNL     1      46.003   1.602   8.218  0.00  0.00    +0.000 A 
ENDBRANCH  11  12
ENDBRANCH   9  11
ENDBRANCH   8   9
ENDBRANCH   5   8
ENDBRANCH   1   2
BRANCH   1  20
ATOM     18  O   UNL     1      49.778   5.177  16.748  0.00  0.00    +0.000 OA
ATOM     19  C   UNL     1      48.698   5.709  16.984  0.00  0.00    +0.000 C 
ATOM     20  N   UNL     1      47.554   5.417  16.289  0.00  0.00    +0.000 N 
ATOM     21  H   UNL     1      46.679   5.844  16.569  0.00  0.00    +0.000 HD
BRANCH  19  22
ATOM     22  C   UNL     1      48.553   6.745  18.008  0.00  0.00    +0.000 A 
ATOM     23  C   UNL     1      48.612   6.413  19.353  0.00  0.00    +0.000 A 
ATOM     24  S   UNL     1      48.452   7.759  20.389  0.00  0.00    +0.000 S 
ATOM     25  C   UNL     1      48.251   8.821  19.075  0.00  0.00    +0.000 A 
ATOM     26  N   UNL     1      48.048  10.153  19.269  0.00  0.00    +0.000 NA
ATOM     27  C   UNL     1      47.873  10.832  18.184  0.00  0.00    +0.000 A 
ATOM     28  N   UNL     1      47.887  10.300  16.921  0.00  0.00    +0.000 N 
ATOM     29  C   UNL     1      48.140   8.974  16.672  0.00  0.00    +0.000 A 
ATOM     30  O   UNL     1      48.243   8.557  15.523  0.00  0.00    +0.000 OA
ATOM     31  C   UNL     1      48.321   8.162  17.862  0.00  0.00    +0.000 A 
ATOM     32  H   UNL     1      47.769  10.890  16.109  0.00  0.00    +0.000 HD
ENDBRANCH  19  22
ENDBRANCH   1  20
TORSDOF 7
ENDMDL
MODEL 4
REMARK VINA RESULT:    -7.536      2.042      2.617
REMARK INTER + INTRA:         -12.112
REMARK INTER:                 -10.910
REMARK INTRA:                  -1.202
REMARK UNBOUND:                -1.492
REMARK  Name = 
REMARK  7 active torsions:
REMARK  status: ('A' for Active; 'I' for Inactive)
REMARK    1  A    between atoms: C_2  and  C_20
REMARK    2  A    between atoms: N_3  and  C_4
REMARK    3  A    between atoms: C_4  and  C_5
REMARK    4  A    between atoms: C_8  and  C_9
REMARK    5  A    between atoms: C_9  and  N_10
REMARK    6  A    between atoms: N_10  and  C_11
REMARK    7  A    between atoms: C_11  and  C_12
REMARK                            x       y       z     vdW  Elec       q    Type
REMARK                         _______ _______ _______ _____ _____    ______ ____
ROOT
ATOM      1  C   UNL     1      47.865   6.981  13.545  0.00  0.00    +0.000 C 
ENDROOT
BRANCH   1   2
ATOM      2  C   UNL     1      46.518   6.562  12.947  0.00  0.00    +0.000 C 
ATOM      3  C   UNL     1      46.001   5.249  13.560  0.00  0.00    +0.000 C 
ATOM      4  C   UNL     1      44.696   4.795  12.906  0.00  0.00    +0.000 C 
ATOM      5  C   UNL     1      44.848   4.652  11.384  0.00  0.00    +0.000 C 
ATOM      6  C   UNL     1      45.360   5.969  10.777  0.00  0.00    +0.000 C 
ATOM      7  C   UNL     1      46.661   6.424  11.428  0.00  0.00    +0.000 C 
BRANCH   5   8
ATOM      8  C   UNL     1      43.514   4.210  10.747  0.00  0.00    +0.000 C 
BRANCH   8   9
ATOM      9  N   UNL     1      43.774   3.551   9.467  0.00  0.00    +0.000 NA
ATOM     10  H   UNL     1      44.133   4.224   8.791  0.00  0.00    +0.000 HD
BRANCH   9  11
ATOM     11  C   UNL     1      44.716   2.445   9.599  0.00  0.00    +0.000 C 
BRANCH  11  12
ATOM     12  C   UNL     1      45.648   2.416   8.411  0.00  0.00    +0.000 A 
ATOM     13  C   UNL     1      46.362   1.263   8.078  0.00  0.00    +0.000 A 
ATOM     14  C   UNL     1      47.207   1.298   6.977  0.00  0.00    +0.000 A 
ATOM     15  N   UNL     1      47.387   2.386   6.200  0.00  0.00    +0.000 NA
ATOM     16  C   UNL     1      46.692   3.493   6.541  0.00  0.00    +0.000 A 
ATOM     17  C   UNL     1      45.822   3.556   7.618  0.00  0.00    +0.000 A 
ENDBRANCH  11  12
ENDBRANCH   9  11
ENDBRANCH   8   9
ENDBRANCH   5   8
ENDBRANCH   1   2
BRANCH   1  20
ATOM     18  O   UNL     1      50.192   6.749  15.160  0.00  0.00    +0.000 OA
ATOM     19  C   UNL     1      49.085   6.618  15.672  0.00  0.00    +0.000 C 
ATOM     20  N   UNL     1      47.916   6.768  14.971  0.00  0.00    +0.000 N 
ATOM     21  H   UNL     1      47.033   6.589  15.434  0.00  0.00    +0.000 HD
BRANCH  19  22
ATOM     22  C   UNL     1      48.920   6.333  17.098  0.00  0.00    +0.000 A 
ATOM     23  C   UNL     1      49.233   5.081  17.603  0.00  0.00    +0.000 A 
ATOM     24  S   UNL     1      49.003   4.954  19.288  0.00  0.00    +0.000 S 
ATOM     25  C   UNL     1      48.433   6.554  19.390  0.00  0.00    +0.000 A 
ATOM     26  N   UNL     1      48.039   7.089  20.578  0.00  0.00    +0.000 NA
ATOM     27  C   UNL     1      47.593   8.299  20.500  0.00  0.00    +0.000 A 
ATOM     28  N   UNL     1      47.510   9.025  19.340  0.00  0.00    +0.000 N 
ATOM     29  C   UNL     1      47.943   8.549  18.129  0.00  0.00    +0.000 A 
ATOM     30  O   UNL     1      47.944   9.267  17.133  0.00  0.00    +0.000 OA
ATOM     31  C   UNL     1      48.433   7.183  18.159  0.00  0.00    +0.000 A 
ATOM     32  H   UNL     1      47.174   9.978  19.349  0.00  0.00    +0.000 HD
ENDBRANCH  19  22
ENDBRANCH   1  20
TORSDOF 7
ENDMDL
MODEL 5
REMARK VINA RESULT:    -7.220      2.377      3.156
REMARK INTER + INTRA:         -11.667
REMARK INTER:                 -10.557
REMARK INTRA:                  -1.109
REMARK UNBOUND:                -1.492
REMARK  Name = 
REMARK  7 active torsions:
REMARK  status: ('A' for Active; 'I' for Inactive)
REMARK    1  A    between atoms: C_2  and  C_20
REMARK    2  A    between atoms: N_3  and  C_4
REMARK    3  A    between atoms: C_4  and  C_5
REMARK    4  A    between atoms: C_8  and  C_9
REMARK    5  A    between atoms: C_9  and  N_10
REMARK    6  A    between atoms: N_10  and  C_11
REMARK    7  A    between atoms: C_11  and  C_12
REMARK                            x       y       z     vdW  Elec       q    Type
REMARK                         _______ _______ _______ _____ _____    ______ ____
ROOT
ATOM      1  C   UNL     1      47.537   4.443  15.138  0.00  0.00    +0.000 C 
ENDROOT
BRANCH   1   2
ATOM      2  C   UNL     1      46.351   4.469  14.168  0.00  0.00    +0.000 C 
ATOM      3  C   UNL     1      46.370   3.270  13.205  0.00  0.00    +0.000 C 
ATOM      4  C   UNL     1      45.229   3.343  12.191  0.00  0.00    +0.000 C 
ATOM      5  C   UNL     1      45.258   4.662  11.403  0.00  0.00    +0.000 C 
ATOM      6  C   UNL     1      45.234   5.857  12.371  0.00  0.00    +0.000 C 
ATOM      7  C   UNL     1      46.370   5.786  13.384  0.00  0.00    +0.000 C 
BRANCH   5   8
ATOM      8  C   UNL     1      44.088   4.717  10.398  0.00  0.00    +0.000 C 
BRANCH   8   9
ATOM      9  N   UNL     1      44.225   3.636   9.422  0.00  0.00    +0.000 NA
ATOM     10  H   UNL     1      43.312   3.239   9.206  0.00  0.00    +0.000 HD
BRANCH   9  11
ATOM     11  C   UNL     1      44.865   4.086   8.191  0.00  0.00    +0.000 C 
BRANCH  11  12
ATOM     12  C   UNL     1      45.863   3.055   7.721  0.00  0.00    +0.000 A 
ATOM     13  C   UNL     1      45.863   1.757   8.239  0.00  0.00    +0.000 A 
ATOM     14  C   UNL     1      46.809   0.855   7.772  0.00  0.00    +0.000 A 
ATOM     15  N   UNL     1      47.739   1.152   6.841  0.00  0.00    +0.000 NA
ATOM     16  C   UNL     1      47.727   2.413   6.357  0.00  0.00    +0.000 A 
ATOM     17  C   UNL     1      46.822   3.383   6.756  0.00  0.00    +0.000 A 
ENDBRANCH  11  12
ENDBRANCH   9  11
ENDBRANCH   8   9
ENDBRANCH   5   8
ENDBRANCH   1   2
BRANCH   1  20
ATOM     18  O   UNL     1      49.689   6.278  15.413  0.00  0.00    +0.000 OA
ATOM     19  C   UNL     1      48.678   6.426  16.091  0.00  0.00    +0.000 C 
ATOM     20  N   UNL     1      47.578   5.616  15.978  0.00  0.00    +0.000 N 
ATOM     21  H   UNL     1      46.796   5.750  16.607  0.00  0.00    +0.000 HD
BRANCH  19  22
ATOM     22  C   UNL     1      48.544   7.520  17.054  0.00  0.00    +0.000 A 
ATOM     23  C   UNL     1      48.629   8.838  16.632  0.00  0.00    +0.000 A 
ATOM     24  S   UNL     1      48.419   9.967  17.895  0.00  0.00    +0.000 S 
ATOM     25  C   UNL     1      48.254   8.730  19.052  0.00  0.00    +0.000 A 
ATOM     26  N   UNL     1      48.061   9.017  20.369  0.00  0.00    +0.000 NA
ATOM     27  C   UNL     1      47.993   7.982  21.138  0.00  0.00    +0.000 A 
ATOM     28  N   UNL     1      48.095   6.684  20.709  0.00  0.00    +0.000 N 
ATOM     29  C   UNL     1      48.237   6.343  19.388  0.00  0.00    +0.000 A 
ATOM     30  O   UNL     1      48.224   5.168  19.035  0.00  0.00    +0.000 OA
ATOM     31  C   UNL     1      48.343   7.473  18.483  0.00  0.00    +0.000 A 
ATOM     32  H   UNL     1      48.008   5.916  21.359  0.00  0.00    +0.000 HD
ENDBRANCH  19  22
ENDBRANCH   1  20
TORSDOF 7
ENDMDL
MODEL 6
REMARK VINA RESULT:    -7.150      2.767      7.638
REMARK INTER + INTRA:         -11.568
REMARK INTER:                 -10.014
REMARK INTRA:                  -1.554
REMARK UNBOUND:                -1.492
REMARK  Name = 
REMARK  7 active torsions:
REMARK  status: ('A' for Active; 'I' for Inactive)
REMARK    1  A    between atoms: C_2  and  C_20
REMARK    2  A    between atoms: N_3  and  C_4
REMARK    3  A    between atoms: C_4  and  C_5
REMARK    4  A    between atoms: C_8  and  C_9
REMARK    5  A    between atoms: C_9  and  N_10
REMARK    6  A    between atoms: N_10  and  C_11
REMARK    7  A    between atoms: C_11  and  C_12
REMARK                            x       y       z     vdW  Elec       q    Type
REMARK                         _______ _______ _______ _____ _____    ______ ____
ROOT
ATOM      1  C   UNL     1      47.972   8.065  11.789  0.00  0.00    +0.000 C 
ENDROOT
BRANCH   1   2
ATOM      2  C   UNL     1      48.660   8.181  13.153  0.00  0.00    +0.000 C 
ATOM      3  C   UNL     1      49.079   6.808  13.705  0.00  0.00    +0.000 C 
ATOM      4  C   UNL     1      49.696   6.923  15.099  0.00  0.00    +0.000 C 
ATOM      5  C   UNL     1      48.744   7.626  16.080  0.00  0.00    +0.000 C 
ATOM      6  C   UNL     1      48.333   9.000  15.526  0.00  0.00    +0.000 C 
ATOM      7  C   UNL     1      47.719   8.888  14.135  0.00  0.00    +0.000 C 
BRANCH   5   8
ATOM      8  C   UNL     1      49.396   7.743  17.473  0.00  0.00    +0.000 C 
BRANCH   8   9
ATOM      9  N   UNL     1      50.093   6.498  17.798  0.00  0.00    +0.000 NA
ATOM     10  H   UNL     1      50.878   6.686  18.419  0.00  0.00    +0.000 HD
BRANCH   9  11
ATOM     11  C   UNL     1      49.207   5.519  18.417  0.00  0.00    +0.000 C 
BRANCH  11  12
ATOM     12  C   UNL     1      49.263   4.217  17.654  0.00  0.00    +0.000 A 
ATOM     13  C   UNL     1      48.185   3.785  16.878  0.00  0.00    +0.000 A 
ATOM     14  C   UNL     1      48.294   2.577  16.203  0.00  0.00    +0.000 A 
ATOM     15  N   UNL     1      49.384   1.783  16.249  0.00  0.00    +0.000 NA
ATOM     16  C   UNL     1      50.413   2.215  17.010  0.00  0.00    +0.000 A 
ATOM     17  C   UNL     1      50.402   3.406  17.717  0.00  0.00    +0.000 A 
ENDBRANCH  11  12
ENDBRANCH   9  11
ENDBRANCH   8   9
ENDBRANCH   5   8
ENDBRANCH   1   2
BRANCH   1  20
ATOM     18  O   UNL     1      45.134   8.050  11.631  0.00  0.00    +0.000 OA
ATOM     19  C   UNL     1      45.743   6.986  11.688  0.00  0.00    +0.000 C 
ATOM     20  N   UNL     1      47.112   6.909  11.712  0.00  0.00    +0.000 N 
ATOM     21  H   UNL     1      47.556   6.006  11.819  0.00  0.00    +0.000 HD
BRANCH  19  22
ATOM     22  C   UNL     1      45.051   5.697  11.687  0.00  0.00    +0.000 A 
ATOM     23  C   UNL     1      44.359   5.272  12.810  0.00  0.00    +0.000 A 
ATOM     24  S   UNL     1      43.595   3.760  12.604  0.00  0.00    +0.000 S 
ATOM     25  C   UNL     1      44.203   3.604  11.022  0.00  0.00    +0.000 A 
ATOM     26  N   UNL     1      43.931   2.504  10.267  0.00  0.00    +0.000 NA
ATOM     27  C   UNL     1      44.488   2.503   9.103  0.00  0.00    +0.000 A 
ATOM     28  N   UNL     1      45.291   3.504   8.621  0.00  0.00    +0.000 N 
ATOM     29  C   UNL     1      45.550   4.655   9.322  0.00  0.00    +0.000 A 
ATOM     30  O   UNL     1      46.191   5.570   8.816  0.00  0.00    +0.000 OA
ATOM     31  C   UNL     1      44.965   4.696  10.650  0.00  0.00    +0.000 A 
ATOM     32  H   UNL     1      45.677   3.455   7.689  0.00  0.00    +0.000 HD
ENDBRANCH  19  22
ENDBRANCH   1  20
TORSDOF 7
ENDMDL
MODEL 7
REMARK VINA RESULT:    -7.021      1.791      2.402
REMARK INTER + INTRA:         -11.387
REMARK INTER:                 -10.311
REMARK INTRA:                  -1.075
REMARK UNBOUND:                -1.492
REMARK  Name = 
REMARK  7 active torsions:
REMARK  status: ('A' for Active; 'I' for Inactive)
REMARK    1  A    between atoms: C_2  and  C_20
REMARK    2  A    between atoms: N_3  and  C_4
REMARK    3  A    between atoms: C_4  and  C_5
REMARK    4  A    between atoms: C_8  and  C_9
REMARK    5  A    between atoms: C_9  and  N_10
REMARK    6  A    between atoms: N_10  and  C_11
REMARK    7  A    between atoms: C_11  and  C_12
REMARK                            x       y       z     vdW  Elec       q    Type
REMARK                         _______ _______ _______ _____ _____    ______ ____
ROOT
ATOM      1  C   UNL     1      46.261   8.801  12.744  0.00  0.00    +0.000 C 
ENDROOT
BRANCH   1   2
ATOM      2  C   UNL     1      45.514   7.469  12.625  0.00  0.00    +0.000 C 
ATOM      3  C   UNL     1      46.475   6.286  12.419  0.00  0.00    +0.000 C 
ATOM      4  C   UNL     1      45.720   4.972  12.224  0.00  0.00    +0.000 C 
ATOM      5  C   UNL     1      44.724   5.061  11.058  0.00  0.00    +0.000 C 
ATOM      6  C   UNL     1      43.762   6.242  11.272  0.00  0.00    +0.000 C 
ATOM      7  C   UNL     1      44.513   7.554  11.467  0.00  0.00    +0.000 C 
BRANCH   5   8
ATOM      8  C   UNL     1      43.964   3.728  10.893  0.00  0.00    +0.000 C 
BRANCH   8   9
ATOM      9  N   UNL     1      43.887   3.377   9.475  0.00  0.00    +0.000 NA
ATOM     10  H   UNL     1      44.330   4.099   8.909  0.00  0.00    +0.000 HD
BRANCH   9  11
ATOM     11  C   UNL     1      44.511   2.089   9.193  0.00  0.00    +0.000 C 
BRANCH  11  12
ATOM     12  C   UNL     1      45.690   2.277   8.269  0.00  0.00    +0.000 A 
ATOM     13  C   UNL     1      45.995   3.527   7.728  0.00  0.00    +0.000 A 
ATOM     14  C   UNL     1      47.089   3.638   6.881  0.00  0.00    +0.000 A 
ATOM     15  N   UNL     1      47.886   2.603   6.541  0.00  0.00    +0.000 NA
ATOM     16  C   UNL     1      47.572   1.401   7.070  0.00  0.00    +0.000 A 
ATOM     17  C   UNL     1      46.504   1.190   7.927  0.00  0.00    +0.000 A 
ENDBRANCH  11  12
ENDBRANCH   9  11
ENDBRANCH   8   9
ENDBRANCH   5   8
ENDBRANCH   1   2
BRANCH   1  20
ATOM     18  O   UNL     1      48.999   9.481  13.096  0.00  0.00    +0.000 OA
ATOM     19  C   UNL     1      48.315   9.198  14.074  0.00  0.00    +0.000 C 
ATOM     20  N   UNL     1      46.977   8.912  13.992  0.00  0.00    +0.000 N 
ATOM     21  H   UNL     1      46.478   8.628  14.827  0.00  0.00    +0.000 HD
BRANCH  19  22
ATOM     22  C   UNL     1      48.868   9.189  15.429  0.00  0.00    +0.000 A 
ATOM     23  C   UNL     1      49.171  10.381  16.069  0.00  0.00    +0.000 A 
ATOM     24  S   UNL     1      49.778  10.164  17.649  0.00  0.00    +0.000 S 
ATOM     25  C   UNL     1      49.697   8.470  17.511  0.00  0.00    +0.000 A 
ATOM     26  N   UNL     1      50.094   7.659  18.530  0.00  0.00    +0.000 NA
ATOM     27  C   UNL     1      50.014   6.397  18.272  0.00  0.00    +0.000 A 
ATOM     28  N   UNL     1      49.570   5.870  17.087  0.00  0.00    +0.000 N 
ATOM     29  C   UNL     1      49.111   6.644  16.051  0.00  0.00    +0.000 A 
ATOM     30  O   UNL     1      48.629   6.131  15.047  0.00  0.00    +0.000 OA
ATOM     31  C   UNL     1      49.201   8.074  16.283  0.00  0.00    +0.000 A 
ATOM     32  H   UNL     1      49.508   4.870  16.956  0.00  0.00    +0.000 HD
ENDBRANCH  19  22
ENDBRANCH   1  20
TORSDOF 7
ENDMDL
MODEL 8
REMARK VINA RESULT:    -6.948      2.159      3.040
REMARK INTER + INTRA:         -11.284
REMARK INTER:                 -10.124
REMARK INTRA:                  -1.159
REMARK UNBOUND:                -1.492
REMARK  Name = 
REMARK  7 active torsions:
REMARK  status: ('A' for Active; 'I' for Inactive)
REMARK    1  A    between atoms: C_2  and  C_20
REMARK    2  A    between atoms: N_3  and  C_4
REMARK    3  A    between atoms: C_4  and  C_5
REMARK    4  A    between atoms: C_8  and  C_9
REMARK    5  A    between atoms: C_9  and  N_10
REMARK    6  A    between atoms: N_10  and  C_11
REMARK    7  A    between atoms: C_11  and  C_12
REMARK                            x       y       z     vdW  Elec       q    Type
REMARK                         _______ _______ _______ _____ _____    ______ ____
ROOT
ATOM      1  C   UNL     1      47.603   7.206  12.949  0.00  0.00    +0.000 C 
ENDROOT
BRANCH   1   2
ATOM      2  C   UNL     1      46.739   6.183  12.203  0.00  0.00    +0.000 C 
ATOM      3  C   UNL     1      45.453   6.816  11.645  0.00  0.00    +0.000 C 
ATOM      4  C   UNL     1      44.559   5.777  10.969  0.00  0.00    +0.000 C 
ATOM      5  C   UNL     1      44.216   4.622  11.923  0.00  0.00    +0.000 C 
ATOM      6  C   UNL     1      45.505   3.990  12.474  0.00  0.00    +0.000 C 
ATOM      7  C   UNL     1      46.399   5.025  13.148  0.00  0.00    +0.000 C 
BRANCH   5   8
ATOM      8  C   UNL     1      43.327   3.580  11.213  0.00  0.00    +0.000 C 
BRANCH   8   9
ATOM      9  N   UNL     1      43.721   3.474   9.808  0.00  0.00    +0.000 NA
ATOM     10  H   UNL     1      44.348   4.237   9.559  0.00  0.00    +0.000 HD
BRANCH   9  11
ATOM     11  C   UNL     1      44.365   2.198   9.513  0.00  0.00    +0.000 C 
BRANCH  11  12
ATOM     12  C   UNL     1      45.507   2.408   8.548  0.00  0.00    +0.000 A 
ATOM     13  C   UNL     1      45.809   3.676   8.047  0.00  0.00    +0.000 A 
ATOM     14  C   UNL     1      46.868   3.806   7.159  0.00  0.00    +0.000 A 
ATOM     15  N   UNL     1      47.633   2.776   6.743  0.00  0.00    +0.000 NA
ATOM     16  C   UNL     1      47.322   1.556   7.234  0.00  0.00    +0.000 A 
ATOM     17  C   UNL     1      46.288   1.326   8.127  0.00  0.00    +0.000 A 
ENDBRANCH  11  12
ENDBRANCH   9  11
ENDBRANCH   8   9
ENDBRANCH   5   8
ENDBRANCH   1   2
BRANCH   1  20
ATOM     18  O   UNL     1      48.305   8.418  15.422  0.00  0.00    +0.000 OA
ATOM     19  C   UNL     1      48.682   7.276  15.178  0.00  0.00    +0.000 C 
ATOM     20  N   UNL     1      48.341   6.605  14.033  0.00  0.00    +0.000 N 
ATOM     21  H   UNL     1      48.732   5.687  13.861  0.00  0.00    +0.000 HD
BRANCH  19  22
ATOM     22  C   UNL     1      49.498   6.513  16.124  0.00  0.00    +0.000 A 
ATOM     23  C   UNL     1      48.900   5.651  17.029  0.00  0.00    +0.000 A 
ATOM     24  S   UNL     1      50.018   4.832  18.024  0.00  0.00    +0.000 S 
ATOM     25  C   UNL     1      51.334   5.638  17.309  0.00  0.00    +0.000 A 
ATOM     26  N   UNL     1      52.612   5.405  17.718  0.00  0.00    +0.000 NA
ATOM     27  C   UNL     1      53.505   6.115  17.114  0.00  0.00    +0.000 A 
ATOM     28  N   UNL     1      53.239   7.035  16.134  0.00  0.00    +0.000 N 
ATOM     29  C   UNL     1      51.975   7.266  15.651  0.00  0.00    +0.000 A 
ATOM     30  O   UNL     1      51.792   8.024  14.704  0.00  0.00    +0.000 OA
ATOM     31  C   UNL     1      50.930   6.509  16.314  0.00  0.00    +0.000 A 
ATOM     32  H   UNL     1      53.987   7.541  15.682  0.00  0.00    +0.000 HD
ENDBRANCH  19  22
ENDBRANCH   1  20
TORSDOF 7
ENDMDL
MODEL 9
REMARK VINA RESULT:    -6.839      2.808      4.245
REMARK INTER + INTRA:         -11.130
REMARK INTER:                  -9.887
REMARK INTRA:                  -1.243
REMARK UNBOUND:                -1.492
REMARK  Name = 
REMARK  7 active torsions:
REMARK  status: ('A' for Active; 'I' for Inactive)
REMARK    1  A    between atoms: C_2  and  C_20
REMARK    2  A    between atoms: N_3  and  C_4
REMARK    3  A    between atoms: C_4  and  C_5
REMARK    4  A    between atoms: C_8  and  C_9
REMARK    5  A    between atoms: C_9  and  N_10
REMARK    6  A    between atoms: N_10  and  C_11
REMARK    7  A    between atoms: C_11  and  C_12
REMARK                            x       y       z     vdW  Elec       q    Type
REMARK                         _______ _______ _______ _____ _____    ______ ____
ROOT
ATOM      1  C   UNL     1      47.674   6.049  14.603  0.00  0.00    +0.000 C 
ENDROOT
BRANCH   1   2
ATOM      2  C   UNL     1      46.989   5.621  13.301  0.00  0.00    +0.000 C 
ATOM      3  C   UNL     1      46.202   6.776  12.659  0.00  0.00    +0.000 C 
ATOM      4  C   UNL     1      45.459   6.323  11.403  0.00  0.00    +0.000 C 
ATOM      5  C   UNL     1      44.526   5.137  11.695  0.00  0.00    +0.000 C 
ATOM      6  C   UNL     1      45.320   3.984  12.331  0.00  0.00    +0.000 C 
ATOM      7  C   UNL     1      46.063   4.433  13.584  0.00  0.00    +0.000 C 
BRANCH   5   8
ATOM      8  C   UNL     1      43.801   4.690  10.408  0.00  0.00    +0.000 C 
BRANCH   8   9
ATOM      9  N   UNL     1      44.555   3.612   9.768  0.00  0.00    +0.000 NA
ATOM     10  H   UNL     1      44.064   2.726   9.879  0.00  0.00    +0.000 HD
BRANCH   9  11
ATOM     11  C   UNL     1      44.782   3.868   8.350  0.00  0.00    +0.000 C 
BRANCH  11  12
ATOM     12  C   UNL     1      45.857   2.947   7.825  0.00  0.00    +0.000 A 
ATOM     13  C   UNL     1      45.924   1.610   8.223  0.00  0.00    +0.000 A 
ATOM     14  C   UNL     1      46.938   0.813   7.710  0.00  0.00    +0.000 A 
ATOM     15  N   UNL     1      47.875   1.250   6.843  0.00  0.00    +0.000 NA
ATOM     16  C   UNL     1      47.796   2.547   6.474  0.00  0.00    +0.000 A 
ATOM     17  C   UNL     1      46.821   3.420   6.927  0.00  0.00    +0.000 A 
ENDBRANCH  11  12
ENDBRANCH   9  11
ENDBRANCH   8   9
ENDBRANCH   5   8
ENDBRANCH   1   2
BRANCH   1  20
ATOM     18  O   UNL     1      48.140   8.820  15.026  0.00  0.00    +0.000 OA
ATOM     19  C   UNL     1      49.028   8.124  14.545  0.00  0.00    +0.000 C 
ATOM     20  N   UNL     1      48.899   6.772  14.360  0.00  0.00    +0.000 N 
ATOM     21  H   UNL     1      49.644   6.260  13.903  0.00  0.00    +0.000 HD
BRANCH  19  22
ATOM     22  C   UNL     1      50.328   8.679  14.168  0.00  0.00    +0.000 A 
ATOM     23  C   UNL     1      51.091   9.370  15.097  0.00  0.00    +0.000 A 
ATOM     24  S   UNL     1      52.584   9.914  14.476  0.00  0.00    +0.000 S 
ATOM     25  C   UNL     1      52.240   9.283  12.934  0.00  0.00    +0.000 A 
ATOM     26  N   UNL     1      53.119   9.420  11.903  0.00  0.00    +0.000 NA
ATOM     27  C   UNL     1      52.709   8.927  10.782  0.00  0.00    +0.000 A 
ATOM     28  N   UNL     1      51.502   8.305  10.598  0.00  0.00    +0.000 N 
ATOM     29  C   UNL     1      50.607   8.096  11.616  0.00  0.00    +0.000 A 
ATOM     30  O   UNL     1      49.582   7.447  11.432  0.00  0.00    +0.000 OA
ATOM     31  C   UNL     1      51.010   8.653  12.895  0.00  0.00    +0.000 A 
ATOM     32  H   UNL     1      51.251   7.917   9.699  0.00  0.00    +0.000 HD
ENDBRANCH  19  22
ENDBRANCH   1  20
TORSDOF 7
ENDMDL
