MODEL 1
REMARK VINA RESULT:    -7.234      0.000      0.000
REMARK INTER + INTRA:         -12.002
REMARK INTER:                 -10.617
REMARK INTRA:                  -1.385
REMARK UNBOUND:                -1.385
REMARK  Name = 
REMARK  9 active torsions:
REMARK  status: ('A' for Active; 'I' for Inactive)
REMARK    1  A    between atoms: C_1  and  O_2
REMARK    2  A    between atoms: O_2  and  C_3
REMARK    3  A    between atoms: C_10  and  C_11
REMARK    4  A    between atoms: N_13  and  C_14
REMARK    5  A    between atoms: C_14  and  C_15
REMARK    6  A    between atoms: C_18  and  N_19
REMARK    7  A    between atoms: N_19  and  C_20
REMARK    8  A    between atoms: C_20  and  C_21
REMARK    9  A    between atoms: C_21  and  O_22
REMARK                            x       y       z     vdW  Elec       q    Type
REMARK                         _______ _______ _______ _____ _____    ______ ____
ROOT
ATOM      1  C   UNL     1      47.090   7.811  13.289  0.00  0.00    +0.000 C 
ENDROOT
BRANCH   1   2
ATOM      2  C   UNL     1      46.189   6.979  12.410  0.00  0.00    +0.000 A 
ATOM      3  C   UNL     1      46.638   6.593  11.152  0.00  0.00    +0.000 A 
ATOM      4  C   UNL     1      45.824   5.838  10.310  0.00  0.00    +0.000 A 
ATOM      5  C   UNL     1      44.552   5.393  10.708  0.00  0.00    +0.000 A 
ATOM      6  C   UNL     1      44.076   5.847  11.943  0.00  0.00    +0.000 A 
ATOM      7  C   UNL     1      44.891   6.618  12.793  0.00  0.00    +0.000 A 
BRANCH   5   8
ATOM      8  N   UNL     1      43.718   4.597   9.868  0.00  0.00    +0.000 N 
ATOM      9  H   UNL     1      42.753   4.661  10.195  0.00  0.00    +0.000 HD
BRANCH   8  10
ATOM     10  C   UNL     1      44.231   3.243   9.707  0.00  0.00    +0.000 C 
BRANCH  10  11
ATOM     11  C   UNL     1      44.621   2.837   8.284  0.00  0.00    +0.000 C 
BRANCH  11  12
ATOM     12  O   UNL     1      46.043   2.829   8.161  0.00  0.00    +0.000 OA
ATOM     13  C   UNL     1      46.665   3.814   7.341  0.00  0.00    +0.000 C 
ATOM     14  C   UNL     1      46.726   3.313   5.905  0.00  0.00    +0.000 C 
ATOM     15  O   UNL     1      47.457   2.088   5.880  0.00  0.00    +0.000 OA
ATOM     16  C   UNL     1      46.843   1.083   6.692  0.00  0.00    +0.000 C 
ATOM     17  C   UNL     1      46.682   1.564   8.135  0.00  0.00    +0.000 C 
ENDBRANCH  11  12
ENDBRANCH  10  11
ENDBRANCH   8  10
ENDBRANCH   5   8
ENDBRANCH   1   2
BRANCH   1  20
ATOM     18  C   UNL     1      48.829   6.797  14.723  0.00  0.00    +0.000 C 
ATOM     19  O   UNL     1      49.728   7.069  13.931  0.00  0.00    +0.000 OA
ATOM     20  N   UNL     1      47.513   7.079  14.458  0.00  0.00    +0.000 N 
ATOM     21  H   UNL     1      46.835   6.961  15.199  0.00  0.00    +0.000 HD
BRANCH  18  29
ATOM     22  C   UNL     1      47.302   4.192  16.250  0.00  0.00    +0.000 A 
ATOM     23  N   UNL     1      46.860   3.169  17.018  0.00  0.00    +0.000 NA
ATOM     24  C   UNL     1      47.489   2.885  18.167  0.00  0.00    +0.000 A 
ATOM     25  C   UNL     1      48.584   3.574  18.637  0.00  0.00    +0.000 A 
ATOM     26  C   UNL     1      49.044   4.625  17.833  0.00  0.00    +0.000 A 
ATOM     27  S   UNL     1      50.380   5.642  18.190  0.00  0.00    +0.000 S 
ATOM     28  C   UNL     1      50.156   6.546  16.776  0.00  0.00    +0.000 A 
ATOM     29  C   UNL     1      49.110   6.097  15.985  0.00  0.00    +0.000 A 
ATOM     30  C   UNL     1      48.434   4.960  16.615  0.00  0.00    +0.000 A 
BRANCH  22  32
ATOM     31  C   UNL     1      47.007   3.518  14.035  0.00  0.00    +0.000 C 
ATOM     32  O   UNL     1      46.645   4.438  15.062  0.00  0.00    +0.000 OA
ENDBRANCH  22  32
ENDBRANCH  18  29
ENDBRANCH   1  20
TORSDOF 8
ENDMDL
MODEL 2
REMARK VINA RESULT:    -6.617      1.898      3.535
REMARK INTER + INTRA:         -11.097
REMARK INTER:                  -9.736
REMARK INTRA:                  -1.361
REMARK UNBOUND:                -1.385
REMARK  Name = 
REMARK  9 active torsions:
REMARK  status: ('A' for Active; 'I' for Inactive)
REMARK    1  A    between atoms: C_1  and  O_2
REMARK    2  A    between atoms: O_2  and  C_3
REMARK    3  A    between atoms: C_10  and  C_11
REMARK    4  A    between atoms: N_13  and  C_14
REMARK    5  A    between atoms: C_14  and  C_15
REMARK    6  A    between atoms: C_18  and  N_19
REMARK    7  A    between atoms: N_19  and  C_20
REMARK    8  A    between atoms: C_20  and  C_21
REMARK    9  A    between atoms: C_21  and  O_22
REMARK                            x       y       z     vdW  Elec       q    Type
REMARK                         _______ _______ _______ _____ _____    ______ ____
ROOT
ATOM      1  C   UNL     1      46.872   4.312  14.753  0.00  0.00    +0.000 C 
ENDROOT
BRANCH   1   2
ATOM      2  C   UNL     1      46.338   4.509  13.356  0.00  0.00    +0.000 A 
ATOM      3  C   UNL     1      46.490   5.747  12.742  0.00  0.00    +0.000 A 
ATOM      4  C   UNL     1      45.993   5.966  11.458  0.00  0.00    +0.000 A 
ATOM      5  C   UNL     1      45.374   4.947  10.716  0.00  0.00    +0.000 A 
ATOM      6  C   UNL     1      45.158   3.727  11.366  0.00  0.00    +0.000 A 
ATOM      7  C   UNL     1      45.648   3.504  12.666  0.00  0.00    +0.000 A 
BRANCH   5   8
ATOM      8  N   UNL     1      44.885   5.148   9.390  0.00  0.00    +0.000 N 
ATOM      9  H   UNL     1      44.334   6.006   9.362  0.00  0.00    +0.000 HD
BRANCH   8  10
ATOM     10  C   UNL     1      44.220   3.964   8.864  0.00  0.00    +0.000 C 
BRANCH  10  11
ATOM     11  C   UNL     1      44.859   3.327   7.629  0.00  0.00    +0.000 C 
BRANCH  11  12
ATOM     12  O   UNL     1      46.207   2.961   7.922  0.00  0.00    +0.000 OA
ATOM     13  C   UNL     1      47.252   3.488   7.109  0.00  0.00    +0.000 C 
ATOM     14  C   UNL     1      47.466   2.579   5.906  0.00  0.00    +0.000 C 
ATOM     15  O   UNL     1      47.790   1.271   6.375  0.00  0.00    +0.000 OA
ATOM     16  C   UNL     1      46.748   0.722   7.188  0.00  0.00    +0.000 C 
ATOM     17  C   UNL     1      46.434   1.636   8.373  0.00  0.00    +0.000 C 
ENDBRANCH  11  12
ENDBRANCH  10  11
ENDBRANCH   8  10
ENDBRANCH   5   8
ENDBRANCH   1   2
BRANCH   1  20
ATOM     18  C   UNL     1      48.507   5.517  16.161  0.00  0.00    +0.000 C 
ATOM     19  O   UNL     1      48.940   4.478  16.655  0.00  0.00    +0.000 OA
ATOM     20  N   UNL     1      47.466   5.521  15.268  0.00  0.00    +0.000 N 
ATOM     21  H   UNL     1      47.244   6.385  14.791  0.00  0.00    +0.000 HD
BRANCH  18  29
ATOM     22  C   UNL     1      49.966   7.979  14.356  0.00  0.00    +0.000 A 
ATOM     23  N   UNL     1      50.555   9.080  13.834  0.00  0.00    +0.000 NA
ATOM     24  C   UNL     1      50.888  10.098  14.640  0.00  0.00    +0.000 A 
ATOM     25  C   UNL     1      50.667  10.108  15.999  0.00  0.00    +0.000 A 
ATOM     26  C   UNL     1      50.048   8.970  16.533  0.00  0.00    +0.000 A 
ATOM     27  S   UNL     1      49.668   8.726  18.189  0.00  0.00    +0.000 S 
ATOM     28  C   UNL     1      49.030   7.187  17.886  0.00  0.00    +0.000 A 
ATOM     29  C   UNL     1      49.049   6.829  16.548  0.00  0.00    +0.000 A 
ATOM     30  C   UNL     1      49.666   7.881  15.736  0.00  0.00    +0.000 A 
BRANCH  22  32
ATOM     31  C   UNL     1      49.622   7.377  12.128  0.00  0.00    +0.000 C 
ATOM     32  O   UNL     1      49.614   6.962  13.491  0.00  0.00    +0.000 OA
ENDBRANCH  22  32
ENDBRANCH  18  29
ENDBRANCH   1  20
TORSDOF 8
ENDMDL
MODEL 3
REMARK VINA RESULT:    -6.406      2.371      3.301
REMARK INTER + INTRA:         -10.788
REMARK INTER:                  -9.709
REMARK INTRA:                  -1.079
REMARK UNBOUND:                -1.385
REMARK  Name = 
REMARK  9 active torsions:
REMARK  status: ('A' for Active; 'I' for Inactive)
REMARK    1  A    between atoms: C_1  and  O_2
REMARK    2  A    between atoms: O_2  and  C_3
REMARK    3  A    between atoms: C_10  and  C_11
REMARK    4  A    between atoms: N_13  and  C_14
REMARK    5  A    between atoms: C_14  and  C_15
REMARK    6  A    between atoms: C_18  and  N_19
REMARK    7  A    between atoms: N_19  and  C_20
REMARK    8  A    between atoms: C_20  and  C_21
REMARK    9  A    between atoms: C_21  and  O_22
REMARK                            x       y       z     vdW  Elec       q    Type
REMARK                         _______ _______ _______ _____ _____    ______ ____
ROOT
ATOM      1  C   UNL     1      46.935   4.359  14.708  0.00  0.00    +0.000 C 
ENDROOT
BRANCH   1   2
ATOM      2  C   UNL     1      46.356   4.533  13.325  0.00  0.00    +0.000 A 
ATOM      3  C   UNL     1      46.469   5.767  12.695  0.00  0.00    +0.000 A 
ATOM      4  C   UNL     1      45.930   5.964  11.425  0.00  0.00    +0.000 A 
ATOM      5  C   UNL     1      45.305   4.928  10.712  0.00  0.00    +0.000 A 
ATOM      6  C   UNL     1      45.129   3.712  11.381  0.00  0.00    +0.000 A 
ATOM      7  C   UNL     1      45.662   3.510  12.667  0.00  0.00    +0.000 A 
BRANCH   5   8
ATOM      8  N   UNL     1      44.774   5.107   9.400  0.00  0.00    +0.000 N 
ATOM      9  H   UNL     1      44.116   5.888   9.408  0.00  0.00    +0.000 HD
BRANCH   8  10
ATOM     10  C   UNL     1      44.256   3.865   8.842  0.00  0.00    +0.000 C 
BRANCH  10  11
ATOM     11  C   UNL     1      44.942   3.363   7.570  0.00  0.00    +0.000 C 
BRANCH  11  12
ATOM     12  O   UNL     1      46.277   2.962   7.872  0.00  0.00    +0.000 OA
ATOM     13  C   UNL     1      47.337   3.427   7.042  0.00  0.00    +0.000 C 
ATOM     14  C   UNL     1      47.518   2.475   5.868  0.00  0.00    +0.000 C 
ATOM     15  O   UNL     1      47.799   1.172   6.376  0.00  0.00    +0.000 OA
ATOM     16  C   UNL     1      46.741   0.683   7.207  0.00  0.00    +0.000 C 
ATOM     17  C   UNL     1      46.460   1.644   8.364  0.00  0.00    +0.000 C 
ENDBRANCH  11  12
ENDBRANCH  10  11
ENDBRANCH   8  10
ENDBRANCH   5   8
ENDBRANCH   1   2
BRANCH   1  20
ATOM     18  C   UNL     1      48.506   5.633  16.128  0.00  0.00    +0.000 C 
ATOM     19  O   UNL     1      48.951   4.616  16.656  0.00  0.00    +0.000 OA
ATOM     20  N   UNL     1      47.488   5.593  15.209  0.00  0.00    +0.000 N 
ATOM     21  H   UNL     1      47.258   6.440  14.707  0.00  0.00    +0.000 HD
BRANCH  18  29
ATOM     22  C   UNL     1      47.918   7.604  18.815  0.00  0.00    +0.000 A 
ATOM     23  N   UNL     1      47.837   8.535  19.794  0.00  0.00    +0.000 NA
ATOM     24  C   UNL     1      48.531   9.677  19.680  0.00  0.00    +0.000 A 
ATOM     25  C   UNL     1      49.346   9.979  18.613  0.00  0.00    +0.000 A 
ATOM     26  C   UNL     1      49.435   9.008  17.607  0.00  0.00    +0.000 A 
ATOM     27  S   UNL     1      50.370   9.138  16.174  0.00  0.00    +0.000 S 
ATOM     28  C   UNL     1      49.855   7.623  15.620  0.00  0.00    +0.000 A 
ATOM     29  C   UNL     1      49.008   6.966  16.497  0.00  0.00    +0.000 A 
ATOM     30  C   UNL     1      48.741   7.791  17.678  0.00  0.00    +0.000 A 
BRANCH  22  32
ATOM     31  C   UNL     1      47.678   5.658  20.080  0.00  0.00    +0.000 C 
ATOM     32  O   UNL     1      47.209   6.431  18.979  0.00  0.00    +0.000 OA
ENDBRANCH  22  32
ENDBRANCH  18  29
ENDBRANCH   1  20
TORSDOF 8
ENDMDL
MODEL 4
REMARK VINA RESULT:    -6.323      3.178      5.226
REMARK INTER + INTRA:         -10.666
REMARK INTER:                  -9.802
REMARK INTRA:                  -0.865
REMARK UNBOUND:                -1.385
REMARK  Name = 
REMARK  9 active torsions:
REMARK  status: ('A' for Active; 'I' for Inactive)
REMARK    1  A    between atoms: C_1  and  O_2
REMARK    2  A    between atoms: O_2  and  C_3
REMARK    3  A    between atoms: C_10  and  C_11
REMARK    4  A    between atoms: N_13  and  C_14
REMARK    5  A    between atoms: C_14  and  C_15
REMARK    6  A    between atoms: C_18  and  N_19
REMARK    7  A    between atoms: N_19  and  C_20
REMARK    8  A    between atoms: C_20  and  C_21
REMARK    9  A    between atoms: C_21  and  O_22
REMARK                            x       y       z     vdW  Elec       q    Type
REMARK                         _______ _______ _______ _____ _____    ______ ____
ROOT
ATOM      1  C   UNL     1      47.672   3.349  17.305  0.00  0.00    +0.000 C 
ENDROOT
BRANCH   1   2
ATOM      2  C   UNL     1      47.572   4.198  16.060  0.00  0.00    +0.000 A 
ATOM      3  C   UNL     1      47.009   3.651  14.912  0.00  0.00    +0.000 A 
ATOM      4  C   UNL     1      46.918   4.403  13.742  0.00  0.00    +0.000 A 
ATOM      5  C   UNL     1      47.333   5.743  13.684  0.00  0.00    +0.000 A 
ATOM      6  C   UNL     1      47.967   6.262  14.819  0.00  0.00    +0.000 A 
ATOM      7  C   UNL     1      48.071   5.504  16.000  0.00  0.00    +0.000 A 
BRANCH   5   8
ATOM      8  N   UNL     1      47.221   6.534  12.502  0.00  0.00    +0.000 N 
ATOM      9  H   UNL     1      47.538   7.484  12.702  0.00  0.00    +0.000 HD
BRANCH   8  10
ATOM     10  C   UNL     1      45.900   6.434  11.897  0.00  0.00    +0.000 C 
BRANCH  10  11
ATOM     11  C   UNL     1      45.807   5.596  10.620  0.00  0.00    +0.000 C 
BRANCH  11  12
ATOM     12  O   UNL     1      44.453   5.199  10.405  0.00  0.00    +0.000 OA
ATOM     13  C   UNL     1      43.598   5.044  11.533  0.00  0.00    +0.000 C 
ATOM     14  C   UNL     1      43.728   3.628  12.079  0.00  0.00    +0.000 C 
ATOM     15  O   UNL     1      43.385   2.708  11.044  0.00  0.00    +0.000 OA
ATOM     16  C   UNL     1      44.239   2.843   9.904  0.00  0.00    +0.000 C 
ATOM     17  C   UNL     1      44.210   4.272   9.360  0.00  0.00    +0.000 C 
ENDBRANCH  11  12
ENDBRANCH  10  11
ENDBRANCH   8  10
ENDBRANCH   5   8
ENDBRANCH   1   2
BRANCH   1  20
ATOM     18  C   UNL     1      49.875   2.290  16.941  0.00  0.00    +0.000 C 
ATOM     19  O   UNL     1      49.472   1.639  15.979  0.00  0.00    +0.000 OA
ATOM     20  N   UNL     1      49.045   3.105  17.669  0.00  0.00    +0.000 N 
ATOM     21  H   UNL     1      49.457   3.719  18.359  0.00  0.00    +0.000 HD
BRANCH  18  29
ATOM     22  C   UNL     1      52.193   4.645  17.671  0.00  0.00    +0.000 A 
ATOM     23  N   UNL     1      53.254   5.407  18.022  0.00  0.00    +0.000 NA
ATOM     24  C   UNL     1      54.395   4.817  18.407  0.00  0.00    +0.000 A 
ATOM     25  C   UNL     1      54.572   3.453  18.475  0.00  0.00    +0.000 A 
ATOM     26  C   UNL     1      53.467   2.668  18.120  0.00  0.00    +0.000 A 
ATOM     27  S   UNL     1      53.425   0.952  18.110  0.00  0.00    +0.000 S 
ATOM     28  C   UNL     1      51.824   0.927  17.559  0.00  0.00    +0.000 A 
ATOM     29  C   UNL     1      51.267   2.187  17.403  0.00  0.00    +0.000 A 
ATOM     30  C   UNL     1      52.245   3.231  17.722  0.00  0.00    +0.000 A 
BRANCH  22  32
ATOM     31  C   UNL     1      51.269   6.453  16.522  0.00  0.00    +0.000 C 
ATOM     32  O   UNL     1      51.027   5.287  17.305  0.00  0.00    +0.000 OA
ENDBRANCH  22  32
ENDBRANCH  18  29
ENDBRANCH   1  20
TORSDOF 8
ENDMDL
MODEL 5
REMARK VINA RESULT:    -6.265      4.899      9.333
REMARK INTER + INTRA:         -10.581
REMARK INTER:                  -9.723
REMARK INTRA:                  -0.858
REMARK UNBOUND:                -1.385
REMARK  Name = 
REMARK  9 active torsions:
REMARK  status: ('A' for Active; 'I' for Inactive)
REMARK    1  A    between atoms: C_1  and  O_2
REMARK    2  A    between atoms: O_2  and  C_3
REMARK    3  A    between atoms: C_10  and  C_11
REMARK    4  A    between atoms: N_13  and  C_14
REMARK    5  A    between atoms: C_14  and  C_15
REMARK    6  A    between atoms: C_18  and  N_19
REMARK    7  A    between atoms: N_19  and  C_20
REMARK    8  A    between atoms: C_20  and  C_21
REMARK    9  A    between atoms: C_21  and  O_22
REMARK                            x       y       z     vdW  Elec       q    Type
REMARK                         _______ _______ _______ _____ _____    ______ ____
ROOT
ATOM      1  C   UNL     1      47.163   3.445  16.826  0.00  0.00    +0.000 C 
ENDROOT
BRANCH   1   2
ATOM      2  C   UNL     1      48.636   3.239  17.081  0.00  0.00    +0.000 A 
ATOM      3  C   UNL     1      49.399   4.306  17.544  0.00  0.00    +0.000 A 
ATOM      4  C   UNL     1      50.765   4.153  17.774  0.00  0.00    +0.000 A 
ATOM      5  C   UNL     1      51.414   2.919  17.603  0.00  0.00    +0.000 A 
ATOM      6  C   UNL     1      50.658   1.871  17.066  0.00  0.00    +0.000 A 
ATOM      7  C   UNL     1      49.281   2.023  16.823  0.00  0.00    +0.000 A 
BRANCH   5   8
ATOM      8  N   UNL     1      52.806   2.739  17.861  0.00  0.00    +0.000 N 
ATOM      9  H   UNL     1      53.345   3.175  17.111  0.00  0.00    +0.000 HD
BRANCH   8  10
ATOM     10  C   UNL     1      53.139   1.349  18.139  0.00  0.00    +0.000 C 
BRANCH  10  11
ATOM     11  C   UNL     1      54.055   0.662  17.124  0.00  0.00    +0.000 C 
BRANCH  11  12
ATOM     12  O   UNL     1      54.997  -0.162  17.811  0.00  0.00    +0.000 OA
ATOM     13  C   UNL     1      55.775  -1.088  17.057  0.00  0.00    +0.000 C 
ATOM     14  C   UNL     1      55.012  -2.398  16.921  0.00  0.00    +0.000 C 
ATOM     15  O   UNL     1      54.736  -2.903  18.227  0.00  0.00    +0.000 OA
ATOM     16  C   UNL     1      53.949  -1.989  18.998  0.00  0.00    +0.000 C 
ATOM     17  C   UNL     1      54.631  -0.624  19.100  0.00  0.00    +0.000 C 
ENDBRANCH  11  12
ENDBRANCH  10  11
ENDBRANCH   8  10
ENDBRANCH   5   8
ENDBRANCH   1   2
BRANCH   1  20
ATOM     18  C   UNL     1      46.908   4.271  14.511  0.00  0.00    +0.000 C 
ATOM     19  O   UNL     1      47.171   3.173  14.025  0.00  0.00    +0.000 OA
ATOM     20  N   UNL     1      46.935   4.495  15.864  0.00  0.00    +0.000 N 
ATOM     21  H   UNL     1      46.577   5.374  16.214  0.00  0.00    +0.000 HD
BRANCH  18  29
ATOM     22  C   UNL     1      44.182   5.062  12.668  0.00  0.00    +0.000 A 
ATOM     23  N   UNL     1      43.205   5.575  11.884  0.00  0.00    +0.000 NA
ATOM     24  C   UNL     1      43.399   6.751  11.270  0.00  0.00    +0.000 A 
ATOM     25  C   UNL     1      44.550   7.498  11.381  0.00  0.00    +0.000 A 
ATOM     26  C   UNL     1      45.554   6.968  12.201  0.00  0.00    +0.000 A 
ATOM     27  S   UNL     1      47.081   7.691  12.503  0.00  0.00    +0.000 S 
ATOM     28  C   UNL     1      47.569   6.408  13.495  0.00  0.00    +0.000 A 
ATOM     29  C   UNL     1      46.602   5.430  13.658  0.00  0.00    +0.000 A 
ATOM     30  C   UNL     1      45.403   5.749  12.879  0.00  0.00    +0.000 A 
BRANCH  22  32
ATOM     31  C   UNL     1      43.698   2.797  12.390  0.00  0.00    +0.000 C 
ATOM     32  O   UNL     1      43.937   3.862  13.305  0.00  0.00    +0.000 OA
ENDBRANCH  22  32
ENDBRANCH  18  29
ENDBRANCH   1  20
TORSDOF 8
ENDMDL
MODEL 6
REMARK VINA RESULT:    -6.262      1.752      2.383
REMARK INTER + INTRA:         -10.575
REMARK INTER:                  -9.326
REMARK INTRA:                  -1.249
REMARK UNBOUND:                -1.385
REMARK  Name = 
REMARK  9 active torsions:
REMARK  status: ('A' for Active; 'I' for Inactive)
REMARK    1  A    between atoms: C_1  and  O_2
REMARK    2  A    between atoms: O_2  and  C_3
REMARK    3  A    between atoms: C_10  and  C_11
REMARK    4  A    between atoms: N_13  and  C_14
REMARK    5  A    between atoms: C_14  and  C_15
REMARK    6  A    between atoms: C_18  and  N_19
REMARK    7  A    between atoms: N_19  and  C_20
REMARK    8  A    between atoms: C_20  and  C_21
REMARK    9  A    between atoms: C_21  and  O_22
REMARK                            x       y       z     vdW  Elec       q    Type
REMARK                         _______ _______ _______ _____ _____    ______ ____
ROOT
ATOM      1  C   UNL     1      48.732   7.085  13.698  0.00  0.00    +0.000 C 
ENDROOT
BRANCH   1   2
ATOM      2  C   UNL     1      47.302   6.753  13.351  0.00  0.00    +0.000 A 
ATOM      3  C   UNL     1      46.502   7.731  12.770  0.00  0.00    +0.000 A 
ATOM      4  C   UNL     1      45.172   7.461  12.452  0.00  0.00    +0.000 A 
ATOM      5  C   UNL     1      44.602   6.192  12.651  0.00  0.00    +0.000 A 
ATOM      6  C   UNL     1      45.388   5.237  13.304  0.00  0.00    +0.000 A 
ATOM      7  C   UNL     1      46.729   5.507  13.636  0.00  0.00    +0.000 A 
BRANCH   5   8
ATOM      8  N   UNL     1      43.251   5.893  12.306  0.00  0.00    +0.000 N 
ATOM      9  H   UNL     1      42.665   5.974  13.138  0.00  0.00    +0.000 HD
BRANCH   8  10
ATOM     10  C   UNL     1      43.134   4.633  11.585  0.00  0.00    +0.000 C 
BRANCH  10  11
ATOM     11  C   UNL     1      43.577   4.654  10.120  0.00  0.00    +0.000 C 
BRANCH  11  12
ATOM     12  O   UNL     1      44.909   4.152  10.016  0.00  0.00    +0.000 OA
ATOM     13  C   UNL     1      45.753   4.657   8.986  0.00  0.00    +0.000 C 
ATOM     14  C   UNL     1      45.548   3.842   7.716  0.00  0.00    +0.000 C 
ATOM     15  O   UNL     1      45.845   2.475   7.998  0.00  0.00    +0.000 OA
ATOM     16  C   UNL     1      45.001   1.947   9.027  0.00  0.00    +0.000 C 
ATOM     17  C   UNL     1      45.106   2.778  10.307  0.00  0.00    +0.000 C 
ENDBRANCH  11  12
ENDBRANCH  10  11
ENDBRANCH   8  10
ENDBRANCH   5   8
ENDBRANCH   1   2
BRANCH   1  20
ATOM     18  C   UNL     1      50.218   7.135  15.673  0.00  0.00    +0.000 C 
ATOM     19  O   UNL     1      51.217   7.360  14.993  0.00  0.00    +0.000 OA
ATOM     20  N   UNL     1      48.982   6.937  15.111  0.00  0.00    +0.000 N 
ATOM     21  H   UNL     1      48.176   6.894  15.721  0.00  0.00    +0.000 HD
BRANCH  18  29
ATOM     22  C   UNL     1      49.021   4.802  17.812  0.00  0.00    +0.000 A 
ATOM     23  N   UNL     1      48.650   3.992  18.831  0.00  0.00    +0.000 NA
ATOM     24  C   UNL     1      48.988   4.313  20.088  0.00  0.00    +0.000 A 
ATOM     25  C   UNL     1      49.706   5.437  20.429  0.00  0.00    +0.000 A 
ATOM     26  C   UNL     1      50.096   6.267  19.370  0.00  0.00    +0.000 A 
ATOM     27  S   UNL     1      50.987   7.726  19.522  0.00  0.00    +0.000 S 
ATOM     28  C   UNL     1      50.946   8.004  17.852  0.00  0.00    +0.000 A 
ATOM     29  C   UNL     1      50.303   7.007  17.136  0.00  0.00    +0.000 A 
ATOM     30  C   UNL     1      49.782   5.975  18.035  0.00  0.00    +0.000 A 
BRANCH  22  32
ATOM     31  C   UNL     1      47.911   3.224  16.499  0.00  0.00    +0.000 C 
ATOM     32  O   UNL     1      48.677   4.425  16.529  0.00  0.00    +0.000 OA
ENDBRANCH  22  32
ENDBRANCH  18  29
ENDBRANCH   1  20
TORSDOF 8
ENDMDL
MODEL 7
REMARK VINA RESULT:    -6.239      2.255      3.494
REMARK INTER + INTRA:         -10.542
REMARK INTER:                  -9.403
REMARK INTRA:                  -1.139
REMARK UNBOUND:                -1.385
REMARK  Name = 
REMARK  9 active torsions:
REMARK  status: ('A' for Active; 'I' for Inactive)
REMARK    1  A    between atoms: C_1  and  O_2
REMARK    2  A    between atoms: O_2  and  C_3
REMARK    3  A    between atoms: C_10  and  C_11
REMARK    4  A    between atoms: N_13  and  C_14
REMARK    5  A    between atoms: C_14  and  C_15
REMARK    6  A    between atoms: C_18  and  N_19
REMARK    7  A    between atoms: N_19  and  C_20
REMARK    8  A    between atoms: C_20  and  C_21
REMARK    9  A    between atoms: C_21  and  O_22
REMARK                            x       y       z     vdW  Elec       q    Type
REMARK                         _______ _______ _______ _____ _____    ______ ____
ROOT
ATOM      1  C   UNL     1      47.031   4.077  15.275  0.00  0.00    +0.000 C 
ENDROOT
BRANCH   1   2
ATOM      2  C   UNL     1      46.625   4.563  13.905  0.00  0.00    +0.000 A 
ATOM      3  C   UNL     1      45.758   3.789  13.142  0.00  0.00    +0.000 A 
ATOM      4  C   UNL     1      45.377   4.202  11.867  0.00  0.00    +0.000 A 
ATOM      5  C   UNL     1      45.801   5.425  11.323  0.00  0.00    +0.000 A 
ATOM      6  C   UNL     1      46.732   6.162  12.063  0.00  0.00    +0.000 A 
ATOM      7  C   UNL     1      47.127   5.745  13.348  0.00  0.00    +0.000 A 
BRANCH   5   8
ATOM      8  N   UNL     1      45.398   5.874  10.030  0.00  0.00    +0.000 N 
ATOM      9  H   UNL     1      44.612   6.517  10.127  0.00  0.00    +0.000 HD
BRANCH   8  10
ATOM     10  C   UNL     1      45.186   4.769   9.105  0.00  0.00    +0.000 C 
BRANCH  10  11
ATOM     11  C   UNL     1      46.302   4.520   8.088  0.00  0.00    +0.000 C 
BRANCH  11  12
ATOM     12  O   UNL     1      45.912   3.479   7.194  0.00  0.00    +0.000 OA
ATOM     13  C   UNL     1      45.369   2.279   7.736  0.00  0.00    +0.000 C 
ATOM     14  C   UNL     1      46.499   1.314   8.067  0.00  0.00    +0.000 C 
ATOM     15  O   UNL     1      47.237   1.051   6.874  0.00  0.00    +0.000 OA
ATOM     16  C   UNL     1      47.797   2.244   6.318  0.00  0.00    +0.000 C 
ATOM     17  C   UNL     1      46.712   3.285   6.039  0.00  0.00    +0.000 C 
ENDBRANCH  11  12
ENDBRANCH  10  11
ENDBRANCH   8  10
ENDBRANCH   5   8
ENDBRANCH   1   2
BRANCH   1  20
ATOM     18  C   UNL     1      47.641   5.242  17.368  0.00  0.00    +0.000 C 
ATOM     19  O   UNL     1      46.859   4.573  18.041  0.00  0.00    +0.000 OA
ATOM     20  N   UNL     1      47.743   5.095  16.008  0.00  0.00    +0.000 N 
ATOM     21  H   UNL     1      48.496   5.569  15.527  0.00  0.00    +0.000 HD
BRANCH  18  29
ATOM     22  C   UNL     1      50.997   5.611  17.585  0.00  0.00    +0.000 A 
ATOM     23  N   UNL     1      52.291   5.960  17.776  0.00  0.00    +0.000 NA
ATOM     24  C   UNL     1      52.581   7.088  18.441  0.00  0.00    +0.000 A 
ATOM     25  C   UNL     1      51.634   7.943  18.958  0.00  0.00    +0.000 A 
ATOM     26  C   UNL     1      50.296   7.583  18.748  0.00  0.00    +0.000 A 
ATOM     27  S   UNL     1      48.929   8.466  19.293  0.00  0.00    +0.000 S 
ATOM     28  C   UNL     1      47.853   7.328  18.648  0.00  0.00    +0.000 A 
ATOM     29  C   UNL     1      48.476   6.285  17.983  0.00  0.00    +0.000 A 
ATOM     30  C   UNL     1      49.933   6.422  18.049  0.00  0.00    +0.000 A 
BRANCH  22  32
ATOM     31  C   UNL     1      50.871   3.283  17.668  0.00  0.00    +0.000 C 
ATOM     32  O   UNL     1      50.737   4.458  16.874  0.00  0.00    +0.000 OA
ENDBRANCH  22  32
ENDBRANCH  18  29
ENDBRANCH   1  20
TORSDOF 8
ENDMDL
MODEL 8
REMARK VINA RESULT:    -5.998      2.431      3.767
REMARK INTER + INTRA:         -10.188
REMARK INTER:                  -9.131
REMARK INTRA:                  -1.057
REMARK UNBOUND:                -1.385
REMARK  Name = 
REMARK  9 active torsions:
REMARK  status: ('A' for Active; 'I' for Inactive)
REMARK    1  A    between atoms: C_1  and  O_2
REMARK    2  A    between atoms: O_2  and  C_3
REMARK    3  A    between atoms: C_10  and  C_11
REMARK    4  A    between atoms: N_13  and  C_14
REMARK    5  A    between atoms: C_14  and  C_15
REMARK    6  A    between atoms: C_18  and  N_19
REMARK    7  A    between atoms: N_19  and  C_20
REMARK    8  A    between atoms: C_20  and  C_21
REMARK    9  A    between atoms: C_21  and  O_22
REMARK                            x       y       z     vdW  Elec       q    Type
REMARK                         _______ _______ _______ _____ _____    ______ ____
ROOT
ATOM      1  C   UNL     1      46.770   4.841  14.185  0.00  0.00    +0.000 C 
ENDROOT
BRANCH   1   2
ATOM      2  C   UNL     1      45.980   4.699  12.907  0.00  0.00    +0.000 A 
ATOM      3  C   UNL     1      45.620   5.843  12.203  0.00  0.00    +0.000 A 
ATOM      4  C   UNL     1      44.876   5.746  11.028  0.00  0.00    +0.000 A 
ATOM      5  C   UNL     1      44.509   4.506  10.480  0.00  0.00    +0.000 A 
ATOM      6  C   UNL     1      44.809   3.365  11.231  0.00  0.00    +0.000 A 
ATOM      7  C   UNL     1      45.550   3.457  12.424  0.00  0.00    +0.000 A 
BRANCH   5   8
ATOM      8  N   UNL     1      43.772   4.390   9.264  0.00  0.00    +0.000 N 
ATOM      9  H   UNL     1      42.773   4.425   9.472  0.00  0.00    +0.000 HD
BRANCH   8  10
ATOM     10  C   UNL     1      44.202   3.249   8.468  0.00  0.00    +0.000 C 
BRANCH  10  11
ATOM     11  C   UNL     1      45.195   3.551   7.343  0.00  0.00    +0.000 C 
BRANCH  11  12
ATOM     12  O   UNL     1      46.496   3.101   7.720  0.00  0.00    +0.000 OA
ATOM     13  C   UNL     1      47.600   3.419   6.879  0.00  0.00    +0.000 C 
ATOM     14  C   UNL     1      47.747   2.348   5.806  0.00  0.00    +0.000 C 
ATOM     15  O   UNL     1      47.935   1.086   6.445  0.00  0.00    +0.000 OA
ATOM     16  C   UNL     1      46.831   0.745   7.290  0.00  0.00    +0.000 C 
ATOM     17  C   UNL     1      46.585   1.829   8.340  0.00  0.00    +0.000 C 
ENDBRANCH  11  12
ENDBRANCH  10  11
ENDBRANCH   8  10
ENDBRANCH   5   8
ENDBRANCH   1   2
BRANCH   1  20
ATOM     18  C   UNL     1      48.281   6.761  13.813  0.00  0.00    +0.000 C 
ATOM     19  O   UNL     1      49.053   6.098  13.123  0.00  0.00    +0.000 OA
ATOM     20  N   UNL     1      47.175   6.207  14.407  0.00  0.00    +0.000 N 
ATOM     21  H   UNL     1      46.503   6.824  14.845  0.00  0.00    +0.000 HD
BRANCH  18  29
ATOM     22  C   UNL     1      48.727   8.460  16.705  0.00  0.00    +0.000 A 
ATOM     23  N   UNL     1      48.940   9.324  17.725  0.00  0.00    +0.000 NA
ATOM     24  C   UNL     1      49.139  10.623  17.461  0.00  0.00    +0.000 A 
ATOM     25  C   UNL     1      49.145  11.160  16.194  0.00  0.00    +0.000 A 
ATOM     26  C   UNL     1      48.934  10.261  15.141  0.00  0.00    +0.000 A 
ATOM     27  S   UNL     1      48.886  10.670  13.474  0.00  0.00    +0.000 S 
ATOM     28  C   UNL     1      48.573   9.069  13.021  0.00  0.00    +0.000 A 
ATOM     29  C   UNL     1      48.532   8.184  14.087  0.00  0.00    +0.000 A 
ATOM     30  C   UNL     1      48.733   8.889  15.355  0.00  0.00    +0.000 A 
BRANCH  22  32
ATOM     31  C   UNL     1      49.351   6.710  18.116  0.00  0.00    +0.000 C 
ATOM     32  O   UNL     1      48.551   7.127  17.013  0.00  0.00    +0.000 OA
ENDBRANCH  22  32
ENDBRANCH  18  29
ENDBRANCH   1  20
TORSDOF 8
ENDMDL
MODEL 9
REMARK VINA RESULT:    -5.881      3.741      9.020
REMARK INTER + INTRA:         -10.016
REMARK INTER:                  -9.128
REMARK INTRA:                  -0.888
REMARK UNBOUND:                -1.385
REMARK  Name = 
REMARK  9 active torsions:
REMARK  status: ('A' for Active; 'I' for Inactive)
REMARK    1  A    between atoms: C_1  and  O_2
REMARK    2  A    between atoms: O_2  and  C_3
REMARK    3  A    between atoms: C_10  and  C_11
REMARK    4  A    between atoms: N_13  and  C_14
REMARK    5  A    between atoms: C_14  and  C_15
REMARK    6  A    between atoms: C_18  and  N_19
REMARK    7  A    between atoms: N_19  and  C_20
REMARK    8  A    between atoms: C_20  and  C_21
REMARK    9  A    between atoms: C_21  and  O_22
REMARK                            x       y       z     vdW  Elec       q    Type
REMARK                         _______ _______ _______ _____ _____    ______ ____
ROOT
ATOM      1  C   UNL     1      47.245   3.432  16.832  0.00  0.00    +0.000 C 
ENDROOT
BRANCH   1   2
ATOM      2  C   UNL     1      48.703   3.399  17.221  0.00  0.00    +0.000 A 
ATOM      3  C   UNL     1      49.467   2.286  16.890  0.00  0.00    +0.000 A 
ATOM      4  C   UNL     1      50.812   2.219  17.250  0.00  0.00    +0.000 A 
ATOM      5  C   UNL     1      51.462   3.278  17.905  0.00  0.00    +0.000 A 
ATOM      6  C   UNL     1      50.670   4.361  18.302  0.00  0.00    +0.000 A 
ATOM      7  C   UNL     1      49.309   4.430  17.950  0.00  0.00    +0.000 A 
BRANCH   5   8
ATOM      8  N   UNL     1      52.844   3.234  18.255  0.00  0.00    +0.000 N 
ATOM      9  H   UNL     1      52.948   2.771  19.159  0.00  0.00    +0.000 HD
BRANCH   8  10
ATOM     10  C   UNL     1      53.479   4.541  18.150  0.00  0.00    +0.000 C 
BRANCH  10  11
ATOM     11  C   UNL     1      54.625   4.652  17.143  0.00  0.00    +0.000 C 
BRANCH  11  12
ATOM     12  O   UNL     1      54.325   5.667  16.185  0.00  0.00    +0.000 OA
ATOM     13  C   UNL     1      55.397   6.413  15.619  0.00  0.00    +0.000 C 
ATOM     14  C   UNL     1      55.710   7.609  16.508  0.00  0.00    +0.000 C 
ATOM     15  O   UNL     1      54.534   8.409  16.626  0.00  0.00    +0.000 OA
ATOM     16  C   UNL     1      53.446   7.678  17.201  0.00  0.00    +0.000 C 
ATOM     17  C   UNL     1      53.139   6.418  16.391  0.00  0.00    +0.000 C 
ENDBRANCH  11  12
ENDBRANCH  10  11
ENDBRANCH   8  10
ENDBRANCH   5   8
ENDBRANCH   1   2
BRANCH   1  20
ATOM     18  C   UNL     1      46.953   4.270  14.526  0.00  0.00    +0.000 C 
ATOM     19  O   UNL     1      47.256   3.187  14.028  0.00  0.00    +0.000 OA
ATOM     20  N   UNL     1      46.975   4.482  15.881  0.00  0.00    +0.000 N 
ATOM     21  H   UNL     1      46.585   5.342  16.241  0.00  0.00    +0.000 HD
BRANCH  18  29
ATOM     22  C   UNL     1      44.174   4.998  12.738  0.00  0.00    +0.000 A 
ATOM     23  N   UNL     1      43.169   5.489  11.975  0.00  0.00    +0.000 NA
ATOM     24  C   UNL     1      43.320   6.673  11.363  0.00  0.00    +0.000 A 
ATOM     25  C   UNL     1      44.453   7.449  11.458  0.00  0.00    +0.000 A 
ATOM     26  C   UNL     1      45.486   6.942  12.257  0.00  0.00    +0.000 A 
ATOM     27  S   UNL     1      46.998   7.704  12.535  0.00  0.00    +0.000 S 
ATOM     28  C   UNL     1      47.538   6.429  13.510  0.00  0.00    +0.000 A 
ATOM     29  C   UNL     1      46.600   5.424  13.685  0.00  0.00    +0.000 A 
ATOM     30  C   UNL     1      45.379   5.715  12.930  0.00  0.00    +0.000 A 
BRANCH  22  32
ATOM     31  C   UNL     1      43.680   2.734  12.459  0.00  0.00    +0.000 C 
ATOM     32  O   UNL     1      43.972   3.789  13.372  0.00  0.00    +0.000 OA
ENDBRANCH  22  32
ENDBRANCH  18  29
ENDBRANCH   1  20
TORSDOF 8
ENDMDL
