MODEL 1
REMARK VINA RESULT:    -7.660      0.000      0.000
REMARK INTER + INTRA:         -10.795
REMARK INTER:                  -9.898
REMARK INTRA:                  -0.897
REMARK UNBOUND:                -0.897
REMARK  Name = 
REMARK  8 active torsions:
REMARK  status: ('A' for Active; 'I' for Inactive)
REMARK    1  A    between atoms: C_1  and  C_2
REMARK    2  A    between atoms: C_2  and  C_3
REMARK    3  A    between atoms: C_2  and  C_4
REMARK    4  A    between atoms: C_2  and  C_5
REMARK    5  A    between atoms: C_9  and  N_10
REMARK    6  A    between atoms: N_10  and  C_11
REMARK    7  A    between atoms: C_11  and  C_12
REMARK    8  A    between atoms: C_17  and  C_18
REMARK                            x       y       z     vdW  Elec       q    Type
REMARK                         _______ _______ _______ _____ _____    ______ ____
ROOT
ATOM      1  C   UNL     1      43.985   6.335  11.030  0.00  0.00    +0.000 C 
ENDROOT
BRANCH   1   2
ATOM      2  C   UNL     1      44.066   4.881  10.641  0.00  0.00    +0.000 A 
ATOM      3  C   UNL     1      43.365   3.903  11.357  0.00  0.00    +0.000 A 
ATOM      4  C   UNL     1      43.508   2.559  11.021  0.00  0.00    +0.000 A 
ATOM      5  F   UNL     1      42.849   1.633  11.730  0.00  0.00    +0.000 F 
ATOM      6  C   UNL     1      44.326   2.157   9.971  0.00  0.00    +0.000 A 
ATOM      7  C   UNL     1      45.015   3.124   9.234  0.00  0.00    +0.000 A 
ATOM      8  C   UNL     1      44.876   4.479   9.567  0.00  0.00    +0.000 A 
BRANCH   7   9
ATOM      9  C   UNL     1      45.852   2.760   8.088  0.00  0.00    +0.000 C 
ATOM     10  C   UNL     1      46.113   3.665   7.130  0.00  0.00    +0.000 C 
ATOM     11  C   UNL     1      47.075   3.394   6.014  0.00  0.00    +0.000 C 
ATOM     12  O   UNL     1      47.892   2.246   6.269  0.00  0.00    +0.000 OA
ATOM     13  C   UNL     1      47.114   1.122   6.688  0.00  0.00    +0.000 C 
ATOM     14  C   UNL     1      46.480   1.394   8.055  0.00  0.00    +0.000 C 
ENDBRANCH   7   9
ENDBRANCH   1   2
BRANCH   1  15
ATOM     15  N   UNL     1      44.337   6.541  12.413  0.00  0.00    +0.000 N 
ATOM     16  H   UNL     1      43.685   6.974  13.056  0.00  0.00    +0.000 HD
BRANCH  15  21
ATOM     17  C   UNL     1      47.770   6.909  13.235  0.00  0.00    +0.000 A 
ATOM     18  N   UNL     1      48.081   5.810  13.951  0.00  0.00    +0.000 NA
ATOM     19  C   UNL     1      47.096   4.926  14.146  0.00  0.00    +0.000 A 
ATOM     20  C   UNL     1      45.823   5.095  13.660  0.00  0.00    +0.000 A 
ATOM     21  C   UNL     1      45.572   6.244  12.938  0.00  0.00    +0.000 A 
ATOM     22  N   UNL     1      46.542   7.150  12.721  0.00  0.00    +0.000 NA
BRANCH  17  24
ATOM     23  C   UNL     1      48.340   9.336  13.132  0.00  0.00    +0.000 C 
ATOM     24  C   UNL     1      48.900   7.907  12.991  0.00  0.00    +0.000 C 
ATOM     25  C   UNL     1      49.455   7.718  11.566  0.00  0.00    +0.000 C 
ATOM     26  C   UNL     1      50.059   7.735  13.989  0.00  0.00    +0.000 C 
ENDBRANCH  17  24
ENDBRANCH  15  21
ENDBRANCH   1  15
TORSDOF 5
ENDMDL
MODEL 2
REMARK VINA RESULT:    -7.298      1.327      2.122
REMARK INTER + INTRA:         -10.329
REMARK INTER:                  -9.517
REMARK INTRA:                  -0.811
REMARK UNBOUND:                -0.897
REMARK  Name = 
REMARK  8 active torsions:
REMARK  status: ('A' for Active; 'I' for Inactive)
REMARK    1  A    between atoms: C_1  and  C_2
REMARK    2  A    between atoms: C_2  and  C_3
REMARK    3  A    between atoms: C_2  and  C_4
REMARK    4  A    between atoms: C_2  and  C_5
REMARK    5  A    between atoms: C_9  and  N_10
REMARK    6  A    between atoms: N_10  and  C_11
REMARK    7  A    between atoms: C_11  and  C_12
REMARK    8  A    between atoms: C_17  and  C_18
REMARK                            x       y       z     vdW  Elec       q    Type
REMARK                         _______ _______ _______ _____ _____    ______ ____
ROOT
ATOM      1  C   UNL     1      45.292   6.540  11.005  0.00  0.00    +0.000 C 
ENDROOT
BRANCH   1   2
ATOM      2  C   UNL     1      44.952   5.134  10.583  0.00  0.00    +0.000 A 
ATOM      3  C   UNL     1      44.005   4.379  11.287  0.00  0.00    +0.000 A 
ATOM      4  C   UNL     1      43.756   3.059  10.920  0.00  0.00    +0.000 A 
ATOM      5  F   UNL     1      42.865   2.343  11.617  0.00  0.00    +0.000 F 
ATOM      6  C   UNL     1      44.417   2.467   9.850  0.00  0.00    +0.000 A 
ATOM      7  C   UNL     1      45.349   3.215   9.125  0.00  0.00    +0.000 A 
ATOM      8  C   UNL     1      45.605   4.545   9.490  0.00  0.00    +0.000 A 
BRANCH   7   9
ATOM      9  C   UNL     1      46.038   2.655   7.960  0.00  0.00    +0.000 C 
ATOM     10  C   UNL     1      46.273   3.424   6.883  0.00  0.00    +0.000 C 
ATOM     11  C   UNL     1      47.098   2.949   5.725  0.00  0.00    +0.000 C 
ATOM     12  O   UNL     1      47.845   1.768   6.039  0.00  0.00    +0.000 OA
ATOM     13  C   UNL     1      47.028   0.770   6.655  0.00  0.00    +0.000 C 
ATOM     14  C   UNL     1      46.553   1.244   8.031  0.00  0.00    +0.000 C 
ENDBRANCH   7   9
ENDBRANCH   1   2
BRANCH   1  15
ATOM     15  N   UNL     1      45.831   6.584  12.341  0.00  0.00    +0.000 N 
ATOM     16  H   UNL     1      45.241   6.410  13.145  0.00  0.00    +0.000 HD
BRANCH  15  21
ATOM     17  C   UNL     1      48.776   7.128  14.245  0.00  0.00    +0.000 A 
ATOM     18  N   UNL     1      49.700   7.543  13.356  0.00  0.00    +0.000 NA
ATOM     19  C   UNL     1      49.299   7.646  12.083  0.00  0.00    +0.000 A 
ATOM     20  C   UNL     1      48.025   7.350  11.667  0.00  0.00    +0.000 A 
ATOM     21  C   UNL     1      47.131   6.927  12.629  0.00  0.00    +0.000 A 
ATOM     22  N   UNL     1      47.501   6.818  13.918  0.00  0.00    +0.000 NA
BRANCH  17  24
ATOM     23  C   UNL     1      48.598   5.777  16.336  0.00  0.00    +0.000 C 
ATOM     24  C   UNL     1      49.226   7.034  15.702  0.00  0.00    +0.000 C 
ATOM     25  C   UNL     1      48.750   8.282  16.469  0.00  0.00    +0.000 C 
ATOM     26  C   UNL     1      50.756   6.937  15.837  0.00  0.00    +0.000 C 
ENDBRANCH  17  24
ENDBRANCH  15  21
ENDBRANCH   1  15
TORSDOF 5
ENDMDL
MODEL 3
REMARK VINA RESULT:    -7.232      2.020      2.976
REMARK INTER + INTRA:         -10.243
REMARK INTER:                  -9.487
REMARK INTRA:                  -0.756
REMARK UNBOUND:                -0.897
REMARK  Name = 
REMARK  8 active torsions:
REMARK  status: ('A' for Active; 'I' for Inactive)
REMARK    1  A    between atoms: C_1  and  C_2
REMARK    2  A    between atoms: C_2  and  C_3
REMARK    3  A    between atoms: C_2  and  C_4
REMARK    4  A    between atoms: C_2  and  C_5
REMARK    5  A    between atoms: C_9  and  N_10
REMARK    6  A    between atoms: N_10  and  C_11
REMARK    7  A    between atoms: C_11  and  C_12
REMARK    8  A    between atoms: C_17  and  C_18
REMARK                            x       y       z     vdW  Elec       q    Type
REMARK                         _______ _______ _______ _____ _____    ______ ____
ROOT
ATOM      1  C   UNL     1      46.323   7.467  12.207  0.00  0.00    +0.000 C 
ENDROOT
BRANCH   1   2
ATOM      2  C   UNL     1      45.348   6.530  11.543  0.00  0.00    +0.000 A 
ATOM      3  C   UNL     1      43.987   6.555  11.871  0.00  0.00    +0.000 A 
ATOM      4  C   UNL     1      43.115   5.635  11.294  0.00  0.00    +0.000 A 
ATOM      5  F   UNL     1      41.820   5.657  11.635  0.00  0.00    +0.000 F 
ATOM      6  C   UNL     1      43.561   4.690  10.377  0.00  0.00    +0.000 A 
ATOM      7  C   UNL     1      44.913   4.667  10.023  0.00  0.00    +0.000 A 
ATOM      8  C   UNL     1      45.796   5.590  10.601  0.00  0.00    +0.000 A 
BRANCH   7   9
ATOM      9  C   UNL     1      45.427   3.724   9.028  0.00  0.00    +0.000 C 
ATOM     10  C   UNL     1      45.996   4.180   7.899  0.00  0.00    +0.000 C 
ATOM     11  C   UNL     1      46.666   3.269   6.915  0.00  0.00    +0.000 C 
ATOM     12  O   UNL     1      46.909   1.968   7.460  0.00  0.00    +0.000 OA
ATOM     13  C   UNL     1      45.746   1.430   8.093  0.00  0.00    +0.000 C 
ATOM     14  C   UNL     1      45.386   2.252   9.334  0.00  0.00    +0.000 C 
ENDBRANCH   7   9
ENDBRANCH   1   2
BRANCH   1  15
ATOM     15  N   UNL     1      47.536   6.792  12.597  0.00  0.00    +0.000 N 
ATOM     16  H   UNL     1      48.344   6.782  11.987  0.00  0.00    +0.000 HD
BRANCH  15  21
ATOM     17  C   UNL     1      48.750   5.831  15.790  0.00  0.00    +0.000 A 
ATOM     18  N   UNL     1      48.022   4.750  16.134  0.00  0.00    +0.000 NA
ATOM     19  C   UNL     1      47.106   4.342  15.249  0.00  0.00    +0.000 A 
ATOM     20  C   UNL     1      46.888   4.965  14.046  0.00  0.00    +0.000 A 
ATOM     21  C   UNL     1      47.666   6.068  13.759  0.00  0.00    +0.000 A 
ATOM     22  N   UNL     1      48.599   6.502  14.626  0.00  0.00    +0.000 NA
BRANCH  17  24
ATOM     23  C   UNL     1      50.419   5.042  17.471  0.00  0.00    +0.000 C 
ATOM     24  C   UNL     1      49.813   6.284  16.789  0.00  0.00    +0.000 C 
ATOM     25  C   UNL     1      49.164   7.184  17.857  0.00  0.00    +0.000 C 
ATOM     26  C   UNL     1      50.950   7.075  16.116  0.00  0.00    +0.000 C 
ENDBRANCH  17  24
ENDBRANCH  15  21
ENDBRANCH   1  15
TORSDOF 5
ENDMDL
MODEL 4
REMARK VINA RESULT:    -7.025      5.301      8.799
REMARK INTER + INTRA:          -9.976
REMARK INTER:                  -9.136
REMARK INTRA:                  -0.840
REMARK UNBOUND:                -0.897
REMARK  Name = 
REMARK  8 active torsions:
REMARK  status: ('A' for Active; 'I' for Inactive)
REMARK    1  A    between atoms: C_1  and  C_2
REMARK    2  A    between atoms: C_2  and  C_3
REMARK    3  A    between atoms: C_2  and  C_4
REMARK    4  A    between atoms: C_2  and  C_5
REMARK    5  A    between atoms: C_9  and  N_10
REMARK    6  A    between atoms: N_10  and  C_11
REMARK    7  A    between atoms: C_11  and  C_12
REMARK    8  A    between atoms: C_17  and  C_18
REMARK                            x       y       z     vdW  Elec       q    Type
REMARK                         _______ _______ _______ _____ _____    ______ ____
ROOT
ATOM      1  C   UNL     1      47.056   4.000  16.385  0.00  0.00    +0.000 C 
ENDROOT
BRANCH   1   2
ATOM      2  C   UNL     1      48.388   4.462  16.916  0.00  0.00    +0.000 A 
ATOM      3  C   UNL     1      48.630   5.817  17.175  0.00  0.00    +0.000 A 
ATOM      4  C   UNL     1      49.890   6.229  17.603  0.00  0.00    +0.000 A 
ATOM      5  F   UNL     1      50.113   7.531  17.824  0.00  0.00    +0.000 F 
ATOM      6  C   UNL     1      50.923   5.319  17.798  0.00  0.00    +0.000 A 
ATOM      7  C   UNL     1      50.690   3.961  17.564  0.00  0.00    +0.000 A 
ATOM      8  C   UNL     1      49.424   3.539  17.132  0.00  0.00    +0.000 A 
BRANCH   7   9
ATOM      9  C   UNL     1      51.728   2.955  17.799  0.00  0.00    +0.000 C 
ATOM     10  C   UNL     1      52.866   3.295  18.428  0.00  0.00    +0.000 C 
ATOM     11  C   UNL     1      53.897   2.282  18.822  0.00  0.00    +0.000 C 
ATOM     12  O   UNL     1      53.395   0.943  18.753  0.00  0.00    +0.000 OA
ATOM     13  C   UNL     1      52.732   0.686  17.513  0.00  0.00    +0.000 C 
ATOM     14  C   UNL     1      51.458   1.529  17.406  0.00  0.00    +0.000 C 
ENDBRANCH   7   9
ENDBRANCH   1   2
BRANCH   1  15
ATOM     15  N   UNL     1      47.134   3.623  14.995  0.00  0.00    +0.000 N 
ATOM     16  H   UNL     1      47.588   2.762  14.715  0.00  0.00    +0.000 HD
BRANCH  15  21
ATOM     17  C   UNL     1      45.075   4.733  12.326  0.00  0.00    +0.000 A 
ATOM     18  N   UNL     1      45.629   5.889  11.910  0.00  0.00    +0.000 NA
ATOM     19  C   UNL     1      46.733   6.287  12.553  0.00  0.00    +0.000 A 
ATOM     20  C   UNL     1      47.300   5.584  13.587  0.00  0.00    +0.000 A 
ATOM     21  C   UNL     1      46.679   4.411  13.964  0.00  0.00    +0.000 A 
ATOM     22  N   UNL     1      45.570   3.981  13.335  0.00  0.00    +0.000 NA
BRANCH  17  24
ATOM     23  C   UNL     1      43.469   2.843  12.050  0.00  0.00    +0.000 C 
ATOM     24  C   UNL     1      43.829   4.265  11.577  0.00  0.00    +0.000 C 
ATOM     25  C   UNL     1      44.117   4.240  10.064  0.00  0.00    +0.000 C 
ATOM     26  C   UNL     1      42.618   5.184  11.825  0.00  0.00    +0.000 C 
ENDBRANCH  17  24
ENDBRANCH  15  21
ENDBRANCH   1  15
TORSDOF 5
ENDMDL
MODEL 5
REMARK VINA RESULT:    -6.935      3.213      5.551
REMARK INTER + INTRA:          -9.859
REMARK INTER:                  -8.756
REMARK INTRA:                  -1.102
REMARK UNBOUND:                -0.897
REMARK  Name = 
REMARK  8 active torsions:
REMARK  status: ('A' for Active; 'I' for Inactive)
REMARK    1  A    between atoms: C_1  and  C_2
REMARK    2  A    between atoms: C_2  and  C_3
REMARK    3  A    between atoms: C_2  and  C_4
REMARK    4  A    between atoms: C_2  and  C_5
REMARK    5  A    between atoms: C_9  and  N_10
REMARK    6  A    between atoms: N_10  and  C_11
REMARK    7  A    between atoms: C_11  and  C_12
REMARK    8  A    between atoms: C_17  and  C_18
REMARK                            x       y       z     vdW  Elec       q    Type
REMARK                         _______ _______ _______ _____ _____    ______ ____
ROOT
ATOM      1  C   UNL     1      49.250   7.498  12.681  0.00  0.00    +0.000 C 
ENDROOT
BRANCH   1   2
ATOM      2  C   UNL     1      47.758   7.496  12.473  0.00  0.00    +0.000 A 
ATOM      3  C   UNL     1      47.008   8.670  12.620  0.00  0.00    +0.000 A 
ATOM      4  C   UNL     1      45.622   8.630  12.488  0.00  0.00    +0.000 A 
ATOM      5  F   UNL     1      44.916   9.757  12.655  0.00  0.00    +0.000 F 
ATOM      6  C   UNL     1      44.954   7.447  12.195  0.00  0.00    +0.000 A 
ATOM      7  C   UNL     1      45.692   6.272  12.024  0.00  0.00    +0.000 A 
ATOM      8  C   UNL     1      47.088   6.304  12.156  0.00  0.00    +0.000 A 
BRANCH   7   9
ATOM      9  C   UNL     1      45.044   5.008  11.667  0.00  0.00    +0.000 C 
ATOM     10  C   UNL     1      44.519   4.226  12.626  0.00  0.00    +0.000 C 
ATOM     11  C   UNL     1      43.721   2.997  12.309  0.00  0.00    +0.000 C 
ATOM     12  O   UNL     1      43.323   2.949  10.935  0.00  0.00    +0.000 OA
ATOM     13  C   UNL     1      44.419   3.207  10.054  0.00  0.00    +0.000 C 
ATOM     14  C   UNL     1      44.902   4.651  10.213  0.00  0.00    +0.000 C 
ENDBRANCH   7   9
ENDBRANCH   1   2
BRANCH   1  15
ATOM     15  N   UNL     1      49.607   7.934  14.008  0.00  0.00    +0.000 N 
ATOM     16  H   UNL     1      49.733   8.917  14.216  0.00  0.00    +0.000 HD
BRANCH  15  21
ATOM     17  C   UNL     1      49.115   5.314  16.352  0.00  0.00    +0.000 A 
ATOM     18  N   UNL     1      50.250   5.272  17.077  0.00  0.00    +0.000 NA
ATOM     19  C   UNL     1      51.194   6.165  16.760  0.00  0.00    +0.000 A 
ATOM     20  C   UNL     1      51.053   7.088  15.755  0.00  0.00    +0.000 A 
ATOM     21  C   UNL     1      49.867   7.074  15.049  0.00  0.00    +0.000 A 
ATOM     22  N   UNL     1      48.896   6.192  15.346  0.00  0.00    +0.000 NA
BRANCH  17  24
ATOM     23  C   UNL     1      47.032   4.192  15.556  0.00  0.00    +0.000 C 
ATOM     24  C   UNL     1      48.026   4.311  16.728  0.00  0.00    +0.000 C 
ATOM     25  C   UNL     1      47.278   4.810  17.980  0.00  0.00    +0.000 C 
ATOM     26  C   UNL     1      48.596   2.913  17.030  0.00  0.00    +0.000 C 
ENDBRANCH  17  24
ENDBRANCH  15  21
ENDBRANCH   1  15
TORSDOF 5
ENDMDL
MODEL 6
REMARK VINA RESULT:    -6.849      3.585      5.309
REMARK INTER + INTRA:          -9.748
REMARK INTER:                  -8.990
REMARK INTRA:                  -0.758
REMARK UNBOUND:                -0.897
REMARK  Name = 
REMARK  8 active torsions:
REMARK  status: ('A' for Active; 'I' for Inactive)
REMARK    1  A    between atoms: C_1  and  C_2
REMARK    2  A    between atoms: C_2  and  C_3
REMARK    3  A    between atoms: C_2  and  C_4
REMARK    4  A    between atoms: C_2  and  C_5
REMARK    5  A    between atoms: C_9  and  N_10
REMARK    6  A    between atoms: N_10  and  C_11
REMARK    7  A    between atoms: C_11  and  C_12
REMARK    8  A    between atoms: C_17  and  C_18
REMARK                            x       y       z     vdW  Elec       q    Type
REMARK                         _______ _______ _______ _____ _____    ______ ____
ROOT
ATOM      1  C   UNL     1      48.382   6.750  14.232  0.00  0.00    +0.000 C 
ENDROOT
BRANCH   1   2
ATOM      2  C   UNL     1      47.235   6.977  13.280  0.00  0.00    +0.000 A 
ATOM      3  C   UNL     1      46.548   8.197  13.258  0.00  0.00    +0.000 A 
ATOM      4  C   UNL     1      45.449   8.361  12.418  0.00  0.00    +0.000 A 
ATOM      5  F   UNL     1      44.788   9.526  12.425  0.00  0.00    +0.000 F 
ATOM      6  C   UNL     1      45.020   7.340  11.578  0.00  0.00    +0.000 A 
ATOM      7  C   UNL     1      45.709   6.124  11.574  0.00  0.00    +0.000 A 
ATOM      8  C   UNL     1      46.816   5.952  12.418  0.00  0.00    +0.000 A 
BRANCH   7   9
ATOM      9  C   UNL     1      45.329   5.033  10.675  0.00  0.00    +0.000 C 
ATOM     10  C   UNL     1      45.556   5.137   9.354  0.00  0.00    +0.000 C 
ATOM     11  C   UNL     1      45.320   3.999   8.409  0.00  0.00    +0.000 C 
ATOM     12  O   UNL     1      45.156   2.751   9.093  0.00  0.00    +0.000 OA
ATOM     13  C   UNL     1      44.220   2.853  10.168  0.00  0.00    +0.000 C 
ATOM     14  C   UNL     1      44.768   3.769  11.266  0.00  0.00    +0.000 C 
ENDBRANCH   7   9
ENDBRANCH   1   2
BRANCH   1  15
ATOM     15  N   UNL     1      47.922   6.388  15.549  0.00  0.00    +0.000 N 
ATOM     16  H   UNL     1      47.311   7.002  16.073  0.00  0.00    +0.000 HD
BRANCH  15  21
ATOM     17  C   UNL     1      49.992   4.182  17.405  0.00  0.00    +0.000 A 
ATOM     18  N   UNL     1      49.250   3.072  17.588  0.00  0.00    +0.000 NA
ATOM     19  C   UNL     1      48.022   3.080  17.056  0.00  0.00    +0.000 A 
ATOM     20  C   UNL     1      47.509   4.145  16.358  0.00  0.00    +0.000 A 
ATOM     21  C   UNL     1      48.321   5.251  16.211  0.00  0.00    +0.000 A 
ATOM     22  N   UNL     1      49.563   5.272  16.730  0.00  0.00    +0.000 NA
BRANCH  17  24
ATOM     23  C   UNL     1      51.968   2.735  17.884  0.00  0.00    +0.000 C 
ATOM     24  C   UNL     1      51.403   4.164  17.991  0.00  0.00    +0.000 C 
ATOM     25  C   UNL     1      51.349   4.580  19.473  0.00  0.00    +0.000 C 
ATOM     26  C   UNL     1      52.355   5.124  17.253  0.00  0.00    +0.000 C 
ENDBRANCH  17  24
ENDBRANCH  15  21
ENDBRANCH   1  15
TORSDOF 5
ENDMDL
MODEL 7
REMARK VINA RESULT:    -6.687      3.605      7.389
REMARK INTER + INTRA:          -9.538
REMARK INTER:                  -8.615
REMARK INTRA:                  -0.924
REMARK UNBOUND:                -0.897
REMARK  Name = 
REMARK  8 active torsions:
REMARK  status: ('A' for Active; 'I' for Inactive)
REMARK    1  A    between atoms: C_1  and  C_2
REMARK    2  A    between atoms: C_2  and  C_3
REMARK    3  A    between atoms: C_2  and  C_4
REMARK    4  A    between atoms: C_2  and  C_5
REMARK    5  A    between atoms: C_9  and  N_10
REMARK    6  A    between atoms: N_10  and  C_11
REMARK    7  A    between atoms: C_11  and  C_12
REMARK    8  A    between atoms: C_17  and  C_18
REMARK                            x       y       z     vdW  Elec       q    Type
REMARK                         _______ _______ _______ _____ _____    ______ ____
ROOT
ATOM      1  C   UNL     1      44.374   5.550  11.613  0.00  0.00    +0.000 C 
ENDROOT
BRANCH   1   2
ATOM      2  C   UNL     1      45.705   5.939  12.203  0.00  0.00    +0.000 A 
ATOM      3  C   UNL     1      46.581   6.783  11.510  0.00  0.00    +0.000 A 
ATOM      4  C   UNL     1      47.834   7.075  12.045  0.00  0.00    +0.000 A 
ATOM      5  F   UNL     1      48.670   7.866  11.360  0.00  0.00    +0.000 F 
ATOM      6  C   UNL     1      48.237   6.558  13.271  0.00  0.00    +0.000 A 
ATOM      7  C   UNL     1      47.365   5.731  13.983  0.00  0.00    +0.000 A 
ATOM      8  C   UNL     1      46.102   5.432  13.450  0.00  0.00    +0.000 A 
BRANCH   7   9
ATOM      9  C   UNL     1      47.720   5.197  15.300  0.00  0.00    +0.000 C 
ATOM     10  C   UNL     1      47.246   4.004  15.694  0.00  0.00    +0.000 C 
ATOM     11  C   UNL     1      47.689   3.345  16.965  0.00  0.00    +0.000 C 
ATOM     12  O   UNL     1      48.867   3.952  17.508  0.00  0.00    +0.000 OA
ATOM     13  C   UNL     1      48.752   5.376  17.567  0.00  0.00    +0.000 C 
ATOM     14  C   UNL     1      48.691   5.965  16.155  0.00  0.00    +0.000 C 
ENDBRANCH   7   9
ENDBRANCH   1   2
BRANCH   1  15
ATOM     15  N   UNL     1      44.468   5.294  10.197  0.00  0.00    +0.000 N 
ATOM     16  H   UNL     1      44.303   6.032   9.524  0.00  0.00    +0.000 HD
BRANCH  15  21
ATOM     17  C   UNL     1      45.877   2.802   8.099  0.00  0.00    +0.000 A 
ATOM     18  N   UNL     1      45.324   1.643   8.508  0.00  0.00    +0.000 NA
ATOM     19  C   UNL     1      44.447   1.723   9.515  0.00  0.00    +0.000 A 
ATOM     20  C   UNL     1      44.105   2.903  10.127  0.00  0.00    +0.000 A 
ATOM     21  C   UNL     1      44.711   4.052   9.661  0.00  0.00    +0.000 A 
ATOM     22  N   UNL     1      45.594   4.006   8.646  0.00  0.00    +0.000 NA
BRANCH  17  24
ATOM     23  C   UNL     1      47.680   4.020   6.877  0.00  0.00    +0.000 C 
ATOM     24  C   UNL     1      46.860   2.716   6.933  0.00  0.00    +0.000 C 
ATOM     25  C   UNL     1      46.081   2.548   5.615  0.00  0.00    +0.000 C 
ATOM     26  C   UNL     1      47.834   1.532   7.075  0.00  0.00    +0.000 C 
ENDBRANCH  17  24
ENDBRANCH  15  21
ENDBRANCH   1  15
TORSDOF 5
ENDMDL
MODEL 8
REMARK VINA RESULT:    -6.648      3.048      7.018
REMARK INTER + INTRA:          -9.488
REMARK INTER:                  -8.576
REMARK INTRA:                  -0.912
REMARK UNBOUND:                -0.897
REMARK  Name = 
REMARK  8 active torsions:
REMARK  status: ('A' for Active; 'I' for Inactive)
REMARK    1  A    between atoms: C_1  and  C_2
REMARK    2  A    between atoms: C_2  and  C_3
REMARK    3  A    between atoms: C_2  and  C_4
REMARK    4  A    between atoms: C_2  and  C_5
REMARK    5  A    between atoms: C_9  and  N_10
REMARK    6  A    between atoms: N_10  and  C_11
REMARK    7  A    between atoms: C_11  and  C_12
REMARK    8  A    between atoms: C_17  and  C_18
REMARK                            x       y       z     vdW  Elec       q    Type
REMARK                         _______ _______ _______ _____ _____    ______ ____
ROOT
ATOM      1  C   UNL     1      44.814   6.061  11.043  0.00  0.00    +0.000 C 
ENDROOT
BRANCH   1   2
ATOM      2  C   UNL     1      45.996   6.102  11.976  0.00  0.00    +0.000 A 
ATOM      3  C   UNL     1      46.043   5.292  13.117  0.00  0.00    +0.000 A 
ATOM      4  C   UNL     1      47.116   5.395  14.000  0.00  0.00    +0.000 A 
ATOM      5  F   UNL     1      47.134   4.630  15.099  0.00  0.00    +0.000 F 
ATOM      6  C   UNL     1      48.162   6.280  13.770  0.00  0.00    +0.000 A 
ATOM      7  C   UNL     1      48.140   7.080  12.624  0.00  0.00    +0.000 A 
ATOM      8  C   UNL     1      47.062   6.982  11.731  0.00  0.00    +0.000 A 
BRANCH   7   9
ATOM      9  C   UNL     1      49.239   7.995  12.308  0.00  0.00    +0.000 C 
ATOM     10  C   UNL     1      50.223   7.605  11.481  0.00  0.00    +0.000 C 
ATOM     11  C   UNL     1      51.293   8.544  11.011  0.00  0.00    +0.000 C 
ATOM     12  O   UNL     1      50.962   9.914  11.265  0.00  0.00    +0.000 OA
ATOM     13  C   UNL     1      50.525  10.114  12.611  0.00  0.00    +0.000 C 
ATOM     14  C   UNL     1      49.194   9.397  12.851  0.00  0.00    +0.000 C 
ENDBRANCH   7   9
ENDBRANCH   1   2
BRANCH   1  15
ATOM     15  N   UNL     1      45.182   5.596   9.729  0.00  0.00    +0.000 N 
ATOM     16  H   UNL     1      45.422   6.251   8.995  0.00  0.00    +0.000 HD
BRANCH  15  21
ATOM     17  C   UNL     1      46.026   2.638   7.960  0.00  0.00    +0.000 A 
ATOM     18  N   UNL     1      45.279   1.666   8.520  0.00  0.00    +0.000 NA
ATOM     19  C   UNL     1      44.466   2.038   9.515  0.00  0.00    +0.000 A 
ATOM     20  C   UNL     1      44.372   3.328   9.972  0.00  0.00    +0.000 A 
ATOM     21  C   UNL     1      45.169   4.273   9.356  0.00  0.00    +0.000 A 
ATOM     22  N   UNL     1      45.994   3.932   8.349  0.00  0.00    +0.000 NA
BRANCH  17  24
ATOM     23  C   UNL     1      46.250   2.577   5.475  0.00  0.00    +0.000 C 
ATOM     24  C   UNL     1      46.938   2.220   6.807  0.00  0.00    +0.000 C 
ATOM     25  C   UNL     1      47.175   0.699   6.865  0.00  0.00    +0.000 C 
ATOM     26  C   UNL     1      48.305   2.926   6.856  0.00  0.00    +0.000 C 
ENDBRANCH  17  24
ENDBRANCH  15  21
ENDBRANCH   1  15
TORSDOF 5
ENDMDL
MODEL 9
REMARK VINA RESULT:    -6.380      4.213      6.467
REMARK INTER + INTRA:          -9.141
REMARK INTER:                  -8.291
REMARK INTRA:                  -0.850
REMARK UNBOUND:                -0.897
REMARK  Name = 
REMARK  8 active torsions:
REMARK  status: ('A' for Active; 'I' for Inactive)
REMARK    1  A    between atoms: C_1  and  C_2
REMARK    2  A    between atoms: C_2  and  C_3
REMARK    3  A    between atoms: C_2  and  C_4
REMARK    4  A    between atoms: C_2  and  C_5
REMARK    5  A    between atoms: C_9  and  N_10
REMARK    6  A    between atoms: N_10  and  C_11
REMARK    7  A    between atoms: C_11  and  C_12
REMARK    8  A    between atoms: C_17  and  C_18
REMARK                            x       y       z     vdW  Elec       q    Type
REMARK                         _______ _______ _______ _____ _____    ______ ____
ROOT
ATOM      1  C   UNL     1      48.678   6.770  15.609  0.00  0.00    +0.000 C 
ENDROOT
BRANCH   1   2
ATOM      2  C   UNL     1      48.268   6.804  14.159  0.00  0.00    +0.000 A 
ATOM      3  C   UNL     1      49.073   7.426  13.196  0.00  0.00    +0.000 A 
ATOM      4  C   UNL     1      48.641   7.504  11.874  0.00  0.00    +0.000 A 
ATOM      5  F   UNL     1      49.412   8.121  10.970  0.00  0.00    +0.000 F 
ATOM      6  C   UNL     1      47.425   6.962  11.475  0.00  0.00    +0.000 A 
ATOM      7  C   UNL     1      46.620   6.320  12.421  0.00  0.00    +0.000 A 
ATOM      8  C   UNL     1      47.049   6.238  13.754  0.00  0.00    +0.000 A 
BRANCH   7   9
ATOM      9  C   UNL     1      45.353   5.690  12.046  0.00  0.00    +0.000 C 
ATOM     10  C   UNL     1      44.353   5.602  12.940  0.00  0.00    +0.000 C 
ATOM     11  C   UNL     1      42.990   5.100  12.571  0.00  0.00    +0.000 C 
ATOM     12  O   UNL     1      42.797   5.049  11.153  0.00  0.00    +0.000 OA
ATOM     13  C   UNL     1      43.885   4.400  10.491  0.00  0.00    +0.000 C 
ATOM     14  C   UNL     1      45.164   5.231  10.626  0.00  0.00    +0.000 C 
ENDBRANCH   7   9
ENDBRANCH   1   2
BRANCH   1  15
ATOM     15  N   UNL     1      48.088   5.655  16.307  0.00  0.00    +0.000 N 
ATOM     16  H   UNL     1      47.119   5.682  16.602  0.00  0.00    +0.000 HD
BRANCH  15  21
ATOM     17  C   UNL     1      50.735   3.670  17.590  0.00  0.00    +0.000 A 
ATOM     18  N   UNL     1      50.293   2.399  17.510  0.00  0.00    +0.000 NA
ATOM     19  C   UNL     1      49.070   2.223  16.999  0.00  0.00    +0.000 A 
ATOM     20  C   UNL     1      48.275   3.257  16.570  0.00  0.00    +0.000 A 
ATOM     21  C   UNL     1      48.787   4.533  16.684  0.00  0.00    +0.000 A 
ATOM     22  N   UNL     1      50.017   4.743  17.190  0.00  0.00    +0.000 NA
BRANCH  17  24
ATOM     23  C   UNL     1      52.902   2.531  18.078  0.00  0.00    +0.000 C 
ATOM     24  C   UNL     1      52.142   3.870  18.151  0.00  0.00    +0.000 C 
ATOM     25  C   UNL     1      52.049   4.323  19.620  0.00  0.00    +0.000 C 
ATOM     26  C   UNL     1      52.939   4.928  17.367  0.00  0.00    +0.000 C 
ENDBRANCH  17  24
ENDBRANCH  15  21
ENDBRANCH   1  15
TORSDOF 5
ENDMDL
