MODEL 1
REMARK VINA RESULT:    -7.726      0.000      0.000
REMARK INTER + INTRA:         -11.186
REMARK INTER:                 -10.435
REMARK INTRA:                  -0.751
REMARK UNBOUND:                -0.751
REMARK  Name = 
REMARK  7 active torsions:
REMARK  status: ('A' for Active; 'I' for Inactive)
REMARK    1  A    between atoms: C_1  and  C_2
REMARK    2  A    between atoms: C_2  and  C_3
REMARK    3  A    between atoms: C_2  and  C_14
REMARK    4  A    between atoms: C_3  and  N_4
REMARK    5  A    between atoms: N_4  and  C_5
REMARK    6  A    between atoms: C_8  and  C_9
REMARK    7  A    between atoms: C_18  and  C_19
REMARK                            x       y       z     vdW  Elec       q    Type
REMARK                         _______ _______ _______ _____ _____    ______ ____
ROOT
ATOM      1  N   UNL     1      43.721   4.917   9.745  0.00  0.00    +0.000 N 
ATOM      2  H   UNL     1      43.894   5.844   9.362  0.00  0.00    +0.000 HD
ENDROOT
BRANCH   1   3
ATOM      3  C   UNL     1      44.581   3.966   9.181  0.00  0.00    +0.000 A 
ATOM      4  C   UNL     1      45.540   4.374   8.247  0.00  0.00    +0.000 A 
ATOM      5  C   UNL     1      46.384   3.440   7.644  0.00  0.00    +0.000 A 
ATOM      6  C   UNL     1      46.219   2.103   7.972  0.00  0.00    +0.000 A 
ATOM      7  N   UNL     1      45.267   1.646   8.828  0.00  0.00    +0.000 NA
ATOM      8  C   UNL     1      44.469   2.588   9.384  0.00  0.00    +0.000 A 
BRANCH   6   9
ATOM      9  C   UNL     1      47.118   1.068   7.373  0.00  0.00    +0.000 C 
ATOM     10  N   UNL     1      46.798  -0.227   7.683  0.00  0.00    +0.000 N 
ATOM     11  O   UNL     1      48.077   1.346   6.669  0.00  0.00    +0.000 OA
ATOM     12  H   UNL     1      45.992  -0.412   8.270  0.00  0.00    +0.000 HD
ATOM     13  H   UNL     1      47.357  -0.984   7.318  0.00  0.00    +0.000 HD
ENDBRANCH   6   9
ENDBRANCH   1   3
BRANCH   1  14
ATOM     14  C   UNL     1      43.636   4.950  11.204  0.00  0.00    +0.000 C 
BRANCH  14  16
ATOM     15  C   UNL     1      43.902   7.502  11.066  0.00  0.00    +0.000 C 
ATOM     16  C   UNL     1      44.325   6.197  11.665  0.00  0.00    +0.000 C 
BRANCH  16  17
ATOM     17  C   UNL     1      45.641   6.074  12.305  0.00  0.00    +0.000 A 
ATOM     18  C   UNL     1      46.728   6.847  11.877  0.00  0.00    +0.000 A 
ATOM     19  C   UNL     1      47.955   6.776  12.541  0.00  0.00    +0.000 A 
ATOM     20  C   UNL     1      48.102   5.936  13.645  0.00  0.00    +0.000 A 
ATOM     21  C   UNL     1      47.029   5.153  14.072  0.00  0.00    +0.000 A 
ATOM     22  C   UNL     1      45.807   5.215  13.397  0.00  0.00    +0.000 A 
BRANCH  21  23
ATOM     23  C   UNL     1      47.163   4.303  15.216  0.00  0.00    +0.000 C 
ATOM     24  N   UNL     1      47.259   3.601  16.133  0.00  0.00    +0.000 NA
ENDBRANCH  21  23
ENDBRANCH  16  17
ENDBRANCH  14  16
ENDBRANCH   1  14
TORSDOF 6
ENDMDL
MODEL 2
REMARK VINA RESULT:    -7.695      1.931      2.994
REMARK INTER + INTRA:         -11.145
REMARK INTER:                 -10.479
REMARK INTRA:                  -0.666
REMARK UNBOUND:                -0.751
REMARK  Name = 
REMARK  7 active torsions:
REMARK  status: ('A' for Active; 'I' for Inactive)
REMARK    1  A    between atoms: C_1  and  C_2
REMARK    2  A    between atoms: C_2  and  C_3
REMARK    3  A    between atoms: C_2  and  C_14
REMARK    4  A    between atoms: C_3  and  N_4
REMARK    5  A    between atoms: N_4  and  C_5
REMARK    6  A    between atoms: C_8  and  C_9
REMARK    7  A    between atoms: C_18  and  C_19
REMARK                            x       y       z     vdW  Elec       q    Type
REMARK                         _______ _______ _______ _____ _____    ______ ____
ROOT
ATOM      1  N   UNL     1      43.901   4.935   9.865  0.00  0.00    +0.000 N 
ATOM      2  H   UNL     1      44.164   5.874   9.573  0.00  0.00    +0.000 HD
ENDROOT
BRANCH   1   3
ATOM      3  C   UNL     1      44.709   3.969   9.251  0.00  0.00    +0.000 A 
ATOM      4  C   UNL     1      45.654   4.367   8.298  0.00  0.00    +0.000 A 
ATOM      5  C   UNL     1      46.445   3.419   7.647  0.00  0.00    +0.000 A 
ATOM      6  C   UNL     1      46.242   2.081   7.947  0.00  0.00    +0.000 A 
ATOM      7  N   UNL     1      45.301   1.636   8.820  0.00  0.00    +0.000 NA
ATOM      8  C   UNL     1      44.554   2.591   9.424  0.00  0.00    +0.000 A 
BRANCH   6   9
ATOM      9  C   UNL     1      47.085   1.030   7.295  0.00  0.00    +0.000 C 
ATOM     10  N   UNL     1      46.798  -0.256   7.667  0.00  0.00    +0.000 N 
ATOM     11  O   UNL     1      47.974   1.290   6.498  0.00  0.00    +0.000 OA
ATOM     12  H   UNL     1      46.050  -0.426   8.329  0.00  0.00    +0.000 HD
ATOM     13  H   UNL     1      47.323  -1.023   7.272  0.00  0.00    +0.000 HD
ENDBRANCH   6   9
ENDBRANCH   1   3
BRANCH   1  14
ATOM     14  C   UNL     1      43.754   4.849  11.317  0.00  0.00    +0.000 C 
BRANCH  14  16
ATOM     15  C   UNL     1      45.603   3.816  12.773  0.00  0.00    +0.000 C 
ATOM     16  C   UNL     1      45.124   4.944  11.913  0.00  0.00    +0.000 C 
BRANCH  16  17
ATOM     17  C   UNL     1      45.748   6.269  12.026  0.00  0.00    +0.000 A 
ATOM     18  C   UNL     1      47.140   6.412  12.068  0.00  0.00    +0.000 A 
ATOM     19  C   UNL     1      47.723   7.681  12.099  0.00  0.00    +0.000 A 
ATOM     20  C   UNL     1      46.917   8.818  12.081  0.00  0.00    +0.000 A 
ATOM     21  C   UNL     1      45.528   8.687  12.051  0.00  0.00    +0.000 A 
ATOM     22  C   UNL     1      44.947   7.417  12.035  0.00  0.00    +0.000 A 
BRANCH  21  23
ATOM     23  C   UNL     1      44.693   9.849  12.012  0.00  0.00    +0.000 C 
ATOM     24  N   UNL     1      44.017  10.791  12.001  0.00  0.00    +0.000 NA
ENDBRANCH  21  23
ENDBRANCH  16  17
ENDBRANCH  14  16
ENDBRANCH   1  14
TORSDOF 6
ENDMDL
MODEL 3
REMARK VINA RESULT:    -7.642      1.925      2.601
REMARK INTER + INTRA:         -11.073
REMARK INTER:                 -10.307
REMARK INTRA:                  -0.766
REMARK UNBOUND:                -0.751
REMARK  Name = 
REMARK  7 active torsions:
REMARK  status: ('A' for Active; 'I' for Inactive)
REMARK    1  A    between atoms: C_1  and  C_2
REMARK    2  A    between atoms: C_2  and  C_3
REMARK    3  A    between atoms: C_2  and  C_14
REMARK    4  A    between atoms: C_3  and  N_4
REMARK    5  A    between atoms: N_4  and  C_5
REMARK    6  A    between atoms: C_8  and  C_9
REMARK    7  A    between atoms: C_18  and  C_19
REMARK                            x       y       z     vdW  Elec       q    Type
REMARK                         _______ _______ _______ _____ _____    ______ ____
ROOT
ATOM      1  N   UNL     1      43.859   4.919   9.878  0.00  0.00    +0.000 N 
ATOM      2  H   UNL     1      44.105   5.861   9.580  0.00  0.00    +0.000 HD
ENDROOT
BRANCH   1   3
ATOM      3  C   UNL     1      44.679   3.963   9.264  0.00  0.00    +0.000 A 
ATOM      4  C   UNL     1      45.613   4.371   8.304  0.00  0.00    +0.000 A 
ATOM      5  C   UNL     1      46.415   3.434   7.653  0.00  0.00    +0.000 A 
ATOM      6  C   UNL     1      46.234   2.093   7.960  0.00  0.00    +0.000 A 
ATOM      7  N   UNL     1      45.304   1.637   8.839  0.00  0.00    +0.000 NA
ATOM      8  C   UNL     1      44.546   2.584   9.443  0.00  0.00    +0.000 A 
BRANCH   6   9
ATOM      9  C   UNL     1      47.090   1.053   7.307  0.00  0.00    +0.000 C 
ATOM     10  N   UNL     1      46.797  -0.239   7.654  0.00  0.00    +0.000 N 
ATOM     11  O   UNL     1      47.994   1.326   6.532  0.00  0.00    +0.000 OA
ATOM     12  H   UNL     1      46.036  -0.419   8.300  0.00  0.00    +0.000 HD
ATOM     13  H   UNL     1      47.330  -0.999   7.257  0.00  0.00    +0.000 HD
ENDBRANCH   6   9
ENDBRANCH   1   3
BRANCH   1  14
ATOM     14  C   UNL     1      43.723   4.838  11.331  0.00  0.00    +0.000 C 
BRANCH  14  16
ATOM     15  C   UNL     1      45.600   3.844  12.778  0.00  0.00    +0.000 C 
ATOM     16  C   UNL     1      45.095   4.961  11.918  0.00  0.00    +0.000 C 
BRANCH  16  17
ATOM     17  C   UNL     1      45.694   6.298  12.023  0.00  0.00    +0.000 A 
ATOM     18  C   UNL     1      44.937   7.397  12.450  0.00  0.00    +0.000 A 
ATOM     19  C   UNL     1      45.536   8.649  12.617  0.00  0.00    +0.000 A 
ATOM     20  C   UNL     1      46.898   8.808  12.367  0.00  0.00    +0.000 A 
ATOM     21  C   UNL     1      47.658   7.722  11.930  0.00  0.00    +0.000 A 
ATOM     22  C   UNL     1      47.054   6.475  11.749  0.00  0.00    +0.000 A 
BRANCH  21  23
ATOM     23  C   UNL     1      49.061   7.871  11.690  0.00  0.00    +0.000 C 
ATOM     24  N   UNL     1      50.194   8.011  11.488  0.00  0.00    +0.000 NA
ENDBRANCH  21  23
ENDBRANCH  16  17
ENDBRANCH  14  16
ENDBRANCH   1  14
TORSDOF 6
ENDMDL
MODEL 4
REMARK VINA RESULT:    -7.020      1.788      2.363
REMARK INTER + INTRA:         -10.233
REMARK INTER:                  -9.683
REMARK INTRA:                  -0.550
REMARK UNBOUND:                -0.751
REMARK  Name = 
REMARK  7 active torsions:
REMARK  status: ('A' for Active; 'I' for Inactive)
REMARK    1  A    between atoms: C_1  and  C_2
REMARK    2  A    between atoms: C_2  and  C_3
REMARK    3  A    between atoms: C_2  and  C_14
REMARK    4  A    between atoms: C_3  and  N_4
REMARK    5  A    between atoms: N_4  and  C_5
REMARK    6  A    between atoms: C_8  and  C_9
REMARK    7  A    between atoms: C_18  and  C_19
REMARK                            x       y       z     vdW  Elec       q    Type
REMARK                         _______ _______ _______ _____ _____    ______ ____
ROOT
ATOM      1  N   UNL     1      43.837   3.509  10.489  0.00  0.00    +0.000 N 
ATOM      2  H   UNL     1      42.860   3.418  10.217  0.00  0.00    +0.000 HD
ENDROOT
BRANCH   1   3
ATOM      3  C   UNL     1      44.689   3.308   9.395  0.00  0.00    +0.000 A 
ATOM      4  C   UNL     1      45.221   2.035   9.160  0.00  0.00    +0.000 A 
ATOM      5  C   UNL     1      46.099   1.819   8.098  0.00  0.00    +0.000 A 
ATOM      6  C   UNL     1      46.452   2.904   7.310  0.00  0.00    +0.000 A 
ATOM      7  N   UNL     1      46.011   4.171   7.527  0.00  0.00    +0.000 NA
ATOM      8  C   UNL     1      45.165   4.333   8.572  0.00  0.00    +0.000 A 
BRANCH   6   9
ATOM      9  C   UNL     1      47.369   2.716   6.143  0.00  0.00    +0.000 C 
ATOM     10  N   UNL     1      48.672   2.447   6.467  0.00  0.00    +0.000 N 
ATOM     11  O   UNL     1      46.997   2.806   4.983  0.00  0.00    +0.000 OA
ATOM     12  H   UNL     1      48.936   2.379   7.444  0.00  0.00    +0.000 HD
ATOM     13  H   UNL     1      49.354   2.308   5.736  0.00  0.00    +0.000 HD
ENDBRANCH   6   9
ENDBRANCH   1   3
BRANCH   1  14
ATOM     14  C   UNL     1      44.059   4.712  11.289  0.00  0.00    +0.000 C 
BRANCH  14  16
ATOM     15  C   UNL     1      45.612   3.264  12.737  0.00  0.00    +0.000 C 
ATOM     16  C   UNL     1      45.367   4.543  11.998  0.00  0.00    +0.000 C 
BRANCH  16  17
ATOM     17  C   UNL     1      46.142   5.746  12.334  0.00  0.00    +0.000 A 
ATOM     18  C   UNL     1      45.840   6.984  11.754  0.00  0.00    +0.000 A 
ATOM     19  C   UNL     1      46.535   8.135  12.136  0.00  0.00    +0.000 A 
ATOM     20  C   UNL     1      47.531   8.056  13.108  0.00  0.00    +0.000 A 
ATOM     21  C   UNL     1      47.847   6.825  13.684  0.00  0.00    +0.000 A 
ATOM     22  C   UNL     1      47.161   5.673  13.289  0.00  0.00    +0.000 A 
BRANCH  21  23
ATOM     23  C   UNL     1      48.854   6.736  14.697  0.00  0.00    +0.000 C 
ATOM     24  N   UNL     1      49.656   6.670  15.532  0.00  0.00    +0.000 NA
ENDBRANCH  21  23
ENDBRANCH  16  17
ENDBRANCH  14  16
ENDBRANCH   1  14
TORSDOF 6
ENDMDL
MODEL 5
REMARK VINA RESULT:    -6.633      3.165      6.519
REMARK INTER + INTRA:          -9.711
REMARK INTER:                  -8.961
REMARK INTRA:                  -0.750
REMARK UNBOUND:                -0.751
REMARK  Name = 
REMARK  7 active torsions:
REMARK  status: ('A' for Active; 'I' for Inactive)
REMARK    1  A    between atoms: C_1  and  C_2
REMARK    2  A    between atoms: C_2  and  C_3
REMARK    3  A    between atoms: C_2  and  C_14
REMARK    4  A    between atoms: C_3  and  N_4
REMARK    5  A    between atoms: N_4  and  C_5
REMARK    6  A    between atoms: C_8  and  C_9
REMARK    7  A    between atoms: C_18  and  C_19
REMARK                            x       y       z     vdW  Elec       q    Type
REMARK                         _______ _______ _______ _____ _____    ______ ____
ROOT
ATOM      1  N   UNL     1      45.266   5.223  12.829  0.00  0.00    +0.000 N 
ATOM      2  H   UNL     1      44.760   5.395  13.696  0.00  0.00    +0.000 HD
ENDROOT
BRANCH   1   3
ATOM      3  C   UNL     1      46.483   5.917  12.807  0.00  0.00    +0.000 A 
ATOM      4  C   UNL     1      46.784   6.746  11.720  0.00  0.00    +0.000 A 
ATOM      5  C   UNL     1      48.004   7.419  11.659  0.00  0.00    +0.000 A 
ATOM      6  C   UNL     1      48.916   7.215  12.684  0.00  0.00    +0.000 A 
ATOM      7  N   UNL     1      48.699   6.379  13.733  0.00  0.00    +0.000 NA
ATOM      8  C   UNL     1      47.503   5.744  13.747  0.00  0.00    +0.000 A 
BRANCH   6   9
ATOM      9  C   UNL     1      50.227   7.937  12.676  0.00  0.00    +0.000 C 
ATOM     10  N   UNL     1      51.071   7.593  11.654  0.00  0.00    +0.000 N 
ATOM     11  O   UNL     1      50.536   8.763  13.521  0.00  0.00    +0.000 OA
ATOM     12  H   UNL     1      50.771   6.904  10.974  0.00  0.00    +0.000 HD
ATOM     13  H   UNL     1      51.975   8.035  11.579  0.00  0.00    +0.000 HD
ENDBRANCH   6   9
ENDBRANCH   1   3
BRANCH   1  14
ATOM     14  C   UNL     1      45.312   3.797  12.511  0.00  0.00    +0.000 C 
BRANCH  14  16
ATOM     15  C   UNL     1      43.021   3.038  11.626  0.00  0.00    +0.000 C 
ATOM     16  C   UNL     1      44.394   3.568  11.350  0.00  0.00    +0.000 C 
BRANCH  16  17
ATOM     17  C   UNL     1      44.982   3.424  10.011  0.00  0.00    +0.000 A 
ATOM     18  C   UNL     1      45.217   4.542   9.202  0.00  0.00    +0.000 A 
ATOM     19  C   UNL     1      45.845   4.401   7.962  0.00  0.00    +0.000 A 
ATOM     20  C   UNL     1      46.251   3.140   7.526  0.00  0.00    +0.000 A 
ATOM     21  C   UNL     1      46.011   2.018   8.320  0.00  0.00    +0.000 A 
ATOM     22  C   UNL     1      45.369   2.160   9.553  0.00  0.00    +0.000 A 
BRANCH  21  23
ATOM     23  C   UNL     1      46.441   0.722   7.891  0.00  0.00    +0.000 C 
ATOM     24  N   UNL     1      46.771  -0.336   7.550  0.00  0.00    +0.000 NA
ENDBRANCH  21  23
ENDBRANCH  16  17
ENDBRANCH  14  16
ENDBRANCH   1  14
TORSDOF 6
ENDMDL
MODEL 6
REMARK VINA RESULT:    -6.379      2.985      6.899
REMARK INTER + INTRA:          -9.368
REMARK INTER:                  -8.621
REMARK INTRA:                  -0.747
REMARK UNBOUND:                -0.751
REMARK  Name = 
REMARK  7 active torsions:
REMARK  status: ('A' for Active; 'I' for Inactive)
REMARK    1  A    between atoms: C_1  and  C_2
REMARK    2  A    between atoms: C_2  and  C_3
REMARK    3  A    between atoms: C_2  and  C_14
REMARK    4  A    between atoms: C_3  and  N_4
REMARK    5  A    between atoms: N_4  and  C_5
REMARK    6  A    between atoms: C_8  and  C_9
REMARK    7  A    between atoms: C_18  and  C_19
REMARK                            x       y       z     vdW  Elec       q    Type
REMARK                         _______ _______ _______ _____ _____    ______ ____
ROOT
ATOM      1  N   UNL     1      46.758   7.062  12.780  0.00  0.00    +0.000 N 
ATOM      2  H   UNL     1      45.831   7.445  12.957  0.00  0.00    +0.000 HD
ENDROOT
BRANCH   1   3
ATOM      3  C   UNL     1      47.117   6.131  13.764  0.00  0.00    +0.000 A 
ATOM      4  C   UNL     1      46.354   4.969  13.924  0.00  0.00    +0.000 A 
ATOM      5  C   UNL     1      46.671   4.045  14.920  0.00  0.00    +0.000 A 
ATOM      6  C   UNL     1      47.736   4.330  15.761  0.00  0.00    +0.000 A 
ATOM      7  N   UNL     1      48.474   5.469  15.687  0.00  0.00    +0.000 NA
ATOM      8  C   UNL     1      48.126   6.337  14.709  0.00  0.00    +0.000 A 
BRANCH   6   9
ATOM      9  C   UNL     1      48.132   3.356  16.827  0.00  0.00    +0.000 C 
ATOM     10  N   UNL     1      47.095   2.859  17.571  0.00  0.00    +0.000 N 
ATOM     11  O   UNL     1      49.291   3.032  17.034  0.00  0.00    +0.000 OA
ATOM     12  H   UNL     1      46.148   3.155  17.362  0.00  0.00    +0.000 HD
ATOM     13  H   UNL     1      47.280   2.197  18.310  0.00  0.00    +0.000 HD
ENDBRANCH   6   9
ENDBRANCH   1   3
BRANCH   1  14
ATOM     14  C   UNL     1      46.906   6.643  11.388  0.00  0.00    +0.000 C 
BRANCH  14  16
ATOM     15  C   UNL     1      44.387   7.149  11.390  0.00  0.00    +0.000 C 
ATOM     16  C   UNL     1      45.536   6.351  10.859  0.00  0.00    +0.000 C 
BRANCH  16  17
ATOM     17  C   UNL     1      45.296   5.049  10.222  0.00  0.00    +0.000 A 
ATOM     18  C   UNL     1      44.479   4.087  10.830  0.00  0.00    +0.000 A 
ATOM     19  C   UNL     1      44.197   2.883  10.180  0.00  0.00    +0.000 A 
ATOM     20  C   UNL     1      44.724   2.634   8.914  0.00  0.00    +0.000 A 
ATOM     21  C   UNL     1      45.549   3.581   8.304  0.00  0.00    +0.000 A 
ATOM     22  C   UNL     1      45.842   4.779   8.962  0.00  0.00    +0.000 A 
BRANCH  21  23
ATOM     23  C   UNL     1      46.079   3.344   6.996  0.00  0.00    +0.000 C 
ATOM     24  N   UNL     1      46.514   3.172   5.935  0.00  0.00    +0.000 NA
ENDBRANCH  21  23
ENDBRANCH  16  17
ENDBRANCH  14  16
ENDBRANCH   1  14
TORSDOF 6
ENDMDL
MODEL 7
REMARK VINA RESULT:    -6.102      3.181      6.663
REMARK INTER + INTRA:          -8.993
REMARK INTER:                  -8.361
REMARK INTRA:                  -0.632
REMARK UNBOUND:                -0.751
REMARK  Name = 
REMARK  7 active torsions:
REMARK  status: ('A' for Active; 'I' for Inactive)
REMARK    1  A    between atoms: C_1  and  C_2
REMARK    2  A    between atoms: C_2  and  C_3
REMARK    3  A    between atoms: C_2  and  C_14
REMARK    4  A    between atoms: C_3  and  N_4
REMARK    5  A    between atoms: N_4  and  C_5
REMARK    6  A    between atoms: C_8  and  C_9
REMARK    7  A    between atoms: C_18  and  C_19
REMARK                            x       y       z     vdW  Elec       q    Type
REMARK                         _______ _______ _______ _____ _____    ______ ____
ROOT
ATOM      1  N   UNL     1      47.333   6.546  12.842  0.00  0.00    +0.000 N 
ATOM      2  H   UNL     1      48.239   6.859  12.500  0.00  0.00    +0.000 HD
ENDROOT
BRANCH   1   3
ATOM      3  C   UNL     1      47.469   5.771  14.002  0.00  0.00    +0.000 A 
ATOM      4  C   UNL     1      48.204   6.272  15.083  0.00  0.00    +0.000 A 
ATOM      5  C   UNL     1      48.383   5.505  16.235  0.00  0.00    +0.000 A 
ATOM      6  C   UNL     1      47.843   4.228  16.259  0.00  0.00    +0.000 A 
ATOM      7  N   UNL     1      47.171   3.670  15.218  0.00  0.00    +0.000 NA
ATOM      8  C   UNL     1      47.026   4.451  14.121  0.00  0.00    +0.000 A 
BRANCH   6   9
ATOM      9  C   UNL     1      47.986   3.378  17.483  0.00  0.00    +0.000 C 
ATOM     10  N   UNL     1      46.883   2.630  17.801  0.00  0.00    +0.000 N 
ATOM     11  O   UNL     1      49.000   3.355  18.163  0.00  0.00    +0.000 OA
ATOM     12  H   UNL     1      46.063   2.679  17.206  0.00  0.00    +0.000 HD
ATOM     13  H   UNL     1      46.899   2.031  18.612  0.00  0.00    +0.000 HD
ENDBRANCH   6   9
ENDBRANCH   1   3
BRANCH   1  14
ATOM     14  C   UNL     1      46.370   7.645  12.890  0.00  0.00    +0.000 C 
BRANCH  14  16
ATOM     15  C   UNL     1      44.573   8.484  11.256  0.00  0.00    +0.000 C 
ATOM     16  C   UNL     1      45.290   7.338  11.900  0.00  0.00    +0.000 C 
BRANCH  16  17
ATOM     17  C   UNL     1      44.669   6.007  11.931  0.00  0.00    +0.000 A 
ATOM     18  C   UNL     1      43.780   5.648  12.951  0.00  0.00    +0.000 A 
ATOM     19  C   UNL     1      43.138   4.407  12.930  0.00  0.00    +0.000 A 
ATOM     20  C   UNL     1      43.376   3.518  11.883  0.00  0.00    +0.000 A 
ATOM     21  C   UNL     1      44.270   3.861  10.867  0.00  0.00    +0.000 A 
ATOM     22  C   UNL     1      44.922   5.097  10.899  0.00  0.00    +0.000 A 
BRANCH  21  23
ATOM     23  C   UNL     1      44.506   2.963   9.778  0.00  0.00    +0.000 C 
ATOM     24  N   UNL     1      44.681   2.246   8.884  0.00  0.00    +0.000 NA
ENDBRANCH  21  23
ENDBRANCH  16  17
ENDBRANCH  14  16
ENDBRANCH   1  14
TORSDOF 6
ENDMDL
MODEL 8
REMARK VINA RESULT:    -5.896      2.831      4.437
REMARK INTER + INTRA:          -8.715
REMARK INTER:                  -7.908
REMARK INTRA:                  -0.807
REMARK UNBOUND:                -0.751
REMARK  Name = 
REMARK  7 active torsions:
REMARK  status: ('A' for Active; 'I' for Inactive)
REMARK    1  A    between atoms: C_1  and  C_2
REMARK    2  A    between atoms: C_2  and  C_3
REMARK    3  A    between atoms: C_2  and  C_14
REMARK    4  A    between atoms: C_3  and  N_4
REMARK    5  A    between atoms: N_4  and  C_5
REMARK    6  A    between atoms: C_8  and  C_9
REMARK    7  A    between atoms: C_18  and  C_19
REMARK                            x       y       z     vdW  Elec       q    Type
REMARK                         _______ _______ _______ _____ _____    ______ ____
ROOT
ATOM      1  N   UNL     1      46.812   7.614  12.106  0.00  0.00    +0.000 N 
ATOM      2  H   UNL     1      47.659   7.666  11.544  0.00  0.00    +0.000 HD
ENDROOT
BRANCH   1   3
ATOM      3  C   UNL     1      46.079   6.457  11.814  0.00  0.00    +0.000 A 
ATOM      4  C   UNL     1      45.596   5.664  12.862  0.00  0.00    +0.000 A 
ATOM      5  C   UNL     1      44.894   4.488  12.595  0.00  0.00    +0.000 A 
ATOM      6  C   UNL     1      44.722   4.116  11.270  0.00  0.00    +0.000 A 
ATOM      7  N   UNL     1      45.218   4.817  10.217  0.00  0.00    +0.000 NA
ATOM      8  C   UNL     1      45.896   5.948  10.525  0.00  0.00    +0.000 A 
BRANCH   6   9
ATOM      9  C   UNL     1      43.952   2.878  10.934  0.00  0.00    +0.000 C 
ATOM     10  N   UNL     1      44.451   2.152   9.885  0.00  0.00    +0.000 N 
ATOM     11  O   UNL     1      42.944   2.537  11.534  0.00  0.00    +0.000 OA
ATOM     12  H   UNL     1      45.292   2.471   9.417  0.00  0.00    +0.000 HD
ATOM     13  H   UNL     1      43.988   1.303   9.596  0.00  0.00    +0.000 HD
ENDBRANCH   6   9
ENDBRANCH   1   3
BRANCH   1  14
ATOM     14  C   UNL     1      47.090   7.883  13.516  0.00  0.00    +0.000 C 
BRANCH  14  16
ATOM     15  C   UNL     1      49.486   7.713  12.602  0.00  0.00    +0.000 C 
ATOM     16  C   UNL     1      48.538   7.582  13.753  0.00  0.00    +0.000 C 
BRANCH  16  17
ATOM     17  C   UNL     1      48.900   6.757  14.914  0.00  0.00    +0.000 A 
ATOM     18  C   UNL     1      50.070   7.008  15.642  0.00  0.00    +0.000 A 
ATOM     19  C   UNL     1      50.366   6.266  16.788  0.00  0.00    +0.000 A 
ATOM     20  C   UNL     1      49.489   5.272  17.219  0.00  0.00    +0.000 A 
ATOM     21  C   UNL     1      48.326   5.005  16.494  0.00  0.00    +0.000 A 
ATOM     22  C   UNL     1      48.040   5.739  15.340  0.00  0.00    +0.000 A 
BRANCH  21  23
ATOM     23  C   UNL     1      47.410   4.000  16.939  0.00  0.00    +0.000 C 
ATOM     24  N   UNL     1      46.666   3.179  17.280  0.00  0.00    +0.000 NA
ENDBRANCH  21  23
ENDBRANCH  16  17
ENDBRANCH  14  16
ENDBRANCH   1  14
TORSDOF 6
ENDMDL
MODEL 9
REMARK VINA RESULT:    -5.768      3.309      5.443
REMARK INTER + INTRA:          -8.543
REMARK INTER:                  -8.045
REMARK INTRA:                  -0.497
REMARK UNBOUND:                -0.751
REMARK  Name = 
REMARK  7 active torsions:
REMARK  status: ('A' for Active; 'I' for Inactive)
REMARK    1  A    between atoms: C_1  and  C_2
REMARK    2  A    between atoms: C_2  and  C_3
REMARK    3  A    between atoms: C_2  and  C_14
REMARK    4  A    between atoms: C_3  and  N_4
REMARK    5  A    between atoms: N_4  and  C_5
REMARK    6  A    between atoms: C_8  and  C_9
REMARK    7  A    between atoms: C_18  and  C_19
REMARK                            x       y       z     vdW  Elec       q    Type
REMARK                         _______ _______ _______ _____ _____    ______ ____
ROOT
ATOM      1  N   UNL     1      47.175   6.993  13.927  0.00  0.00    +0.000 N 
ATOM      2  H   UNL     1      47.148   7.893  13.452  0.00  0.00    +0.000 HD
ENDROOT
BRANCH   1   3
ATOM      3  C   UNL     1      46.468   6.019  13.209  0.00  0.00    +0.000 A 
ATOM      4  C   UNL     1      46.076   6.284  11.892  0.00  0.00    +0.000 A 
ATOM      5  C   UNL     1      45.341   5.344  11.170  0.00  0.00    +0.000 A 
ATOM      6  C   UNL     1      44.985   4.164  11.805  0.00  0.00    +0.000 A 
ATOM      7  N   UNL     1      45.290   3.879  13.098  0.00  0.00    +0.000 NA
ATOM      8  C   UNL     1      46.000   4.823  13.760  0.00  0.00    +0.000 A 
BRANCH   6   9
ATOM      9  C   UNL     1      44.220   3.113  11.062  0.00  0.00    +0.000 C 
ATOM     10  N   UNL     1      44.941   2.430  10.119  0.00  0.00    +0.000 N 
ATOM     11  O   UNL     1      43.037   2.884  11.264  0.00  0.00    +0.000 OA
ATOM     12  H   UNL     1      45.922   2.652   9.987  0.00  0.00    +0.000 HD
ATOM     13  H   UNL     1      44.497   1.705   9.575  0.00  0.00    +0.000 HD
ENDBRANCH   6   9
ENDBRANCH   1   3
BRANCH   1  14
ATOM     14  C   UNL     1      48.533   6.651  14.346  0.00  0.00    +0.000 C 
BRANCH  14  16
ATOM     15  C   UNL     1      48.823   7.971  16.532  0.00  0.00    +0.000 C 
ATOM     16  C   UNL     1      48.559   6.668  15.843  0.00  0.00    +0.000 C 
BRANCH  16  17
ATOM     17  C   UNL     1      48.784   5.402  16.554  0.00  0.00    +0.000 A 
ATOM     18  C   UNL     1      47.753   4.467  16.707  0.00  0.00    +0.000 A 
ATOM     19  C   UNL     1      47.998   3.235  17.319  0.00  0.00    +0.000 A 
ATOM     20  C   UNL     1      49.279   2.926  17.775  0.00  0.00    +0.000 A 
ATOM     21  C   UNL     1      50.311   3.856  17.638  0.00  0.00    +0.000 A 
ATOM     22  C   UNL     1      50.060   5.094  17.039  0.00  0.00    +0.000 A 
BRANCH  21  23
ATOM     23  C   UNL     1      51.633   3.541  18.085  0.00  0.00    +0.000 C 
ATOM     24  N   UNL     1      52.699   3.290  18.467  0.00  0.00    +0.000 NA
ENDBRANCH  21  23
ENDBRANCH  16  17
ENDBRANCH  14  16
ENDBRANCH   1  14
TORSDOF 6
ENDMDL
