MODEL 1
REMARK VINA RESULT:    -8.703      0.000      0.000
REMARK INTER + INTRA:         -12.904
REMARK INTER:                 -11.756
REMARK INTRA:                  -1.148
REMARK UNBOUND:                -1.148
REMARK  Name = 
REMARK  10 active torsions:
REMARK  status: ('A' for Active; 'I' for Inactive)
REMARK    1  A    between atoms: C_1  and  C_2
REMARK    2  A    between atoms: C_2  and  C_3
REMARK    3  A    between atoms: C_5  and  O_6
REMARK    4  A    between atoms: O_6  and  C_7
REMARK    5  A    between atoms: C_9  and  C_10
REMARK    6  A    between atoms: C_10  and  C_11
REMARK    7  A    between atoms: C_11  and  N_12
REMARK    8  A    between atoms: C_16  and  C_17
REMARK    9  A    between atoms: C_27  and  C_28
REMARK   10  A    between atoms: C_27  and  C_29
REMARK                            x       y       z     vdW  Elec       q    Type
REMARK                         _______ _______ _______ _____ _____    ______ ____
ROOT
ATOM      1  C   UNL     1      47.243   5.208  13.938  0.00  0.00    +0.000 A 
ATOM      2  C   UNL     1      45.920   4.875  13.634  0.00  0.00    +0.000 A 
ATOM      3  C   UNL     1      45.236   5.497  12.577  0.00  0.00    +0.000 A 
ATOM      4  C   UNL     1      45.918   6.466  11.825  0.00  0.00    +0.000 A 
ATOM      5  C   UNL     1      47.243   6.786  12.124  0.00  0.00    +0.000 A 
ATOM      6  F   UNL     1      47.864   7.726  11.394  0.00  0.00    +0.000 F 
ATOM      7  C   UNL     1      47.911   6.156  13.170  0.00  0.00    +0.000 A 
ATOM      8  F   UNL     1      49.179   6.495  13.444  0.00  0.00    +0.000 F 
ENDROOT
BRANCH   1   9
ATOM      9  O   UNL     1      47.929   4.636  14.987  0.00  0.00    +0.000 OA
BRANCH   9  14
ATOM     10  C   UNL     1      49.959   4.664  19.044  0.00  0.00    +0.000 C 
ATOM     11  C   UNL     1      49.335   4.454  17.665  0.00  0.00    +0.000 C 
ATOM     12  C   UNL     1      49.987   3.238  16.988  0.00  0.00    +0.000 C 
ATOM     13  C   UNL     1      49.392   5.728  16.776  0.00  0.00    +0.000 C 
ATOM     14  C   UNL     1      47.973   5.379  16.236  0.00  0.00    +0.000 C 
ATOM     15  C   UNL     1      47.748   4.562  17.564  0.00  0.00    +0.000 C 
ATOM     16  C   UNL     1      46.982   3.246  17.431  0.00  0.00    +0.000 C 
ATOM     17  C   UNL     1      47.079   5.416  18.660  0.00  0.00    +0.000 C 
ENDBRANCH   9  14
ENDBRANCH   1   9
BRANCH   3  18
ATOM     18  C   UNL     1      43.797   5.081  12.316  0.00  0.00    +0.000 C 
BRANCH  18  19
ATOM     19  C   UNL     1      43.481   4.676  10.871  0.00  0.00    +0.000 C 
BRANCH  19  20
ATOM     20  N   UNL     1      43.761   3.255  10.629  0.00  0.00    +0.000 N 
ATOM     21  C   UNL     1      44.696   3.079   9.582  0.00  0.00    +0.000 A 
ATOM     22  C   UNL     1      45.101   1.793   9.199  0.00  0.00    +0.000 A 
ATOM     23  N   UNL     1      45.982   1.531   8.189  0.00  0.00    +0.000 NA
ATOM     24  C   UNL     1      46.464   2.639   7.566  0.00  0.00    +0.000 A 
ATOM     25  C   UNL     1      46.088   3.921   7.943  0.00  0.00    +0.000 A 
ATOM     26  N   UNL     1      45.211   4.155   8.952  0.00  0.00    +0.000 NA
ATOM     27  H   UNL     1      42.920   2.731  10.400  0.00  0.00    +0.000 HD
BRANCH  24  28
ATOM     28  C   UNL     1      47.414   2.456   6.438  0.00  0.00    +0.000 C 
ATOM     29  N   UNL     1      47.286   3.293   5.365  0.00  0.00    +0.000 N 
ATOM     30  O   UNL     1      48.284   1.591   6.465  0.00  0.00    +0.000 OA
ATOM     31  H   UNL     1      46.557   3.996   5.336  0.00  0.00    +0.000 HD
ATOM     32  H   UNL     1      47.912   3.177   4.582  0.00  0.00    +0.000 HD
ENDBRANCH  24  28
ENDBRANCH  19  20
ENDBRANCH  18  19
ENDBRANCH   3  18
TORSDOF 6
ENDMDL
MODEL 2
REMARK VINA RESULT:    -8.631      2.663      4.389
REMARK INTER + INTRA:         -12.807
REMARK INTER:                 -11.504
REMARK INTRA:                  -1.302
REMARK UNBOUND:                -1.148
REMARK  Name = 
REMARK  10 active torsions:
REMARK  status: ('A' for Active; 'I' for Inactive)
REMARK    1  A    between atoms: C_1  and  C_2
REMARK    2  A    between atoms: C_2  and  C_3
REMARK    3  A    between atoms: C_5  and  O_6
REMARK    4  A    between atoms: O_6  and  C_7
REMARK    5  A    between atoms: C_9  and  C_10
REMARK    6  A    between atoms: C_10  and  C_11
REMARK    7  A    between atoms: C_11  and  N_12
REMARK    8  A    between atoms: C_16  and  C_17
REMARK    9  A    between atoms: C_27  and  C_28
REMARK   10  A    between atoms: C_27  and  C_29
REMARK                            x       y       z     vdW  Elec       q    Type
REMARK                         _______ _______ _______ _____ _____    ______ ____
ROOT
ATOM      1  C   UNL     1      46.611   6.797  13.356  0.00  0.00    +0.000 A 
ATOM      2  C   UNL     1      45.324   6.654  12.830  0.00  0.00    +0.000 A 
ATOM      3  C   UNL     1      44.703   5.397  12.755  0.00  0.00    +0.000 A 
ATOM      4  C   UNL     1      45.408   4.280  13.228  0.00  0.00    +0.000 A 
ATOM      5  C   UNL     1      46.688   4.430  13.764  0.00  0.00    +0.000 A 
ATOM      6  F   UNL     1      47.342   3.340  14.196  0.00  0.00    +0.000 F 
ATOM      7  C   UNL     1      47.289   5.682  13.839  0.00  0.00    +0.000 A 
ATOM      8  F   UNL     1      48.525   5.794  14.344  0.00  0.00    +0.000 F 
ENDROOT
BRANCH   1   9
ATOM      9  O   UNL     1      47.257   8.013  13.414  0.00  0.00    +0.000 OA
BRANCH   9  14
ATOM     10  C   UNL     1      51.105   9.056  11.250  0.00  0.00    +0.000 C 
ATOM     11  C   UNL     1      49.923   8.707  12.155  0.00  0.00    +0.000 C 
ATOM     12  C   UNL     1      50.447   8.128  13.479  0.00  0.00    +0.000 C 
ATOM     13  C   UNL     1      48.892   7.770  11.465  0.00  0.00    +0.000 C 
ATOM     14  C   UNL     1      47.748   8.565  12.162  0.00  0.00    +0.000 C 
ATOM     15  C   UNL     1      48.749   9.779  12.258  0.00  0.00    +0.000 C 
ATOM     16  C   UNL     1      48.692  10.607  13.542  0.00  0.00    +0.000 C 
ATOM     17  C   UNL     1      48.620  10.728  11.050  0.00  0.00    +0.000 C 
ENDBRANCH   9  14
ENDBRANCH   1   9
BRANCH   3  18
ATOM     18  C   UNL     1      43.303   5.327  12.165  0.00  0.00    +0.000 C 
BRANCH  18  19
ATOM     19  C   UNL     1      43.181   4.548  10.851  0.00  0.00    +0.000 C 
BRANCH  19  20
ATOM     20  N   UNL     1      44.084   5.075   9.818  0.00  0.00    +0.000 N 
ATOM     21  C   UNL     1      44.820   4.041   9.193  0.00  0.00    +0.000 A 
ATOM     22  C   UNL     1      45.736   4.337   8.174  0.00  0.00    +0.000 A 
ATOM     23  N   UNL     1      46.499   3.407   7.530  0.00  0.00    +0.000 NA
ATOM     24  C   UNL     1      46.298   2.130   7.951  0.00  0.00    +0.000 A 
ATOM     25  C   UNL     1      45.384   1.816   8.947  0.00  0.00    +0.000 A 
ATOM     26  N   UNL     1      44.634   2.759   9.571  0.00  0.00    +0.000 NA
ATOM     27  H   UNL     1      44.740   5.756  10.193  0.00  0.00    +0.000 HD
BRANCH  24  28
ATOM     28  C   UNL     1      47.100   1.046   7.325  0.00  0.00    +0.000 C 
ATOM     29  N   UNL     1      46.780  -0.242   7.650  0.00  0.00    +0.000 N 
ATOM     30  O   UNL     1      48.013   1.293   6.543  0.00  0.00    +0.000 OA
ATOM     31  H   UNL     1      46.037  -0.445   8.309  0.00  0.00    +0.000 HD
ATOM     32  H   UNL     1      47.321  -0.993   7.247  0.00  0.00    +0.000 HD
ENDBRANCH  24  28
ENDBRANCH  19  20
ENDBRANCH  18  19
ENDBRANCH   3  18
TORSDOF 6
ENDMDL
MODEL 3
REMARK VINA RESULT:    -7.137      3.143      4.154
REMARK INTER + INTRA:         -10.789
REMARK INTER:                  -9.880
REMARK INTRA:                  -0.909
REMARK UNBOUND:                -1.148
REMARK  Name = 
REMARK  10 active torsions:
REMARK  status: ('A' for Active; 'I' for Inactive)
REMARK    1  A    between atoms: C_1  and  C_2
REMARK    2  A    between atoms: C_2  and  C_3
REMARK    3  A    between atoms: C_5  and  O_6
REMARK    4  A    between atoms: O_6  and  C_7
REMARK    5  A    between atoms: C_9  and  C_10
REMARK    6  A    between atoms: C_10  and  C_11
REMARK    7  A    between atoms: C_11  and  N_12
REMARK    8  A    between atoms: C_16  and  C_17
REMARK    9  A    between atoms: C_27  and  C_28
REMARK   10  A    between atoms: C_27  and  C_29
REMARK                            x       y       z     vdW  Elec       q    Type
REMARK                         _______ _______ _______ _____ _____    ______ ____
ROOT
ATOM      1  C   UNL     1      46.211   8.189  12.902  0.00  0.00    +0.000 A 
ATOM      2  C   UNL     1      45.817   6.847  12.896  0.00  0.00    +0.000 A 
ATOM      3  C   UNL     1      44.715   6.414  12.140  0.00  0.00    +0.000 A 
ATOM      4  C   UNL     1      44.016   7.367  11.383  0.00  0.00    +0.000 A 
ATOM      5  C   UNL     1      44.419   8.702  11.383  0.00  0.00    +0.000 A 
ATOM      6  F   UNL     1      43.722   9.590  10.658  0.00  0.00    +0.000 F 
ATOM      7  C   UNL     1      45.518   9.116  12.130  0.00  0.00    +0.000 A 
ATOM      8  F   UNL     1      45.874  10.408  12.123  0.00  0.00    +0.000 F 
ENDROOT
BRANCH   1   9
ATOM      9  O   UNL     1      47.269   8.647  13.656  0.00  0.00    +0.000 OA
BRANCH   9  14
ATOM     10  C   UNL     1      51.716   9.466  14.015  0.00  0.00    +0.000 C 
ATOM     11  C   UNL     1      50.193   9.399  13.901  0.00  0.00    +0.000 C 
ATOM     12  C   UNL     1      49.583  10.707  14.429  0.00  0.00    +0.000 C 
ATOM     13  C   UNL     1      49.592   8.143  14.595  0.00  0.00    +0.000 C 
ATOM     14  C   UNL     1      48.564   8.029  13.429  0.00  0.00    +0.000 C 
ATOM     15  C   UNL     1      49.593   8.827  12.541  0.00  0.00    +0.000 C 
ATOM     16  C   UNL     1      49.003   9.851  11.572  0.00  0.00    +0.000 C 
ATOM     17  C   UNL     1      50.529   7.885  11.757  0.00  0.00    +0.000 C 
ENDBRANCH   9  14
ENDBRANCH   1   9
BRANCH   3  18
ATOM     18  C   UNL     1      44.350   4.940  12.192  0.00  0.00    +0.000 C 
BRANCH  18  19
ATOM     19  C   UNL     1      43.538   4.420  11.000  0.00  0.00    +0.000 C 
BRANCH  19  20
ATOM     20  N   UNL     1      43.903   3.041  10.651  0.00  0.00    +0.000 N 
ATOM     21  C   UNL     1      44.782   2.999   9.543  0.00  0.00    +0.000 A 
ATOM     22  C   UNL     1      45.252   1.772   9.055  0.00  0.00    +0.000 A 
ATOM     23  N   UNL     1      46.086   1.639   7.982  0.00  0.00    +0.000 NA
ATOM     24  C   UNL     1      46.448   2.815   7.405  0.00  0.00    +0.000 A 
ATOM     25  C   UNL     1      46.006   4.040   7.885  0.00  0.00    +0.000 A 
ATOM     26  N   UNL     1      45.179   4.147   8.956  0.00  0.00    +0.000 NA
ATOM     27  H   UNL     1      43.089   2.470  10.437  0.00  0.00    +0.000 HD
BRANCH  24  28
ATOM     28  C   UNL     1      47.337   2.773   6.215  0.00  0.00    +0.000 C 
ATOM     29  N   UNL     1      48.664   2.524   6.429  0.00  0.00    +0.000 N 
ATOM     30  O   UNL     1      46.903   2.950   5.082  0.00  0.00    +0.000 OA
ATOM     31  H   UNL     1      49.026   2.395   7.367  0.00  0.00    +0.000 HD
ATOM     32  H   UNL     1      49.288   2.505   5.636  0.00  0.00    +0.000 HD
ENDBRANCH  24  28
ENDBRANCH  19  20
ENDBRANCH  18  19
ENDBRANCH   3  18
TORSDOF 6
ENDMDL
MODEL 4
REMARK VINA RESULT:    -6.847      4.499      7.743
REMARK INTER + INTRA:         -10.398
REMARK INTER:                  -8.929
REMARK INTRA:                  -1.469
REMARK UNBOUND:                -1.148
REMARK  Name = 
REMARK  10 active torsions:
REMARK  status: ('A' for Active; 'I' for Inactive)
REMARK    1  A    between atoms: C_1  and  C_2
REMARK    2  A    between atoms: C_2  and  C_3
REMARK    3  A    between atoms: C_5  and  O_6
REMARK    4  A    between atoms: O_6  and  C_7
REMARK    5  A    between atoms: C_9  and  C_10
REMARK    6  A    between atoms: C_10  and  C_11
REMARK    7  A    between atoms: C_11  and  N_12
REMARK    8  A    between atoms: C_16  and  C_17
REMARK    9  A    between atoms: C_27  and  C_28
REMARK   10  A    between atoms: C_27  and  C_29
REMARK                            x       y       z     vdW  Elec       q    Type
REMARK                         _______ _______ _______ _____ _____    ______ ____
ROOT
ATOM      1  C   UNL     1      47.112   7.890  13.018  0.00  0.00    +0.000 A 
ATOM      2  C   UNL     1      47.127   8.467  14.291  0.00  0.00    +0.000 A 
ATOM      3  C   UNL     1      48.333   8.829  14.914  0.00  0.00    +0.000 A 
ATOM      4  C   UNL     1      49.532   8.599  14.221  0.00  0.00    +0.000 A 
ATOM      5  C   UNL     1      49.511   8.033  12.946  0.00  0.00    +0.000 A 
ATOM      6  F   UNL     1      50.675   7.814  12.315  0.00  0.00    +0.000 F 
ATOM      7  C   UNL     1      48.309   7.686  12.337  0.00  0.00    +0.000 A 
ATOM      8  F   UNL     1      48.320   7.131  11.118  0.00  0.00    +0.000 F 
ENDROOT
BRANCH   1   9
ATOM      9  O   UNL     1      45.947   7.498  12.396  0.00  0.00    +0.000 OA
BRANCH   9  14
ATOM     10  C   UNL     1      44.658   3.367  11.034  0.00  0.00    +0.000 C 
ATOM     11  C   UNL     1      45.096   4.809  11.289  0.00  0.00    +0.000 C 
ATOM     12  C   UNL     1      45.728   5.385  10.012  0.00  0.00    +0.000 C 
ATOM     13  C   UNL     1      46.029   4.946  12.526  0.00  0.00    +0.000 C 
ATOM     14  C   UNL     1      45.312   6.283  12.880  0.00  0.00    +0.000 C 
ATOM     15  C   UNL     1      44.072   5.750  12.067  0.00  0.00    +0.000 C 
ATOM     16  C   UNL     1      43.318   6.779  11.225  0.00  0.00    +0.000 C 
ATOM     17  C   UNL     1      43.063   5.014  12.971  0.00  0.00    +0.000 C 
ENDBRANCH   9  14
ENDBRANCH   1   9
BRANCH   3  18
ATOM     18  C   UNL     1      48.262   9.447  16.300  0.00  0.00    +0.000 C 
BRANCH  18  19
ATOM     19  C   UNL     1      48.779   8.565  17.442  0.00  0.00    +0.000 C 
BRANCH  19  20
ATOM     20  N   UNL     1      47.816   7.515  17.800  0.00  0.00    +0.000 N 
ATOM     21  C   UNL     1      48.365   6.223  17.624  0.00  0.00    +0.000 A 
ATOM     22  C   UNL     1      47.604   5.082  17.916  0.00  0.00    +0.000 A 
ATOM     23  N   UNL     1      48.047   3.800  17.758  0.00  0.00    +0.000 NA
ATOM     24  C   UNL     1      49.320   3.701  17.292  0.00  0.00    +0.000 A 
ATOM     25  C   UNL     1      50.094   4.819  17.014  0.00  0.00    +0.000 A 
ATOM     26  N   UNL     1      49.632   6.084  17.181  0.00  0.00    +0.000 NA
ATOM     27  H   UNL     1      46.959   7.578  17.255  0.00  0.00    +0.000 HD
BRANCH  24  28
ATOM     28  C   UNL     1      49.884   2.345  17.067  0.00  0.00    +0.000 C 
ATOM     29  N   UNL     1      50.854   1.915  17.929  0.00  0.00    +0.000 N 
ATOM     30  O   UNL     1      49.497   1.633  16.145  0.00  0.00    +0.000 OA
ATOM     31  H   UNL     1      51.186   2.510  18.679  0.00  0.00    +0.000 HD
ATOM     32  H   UNL     1      51.261   1.003  17.786  0.00  0.00    +0.000 HD
ENDBRANCH  24  28
ENDBRANCH  19  20
ENDBRANCH  18  19
ENDBRANCH   3  18
TORSDOF 6
ENDMDL
MODEL 5
REMARK VINA RESULT:    -6.761      4.305      7.933
REMARK INTER + INTRA:         -10.281
REMARK INTER:                  -8.848
REMARK INTRA:                  -1.433
REMARK UNBOUND:                -1.148
REMARK  Name = 
REMARK  10 active torsions:
REMARK  status: ('A' for Active; 'I' for Inactive)
REMARK    1  A    between atoms: C_1  and  C_2
REMARK    2  A    between atoms: C_2  and  C_3
REMARK    3  A    between atoms: C_5  and  O_6
REMARK    4  A    between atoms: O_6  and  C_7
REMARK    5  A    between atoms: C_9  and  C_10
REMARK    6  A    between atoms: C_10  and  C_11
REMARK    7  A    between atoms: C_11  and  N_12
REMARK    8  A    between atoms: C_16  and  C_17
REMARK    9  A    between atoms: C_27  and  C_28
REMARK   10  A    between atoms: C_27  and  C_29
REMARK                            x       y       z     vdW  Elec       q    Type
REMARK                         _______ _______ _______ _____ _____    ______ ____
ROOT
ATOM      1  C   UNL     1      45.636   8.037  12.667  0.00  0.00    +0.000 A 
ATOM      2  C   UNL     1      46.885   8.290  13.240  0.00  0.00    +0.000 A 
ATOM      3  C   UNL     1      47.568   9.493  12.997  0.00  0.00    +0.000 A 
ATOM      4  C   UNL     1      46.959  10.444  12.163  0.00  0.00    +0.000 A 
ATOM      5  C   UNL     1      45.707  10.191  11.603  0.00  0.00    +0.000 A 
ATOM      6  F   UNL     1      45.157  11.115  10.799  0.00  0.00    +0.000 F 
ATOM      7  C   UNL     1      45.038   8.998  11.858  0.00  0.00    +0.000 A 
ATOM      8  F   UNL     1      43.842   8.776  11.295  0.00  0.00    +0.000 F 
ENDROOT
BRANCH   1   9
ATOM      9  O   UNL     1      44.957   6.854  12.863  0.00  0.00    +0.000 OA
BRANCH   9  14
ATOM     10  C   UNL     1      44.321   3.530   9.842  0.00  0.00    +0.000 C 
ATOM     11  C   UNL     1      44.329   4.686  10.842  0.00  0.00    +0.000 C 
ATOM     12  C   UNL     1      43.087   5.563  10.620  0.00  0.00    +0.000 C 
ATOM     13  C   UNL     1      45.649   5.507  10.804  0.00  0.00    +0.000 C 
ATOM     14  C   UNL     1      45.576   5.641  12.355  0.00  0.00    +0.000 C 
ATOM     15  C   UNL     1      44.695   4.334  12.352  0.00  0.00    +0.000 C 
ATOM     16  C   UNL     1      43.532   4.296  13.344  0.00  0.00    +0.000 C 
ATOM     17  C   UNL     1      45.549   3.064  12.541  0.00  0.00    +0.000 C 
ENDBRANCH   9  14
ENDBRANCH   1   9
BRANCH   3  18
ATOM     18  C   UNL     1      48.924   9.689  13.655  0.00  0.00    +0.000 C 
BRANCH  18  19
ATOM     19  C   UNL     1      49.544   8.430  14.272  0.00  0.00    +0.000 C 
BRANCH  19  20
ATOM     20  N   UNL     1      49.470   8.448  15.739  0.00  0.00    +0.000 N 
ATOM     21  C   UNL     1      49.001   7.217  16.253  0.00  0.00    +0.000 A 
ATOM     22  C   UNL     1      48.863   7.030  17.636  0.00  0.00    +0.000 A 
ATOM     23  N   UNL     1      48.401   5.884  18.216  0.00  0.00    +0.000 NA
ATOM     24  C   UNL     1      48.082   4.900  17.334  0.00  0.00    +0.000 A 
ATOM     25  C   UNL     1      48.228   5.061  15.963  0.00  0.00    +0.000 A 
ATOM     26  N   UNL     1      48.692   6.210  15.410  0.00  0.00    +0.000 NA
ATOM     27  H   UNL     1      48.868   9.192  16.084  0.00  0.00    +0.000 HD
BRANCH  24  28
ATOM     28  C   UNL     1      47.549   3.620  17.868  0.00  0.00    +0.000 C 
ATOM     29  N   UNL     1      48.126   3.122  19.003  0.00  0.00    +0.000 N 
ATOM     30  O   UNL     1      46.625   3.029  17.318  0.00  0.00    +0.000 OA
ATOM     31  H   UNL     1      48.900   3.601  19.448  0.00  0.00    +0.000 HD
ATOM     32  H   UNL     1      47.788   2.247  19.375  0.00  0.00    +0.000 HD
ENDBRANCH  24  28
ENDBRANCH  19  20
ENDBRANCH  18  19
ENDBRANCH   3  18
TORSDOF 6
ENDMDL
MODEL 6
REMARK VINA RESULT:    -6.560      2.972      4.401
REMARK INTER + INTRA:         -10.010
REMARK INTER:                  -9.089
REMARK INTRA:                  -0.922
REMARK UNBOUND:                -1.148
REMARK  Name = 
REMARK  10 active torsions:
REMARK  status: ('A' for Active; 'I' for Inactive)
REMARK    1  A    between atoms: C_1  and  C_2
REMARK    2  A    between atoms: C_2  and  C_3
REMARK    3  A    between atoms: C_5  and  O_6
REMARK    4  A    between atoms: O_6  and  C_7
REMARK    5  A    between atoms: C_9  and  C_10
REMARK    6  A    between atoms: C_10  and  C_11
REMARK    7  A    between atoms: C_11  and  N_12
REMARK    8  A    between atoms: C_16  and  C_17
REMARK    9  A    between atoms: C_27  and  C_28
REMARK   10  A    between atoms: C_27  and  C_29
REMARK                            x       y       z     vdW  Elec       q    Type
REMARK                         _______ _______ _______ _____ _____    ______ ____
ROOT
ATOM      1  C   UNL     1      49.839   7.047  15.606  0.00  0.00    +0.000 A 
ATOM      2  C   UNL     1      49.289   7.076  14.321  0.00  0.00    +0.000 A 
ATOM      3  C   UNL     1      49.047   8.290  13.659  0.00  0.00    +0.000 A 
ATOM      4  C   UNL     1      49.375   9.483  14.321  0.00  0.00    +0.000 A 
ATOM      5  C   UNL     1      49.934   9.449  15.599  0.00  0.00    +0.000 A 
ATOM      6  F   UNL     1      50.225  10.607  16.211  0.00  0.00    +0.000 F 
ATOM      7  C   UNL     1      50.177   8.238  16.241  0.00  0.00    +0.000 A 
ATOM      8  F   UNL     1      50.701   8.235  17.474  0.00  0.00    +0.000 F 
ENDROOT
BRANCH   1   9
ATOM      9  O   UNL     1      50.060   5.872  16.291  0.00  0.00    +0.000 OA
BRANCH   9  14
ATOM     10  C   UNL     1      48.620   4.410  20.337  0.00  0.00    +0.000 C 
ATOM     11  C   UNL     1      49.299   4.890  19.054  0.00  0.00    +0.000 C 
ATOM     12  C   UNL     1      50.699   5.430  19.388  0.00  0.00    +0.000 C 
ATOM     13  C   UNL     1      48.439   5.920  18.267  0.00  0.00    +0.000 C 
ATOM     14  C   UNL     1      48.914   5.256  16.940  0.00  0.00    +0.000 C 
ATOM     15  C   UNL     1      49.182   3.947  17.776  0.00  0.00    +0.000 C 
ATOM     16  C   UNL     1      50.430   3.146  17.403  0.00  0.00    +0.000 C 
ATOM     17  C   UNL     1      47.965   3.000  17.769  0.00  0.00    +0.000 C 
ENDBRANCH   9  14
ENDBRANCH   1   9
BRANCH   3  18
ATOM     18  C   UNL     1      48.443   8.234  12.265  0.00  0.00    +0.000 C 
BRANCH  18  19
ATOM     19  C   UNL     1      46.912   8.158  12.213  0.00  0.00    +0.000 C 
BRANCH  19  20
ATOM     20  N   UNL     1      46.376   7.255  13.240  0.00  0.00    +0.000 N 
ATOM     21  C   UNL     1      45.776   6.110  12.664  0.00  0.00    +0.000 A 
ATOM     22  C   UNL     1      45.207   5.121  13.478  0.00  0.00    +0.000 A 
ATOM     23  N   UNL     1      44.592   3.996  13.008  0.00  0.00    +0.000 NA
ATOM     24  C   UNL     1      44.577   3.892  11.653  0.00  0.00    +0.000 A 
ATOM     25  C   UNL     1      45.151   4.852  10.832  0.00  0.00    +0.000 A 
ATOM     26  N   UNL     1      45.758   5.962  11.323  0.00  0.00    +0.000 NA
ATOM     27  H   UNL     1      45.689   7.713  13.834  0.00  0.00    +0.000 HD
BRANCH  24  28
ATOM     28  C   UNL     1      43.911   2.711  11.044  0.00  0.00    +0.000 C 
ATOM     29  N   UNL     1      44.412   2.245   9.861  0.00  0.00    +0.000 N 
ATOM     30  O   UNL     1      42.949   2.169  11.580  0.00  0.00    +0.000 OA
ATOM     31  H   UNL     1      45.195   2.704   9.410  0.00  0.00    +0.000 HD
ATOM     32  H   UNL     1      43.966   1.453   9.423  0.00  0.00    +0.000 HD
ENDBRANCH  24  28
ENDBRANCH  19  20
ENDBRANCH  18  19
ENDBRANCH   3  18
TORSDOF 6
ENDMDL
MODEL 7
REMARK VINA RESULT:    -6.536      3.173      4.187
REMARK INTER + INTRA:          -9.977
REMARK INTER:                  -8.783
REMARK INTRA:                  -1.193
REMARK UNBOUND:                -1.148
REMARK  Name = 
REMARK  10 active torsions:
REMARK  status: ('A' for Active; 'I' for Inactive)
REMARK    1  A    between atoms: C_1  and  C_2
REMARK    2  A    between atoms: C_2  and  C_3
REMARK    3  A    between atoms: C_5  and  O_6
REMARK    4  A    between atoms: O_6  and  C_7
REMARK    5  A    between atoms: C_9  and  C_10
REMARK    6  A    between atoms: C_10  and  C_11
REMARK    7  A    between atoms: C_11  and  N_12
REMARK    8  A    between atoms: C_16  and  C_17
REMARK    9  A    between atoms: C_27  and  C_28
REMARK   10  A    between atoms: C_27  and  C_29
REMARK                            x       y       z     vdW  Elec       q    Type
REMARK                         _______ _______ _______ _____ _____    ______ ____
ROOT
ATOM      1  C   UNL     1      49.143   7.067  14.697  0.00  0.00    +0.000 A 
ATOM      2  C   UNL     1      48.060   7.600  13.993  0.00  0.00    +0.000 A 
ATOM      3  C   UNL     1      48.222   8.688  13.120  0.00  0.00    +0.000 A 
ATOM      4  C   UNL     1      49.508   9.231  12.969  0.00  0.00    +0.000 A 
ATOM      5  C   UNL     1      50.588   8.688  13.666  0.00  0.00    +0.000 A 
ATOM      6  F   UNL     1      51.802   9.237  13.509  0.00  0.00    +0.000 F 
ATOM      7  C   UNL     1      50.415   7.604  14.521  0.00  0.00    +0.000 A 
ATOM      8  F   UNL     1      51.468   7.113  15.189  0.00  0.00    +0.000 F 
ENDROOT
BRANCH   1   9
ATOM      9  O   UNL     1      49.008   6.019  15.582  0.00  0.00    +0.000 OA
BRANCH   9  14
ATOM     10  C   UNL     1      49.614   4.738  19.892  0.00  0.00    +0.000 C 
ATOM     11  C   UNL     1      49.484   4.981  18.388  0.00  0.00    +0.000 C 
ATOM     12  C   UNL     1      50.404   4.009  17.632  0.00  0.00    +0.000 C 
ATOM     13  C   UNL     1      49.735   6.463  17.992  0.00  0.00    +0.000 C 
ATOM     14  C   UNL     1      48.594   6.343  16.938  0.00  0.00    +0.000 C 
ATOM     15  C   UNL     1      48.011   5.167  17.809  0.00  0.00    +0.000 C 
ATOM     16  C   UNL     1      47.424   3.981  17.044  0.00  0.00    +0.000 C 
ATOM     17  C   UNL     1      46.966   5.668  18.826  0.00  0.00    +0.000 C 
ENDBRANCH   9  14
ENDBRANCH   1   9
BRANCH   3  18
ATOM     18  C   UNL     1      46.992   9.211  12.396  0.00  0.00    +0.000 C 
BRANCH  18  19
ATOM     19  C   UNL     1      45.646   8.758  12.973  0.00  0.00    +0.000 C 
BRANCH  19  20
ATOM     20  N   UNL     1      44.700   8.377  11.916  0.00  0.00    +0.000 N 
ATOM     21  C   UNL     1      44.449   6.985  11.917  0.00  0.00    +0.000 A 
ATOM     22  C   UNL     1      43.567   6.420  10.985  0.00  0.00    +0.000 A 
ATOM     23  N   UNL     1      43.283   5.087  10.904  0.00  0.00    +0.000 NA
ATOM     24  C   UNL     1      43.926   4.320  11.823  0.00  0.00    +0.000 A 
ATOM     25  C   UNL     1      44.789   4.864  12.765  0.00  0.00    +0.000 A 
ATOM     26  N   UNL     1      45.055   6.193  12.827  0.00  0.00    +0.000 NA
ATOM     27  H   UNL     1      45.029   8.643  10.991  0.00  0.00    +0.000 HD
BRANCH  24  28
ATOM     28  C   UNL     1      43.697   2.852  11.801  0.00  0.00    +0.000 C 
ATOM     29  N   UNL     1      43.939   2.195  10.627  0.00  0.00    +0.000 N 
ATOM     30  O   UNL     1      43.310   2.247  12.795  0.00  0.00    +0.000 OA
ATOM     31  H   UNL     1      44.242   2.698   9.800  0.00  0.00    +0.000 HD
ATOM     32  H   UNL     1      43.777   1.200  10.585  0.00  0.00    +0.000 HD
ENDBRANCH  24  28
ENDBRANCH  19  20
ENDBRANCH  18  19
ENDBRANCH   3  18
TORSDOF 6
ENDMDL
MODEL 8
REMARK VINA RESULT:    -6.172      3.971      6.332
REMARK INTER + INTRA:          -9.485
REMARK INTER:                  -8.439
REMARK INTRA:                  -1.046
REMARK UNBOUND:                -1.148
REMARK  Name = 
REMARK  10 active torsions:
REMARK  status: ('A' for Active; 'I' for Inactive)
REMARK    1  A    between atoms: C_1  and  C_2
REMARK    2  A    between atoms: C_2  and  C_3
REMARK    3  A    between atoms: C_5  and  O_6
REMARK    4  A    between atoms: O_6  and  C_7
REMARK    5  A    between atoms: C_9  and  C_10
REMARK    6  A    between atoms: C_10  and  C_11
REMARK    7  A    between atoms: C_11  and  N_12
REMARK    8  A    between atoms: C_16  and  C_17
REMARK    9  A    between atoms: C_27  and  C_28
REMARK   10  A    between atoms: C_27  and  C_29
REMARK                            x       y       z     vdW  Elec       q    Type
REMARK                         _______ _______ _______ _____ _____    ______ ____
ROOT
ATOM      1  C   UNL     1      51.503   4.454  18.153  0.00  0.00    +0.000 A 
ATOM      2  C   UNL     1      50.142   4.747  18.023  0.00  0.00    +0.000 A 
ATOM      3  C   UNL     1      49.228   3.781  17.573  0.00  0.00    +0.000 A 
ATOM      4  C   UNL     1      49.716   2.503  17.256  0.00  0.00    +0.000 A 
ATOM      5  C   UNL     1      51.073   2.212  17.398  0.00  0.00    +0.000 A 
ATOM      6  F   UNL     1      51.510   0.985  17.075  0.00  0.00    +0.000 F 
ATOM      7  C   UNL     1      51.967   3.177  17.853  0.00  0.00    +0.000 A 
ATOM      8  F   UNL     1      53.268   2.874  17.965  0.00  0.00    +0.000 F 
ENDROOT
BRANCH   1   9
ATOM      9  O   UNL     1      52.427   5.390  18.563  0.00  0.00    +0.000 OA
BRANCH   9  14
ATOM     10  C   UNL     1      54.849   7.517  15.371  0.00  0.00    +0.000 C 
ATOM     11  C   UNL     1      54.201   6.678  16.472  0.00  0.00    +0.000 C 
ATOM     12  C   UNL     1      54.933   5.331  16.586  0.00  0.00    +0.000 C 
ATOM     13  C   UNL     1      52.668   6.505  16.275  0.00  0.00    +0.000 C 
ATOM     14  C   UNL     1      52.486   6.637  17.818  0.00  0.00    +0.000 C 
ATOM     15  C   UNL     1      53.853   7.420  17.839  0.00  0.00    +0.000 C 
ATOM     16  C   UNL     1      54.779   7.139  19.022  0.00  0.00    +0.000 C 
ATOM     17  C   UNL     1      53.646   8.943  17.722  0.00  0.00    +0.000 C 
ENDBRANCH   9  14
ENDBRANCH   1   9
BRANCH   3  18
ATOM     18  C   UNL     1      47.767   4.182  17.456  0.00  0.00    +0.000 C 
BRANCH  18  19
ATOM     19  C   UNL     1      47.147   4.013  16.064  0.00  0.00    +0.000 C 
BRANCH  19  20
ATOM     20  N   UNL     1      47.418   5.171  15.202  0.00  0.00    +0.000 N 
ATOM     21  C   UNL     1      46.725   5.078  13.972  0.00  0.00    +0.000 A 
ATOM     22  C   UNL     1      46.847   6.089  13.009  0.00  0.00    +0.000 A 
ATOM     23  N   UNL     1      46.230   6.072  11.791  0.00  0.00    +0.000 NA
ATOM     24  C   UNL     1      45.456   4.976  11.572  0.00  0.00    +0.000 A 
ATOM     25  C   UNL     1      45.309   3.973  12.520  0.00  0.00    +0.000 A 
ATOM     26  N   UNL     1      45.932   4.014  13.725  0.00  0.00    +0.000 NA
ATOM     27  H   UNL     1      48.410   5.279  15.005  0.00  0.00    +0.000 HD
BRANCH  24  28
ATOM     28  C   UNL     1      44.760   4.855  10.264  0.00  0.00    +0.000 C 
ATOM     29  N   UNL     1      45.475   5.158   9.140  0.00  0.00    +0.000 N 
ATOM     30  O   UNL     1      43.589   4.495  10.191  0.00  0.00    +0.000 OA
ATOM     31  H   UNL     1      46.437   5.472   9.202  0.00  0.00    +0.000 HD
ATOM     32  H   UNL     1      45.018   5.095   8.242  0.00  0.00    +0.000 HD
ENDBRANCH  24  28
ENDBRANCH  19  20
ENDBRANCH  18  19
ENDBRANCH   3  18
TORSDOF 6
ENDMDL
MODEL 9
REMARK VINA RESULT:    -6.123      4.366      7.816
REMARK INTER + INTRA:          -9.419
REMARK INTER:                  -8.037
REMARK INTRA:                  -1.382
REMARK UNBOUND:                -1.148
REMARK  Name = 
REMARK  10 active torsions:
REMARK  status: ('A' for Active; 'I' for Inactive)
REMARK    1  A    between atoms: C_1  and  C_2
REMARK    2  A    between atoms: C_2  and  C_3
REMARK    3  A    between atoms: C_5  and  O_6
REMARK    4  A    between atoms: O_6  and  C_7
REMARK    5  A    between atoms: C_9  and  C_10
REMARK    6  A    between atoms: C_10  and  C_11
REMARK    7  A    between atoms: C_11  and  N_12
REMARK    8  A    between atoms: C_16  and  C_17
REMARK    9  A    between atoms: C_27  and  C_28
REMARK   10  A    between atoms: C_27  and  C_29
REMARK                            x       y       z     vdW  Elec       q    Type
REMARK                         _______ _______ _______ _____ _____    ______ ____
ROOT
ATOM      1  C   UNL     1      46.166   7.271  12.053  0.00  0.00    +0.000 A 
ATOM      2  C   UNL     1      46.564   6.035  12.570  0.00  0.00    +0.000 A 
ATOM      3  C   UNL     1      45.692   4.934  12.579  0.00  0.00    +0.000 A 
ATOM      4  C   UNL     1      44.403   5.105  12.049  0.00  0.00    +0.000 A 
ATOM      5  C   UNL     1      44.015   6.338  11.524  0.00  0.00    +0.000 A 
ATOM      6  F   UNL     1      42.771   6.473  11.037  0.00  0.00    +0.000 F 
ATOM      7  C   UNL     1      44.891   7.418  11.514  0.00  0.00    +0.000 A 
ATOM      8  F   UNL     1      44.487   8.595  11.017  0.00  0.00    +0.000 F 
ENDROOT
BRANCH   1   9
ATOM      9  O   UNL     1      46.990   8.376  12.058  0.00  0.00    +0.000 OA
BRANCH   9  14
ATOM     10  C   UNL     1      50.635  10.749  13.345  0.00  0.00    +0.000 C 
ATOM     11  C   UNL     1      49.444  10.026  12.719  0.00  0.00    +0.000 C 
ATOM     12  C   UNL     1      49.054  10.722  11.405  0.00  0.00    +0.000 C 
ATOM     13  C   UNL     1      48.241   9.889  13.695  0.00  0.00    +0.000 C 
ATOM     14  C   UNL     1      47.977   8.464  13.122  0.00  0.00    +0.000 C 
ATOM     15  C   UNL     1      49.493   8.433  12.696  0.00  0.00    +0.000 C 
ATOM     16  C   UNL     1      49.809   7.780  11.350  0.00  0.00    +0.000 C 
ATOM     17  C   UNL     1      50.383   7.790  13.779  0.00  0.00    +0.000 C 
ENDBRANCH   9  14
ENDBRANCH   1   9
BRANCH   3  18
ATOM     18  C   UNL     1      46.201   3.626  13.163  0.00  0.00    +0.000 C 
BRANCH  18  19
ATOM     19  C   UNL     1      47.370   3.755  14.146  0.00  0.00    +0.000 C 
BRANCH  19  20
ATOM     20  N   UNL     1      46.929   3.613  15.540  0.00  0.00    +0.000 N 
ATOM     21  C   UNL     1      47.551   4.565  16.382  0.00  0.00    +0.000 A 
ATOM     22  C   UNL     1      47.259   4.599  17.753  0.00  0.00    +0.000 A 
ATOM     23  N   UNL     1      47.825   5.469  18.639  0.00  0.00    +0.000 NA
ATOM     24  C   UNL     1      48.712   6.337  18.083  0.00  0.00    +0.000 A 
ATOM     25  C   UNL     1      49.000   6.329  16.725  0.00  0.00    +0.000 A 
ATOM     26  N   UNL     1      48.422   5.455  15.863  0.00  0.00    +0.000 NA
ATOM     27  H   UNL     1      47.119   2.684  15.910  0.00  0.00    +0.000 HD
BRANCH  24  28
ATOM     28  C   UNL     1      49.397   7.310  18.972  0.00  0.00    +0.000 C 
ATOM     29  N   UNL     1      50.611   6.948  19.486  0.00  0.00    +0.000 N 
ATOM     30  O   UNL     1      48.899   8.401  19.236  0.00  0.00    +0.000 OA
ATOM     31  H   UNL     1      51.014   6.041  19.282  0.00  0.00    +0.000 HD
ATOM     32  H   UNL     1      51.087   7.589  20.103  0.00  0.00    +0.000 HD
ENDBRANCH  24  28
ENDBRANCH  19  20
ENDBRANCH  18  19
ENDBRANCH   3  18
TORSDOF 6
ENDMDL
