MODEL 1
REMARK VINA RESULT:    -8.199      0.000      0.000
REMARK INTER + INTRA:         -10.359
REMARK INTER:                  -9.877
REMARK INTRA:                  -0.482
REMARK UNBOUND:                -0.482
REMARK  Name = 
REMARK  4 active torsions:
REMARK  status: ('A' for Active; 'I' for Inactive)
REMARK    1  A    between atoms: N_1  and  C_2
REMARK    2  A    between atoms: C_2  and  C_3
REMARK    3  A    between atoms: C_6  and  C_7
REMARK    4  A    between atoms: C_7  and  C_8
REMARK                            x       y       z     vdW  Elec       q    Type
REMARK                         _______ _______ _______ _____ _____    ______ ____
ROOT
ATOM      1  C   UNL     1      43.832   4.418   9.936  0.00  0.00    +0.000 C 
ENDROOT
BRANCH   1   2
ATOM      2  C   UNL     1      44.405   4.462  11.314  0.00  0.00    +0.000 A 
ATOM      3  N   UNL     1      43.952   3.609  12.249  0.00  0.00    +0.000 NA
ATOM      4  N   UNL     1      44.772   3.809  13.293  0.00  0.00    +0.000 N 
ATOM      5  C   UNL     1      45.734   4.757  13.083  0.00  0.00    +0.000 A 
ATOM      6  C   UNL     1      46.779   5.216  13.891  0.00  0.00    +0.000 A 
ATOM      7  C   UNL     1      47.607   6.209  13.359  0.00  0.00    +0.000 A 
ATOM      8  C   UNL     1      47.388   6.722  12.080  0.00  0.00    +0.000 A 
ATOM      9  C   UNL     1      46.340   6.240  11.283  0.00  0.00    +0.000 A 
ATOM     10  C   UNL     1      45.503   5.231  11.797  0.00  0.00    +0.000 A 
ATOM     11  H   UNL     1      44.637   3.245  14.125  0.00  0.00    +0.000 HD
ENDBRANCH   1   2
BRANCH   1  15
ATOM     12  C   UNL     1      46.661   2.333   7.503  0.00  0.00    +0.000 A 
ATOM     13  C   UNL     1      45.895   1.609   8.418  0.00  0.00    +0.000 A 
ATOM     14  C   UNL     1      44.936   2.259   9.196  0.00  0.00    +0.000 A 
ATOM     15  C   UNL     1      44.757   3.633   9.040  0.00  0.00    +0.000 A 
ATOM     16  N   UNL     1      45.486   4.355   8.149  0.00  0.00    +0.000 NA
ATOM     17  C   UNL     1      46.412   3.696   7.412  0.00  0.00    +0.000 A 
BRANCH  12  18
ATOM     18  C   UNL     1      47.735   1.686   6.678  0.00  0.00    +0.000 C 
BRANCH  18  19
ATOM     19  N   UNL     1      48.697   2.662   6.179  0.00  0.00    +0.000 NA
ATOM     20  H   UNL     1      48.382   3.598   6.424  0.00  0.00    +0.000 HD
ATOM     21  H   UNL     1      48.714   2.620   5.161  0.00  0.00    +0.000 HD
ENDBRANCH  18  19
ENDBRANCH  12  18
ENDBRANCH   1  15
TORSDOF 4
ENDMDL
MODEL 2
REMARK VINA RESULT:    -7.516      1.268      5.964
REMARK INTER + INTRA:          -9.536
REMARK INTER:                  -9.095
REMARK INTRA:                  -0.441
REMARK UNBOUND:                -0.482
REMARK  Name = 
REMARK  4 active torsions:
REMARK  status: ('A' for Active; 'I' for Inactive)
REMARK    1  A    between atoms: N_1  and  C_2
REMARK    2  A    between atoms: C_2  and  C_3
REMARK    3  A    between atoms: C_6  and  C_7
REMARK    4  A    between atoms: C_7  and  C_8
REMARK                            x       y       z     vdW  Elec       q    Type
REMARK                         _______ _______ _______ _____ _____    ______ ____
ROOT
ATOM      1  C   UNL     1      44.289   4.356   9.688  0.00  0.00    +0.000 C 
ENDROOT
BRANCH   1   2
ATOM      2  C   UNL     1      45.332   4.019   8.675  0.00  0.00    +0.000 A 
ATOM      3  N   UNL     1      46.047   5.004   8.104  0.00  0.00    +0.000 NA
ATOM      4  N   UNL     1      46.977   4.355   7.385  0.00  0.00    +0.000 N 
ATOM      5  C   UNL     1      46.896   2.992   7.456  0.00  0.00    +0.000 A 
ATOM      6  C   UNL     1      47.687   1.984   6.896  0.00  0.00    +0.000 A 
ATOM      7  C   UNL     1      47.329   0.662   7.180  0.00  0.00    +0.000 A 
ATOM      8  C   UNL     1      46.224   0.370   7.980  0.00  0.00    +0.000 A 
ATOM      9  C   UNL     1      45.451   1.397   8.539  0.00  0.00    +0.000 A 
ATOM     10  C   UNL     1      45.803   2.734   8.275  0.00  0.00    +0.000 A 
ATOM     11  H   UNL     1      47.661   4.904   6.878  0.00  0.00    +0.000 HD
ENDBRANCH   1   2
BRANCH   1  15
ATOM     12  C   UNL     1      46.316   4.487  13.448  0.00  0.00    +0.000 A 
ATOM     13  C   UNL     1      46.108   5.680  12.751  0.00  0.00    +0.000 A 
ATOM     14  C   UNL     1      45.414   5.669  11.541  0.00  0.00    +0.000 A 
ATOM     15  C   UNL     1      44.933   4.458  11.048  0.00  0.00    +0.000 A 
ATOM     16  N   UNL     1      45.117   3.288  11.715  0.00  0.00    +0.000 NA
ATOM     17  C   UNL     1      45.798   3.329  12.883  0.00  0.00    +0.000 A 
BRANCH  12  18
ATOM     18  C   UNL     1      47.096   4.443  14.730  0.00  0.00    +0.000 C 
BRANCH  18  19
ATOM     19  N   UNL     1      47.627   3.110  14.994  0.00  0.00    +0.000 NA
ATOM     20  H   UNL     1      46.951   2.583  15.543  0.00  0.00    +0.000 HD
ATOM     21  H   UNL     1      48.463   3.195  15.571  0.00  0.00    +0.000 HD
ENDBRANCH  18  19
ENDBRANCH  12  18
ENDBRANCH   1  15
TORSDOF 4
ENDMDL
MODEL 3
REMARK VINA RESULT:    -7.491      1.627      2.072
REMARK INTER + INTRA:          -9.506
REMARK INTER:                  -9.152
REMARK INTRA:                  -0.354
REMARK UNBOUND:                -0.482
REMARK  Name = 
REMARK  4 active torsions:
REMARK  status: ('A' for Active; 'I' for Inactive)
REMARK    1  A    between atoms: N_1  and  C_2
REMARK    2  A    between atoms: C_2  and  C_3
REMARK    3  A    between atoms: C_6  and  C_7
REMARK    4  A    between atoms: C_7  and  C_8
REMARK                            x       y       z     vdW  Elec       q    Type
REMARK                         _______ _______ _______ _____ _____    ______ ____
ROOT
ATOM      1  C   UNL     1      43.865   3.653  10.633  0.00  0.00    +0.000 C 
ENDROOT
BRANCH   1   2
ATOM      2  C   UNL     1      43.991   5.102  10.968  0.00  0.00    +0.000 A 
ATOM      3  N   UNL     1      42.962   5.932  10.725  0.00  0.00    +0.000 NA
ATOM      4  N   UNL     1      43.346   7.093  11.279  0.00  0.00    +0.000 N 
ATOM      5  C   UNL     1      44.581   7.059  11.865  0.00  0.00    +0.000 A 
ATOM      6  C   UNL     1      45.304   8.029  12.567  0.00  0.00    +0.000 A 
ATOM      7  C   UNL     1      46.561   7.658  13.055  0.00  0.00    +0.000 A 
ATOM      8  C   UNL     1      47.068   6.376  12.838  0.00  0.00    +0.000 A 
ATOM      9  C   UNL     1      46.322   5.417  12.141  0.00  0.00    +0.000 A 
ATOM     10  C   UNL     1      45.049   5.768  11.652  0.00  0.00    +0.000 A 
ATOM     11  H   UNL     1      42.705   7.877  11.243  0.00  0.00    +0.000 HD
ENDBRANCH   1   2
BRANCH   1  15
ATOM     12  C   UNL     1      46.439   2.517   7.415  0.00  0.00    +0.000 A 
ATOM     13  C   UNL     1      46.063   3.857   7.538  0.00  0.00    +0.000 A 
ATOM     14  C   UNL     1      45.256   4.260   8.602  0.00  0.00    +0.000 A 
ATOM     15  C   UNL     1      44.840   3.311   9.534  0.00  0.00    +0.000 A 
ATOM     16  N   UNL     1      45.203   2.004   9.438  0.00  0.00    +0.000 NA
ATOM     17  C   UNL     1      45.982   1.643   8.392  0.00  0.00    +0.000 A 
BRANCH  12  18
ATOM     18  C   UNL     1      47.268   2.028   6.264  0.00  0.00    +0.000 C 
BRANCH  18  19
ATOM     19  N   UNL     1      48.637   2.527   6.330  0.00  0.00    +0.000 NA
ATOM     20  H   UNL     1      48.685   3.285   7.009  0.00  0.00    +0.000 HD
ATOM     21  H   UNL     1      48.886   2.932   5.429  0.00  0.00    +0.000 HD
ENDBRANCH  18  19
ENDBRANCH  12  18
ENDBRANCH   1  15
TORSDOF 4
ENDMDL
MODEL 4
REMARK VINA RESULT:    -7.320      2.080      5.772
REMARK INTER + INTRA:          -9.301
REMARK INTER:                  -8.829
REMARK INTRA:                  -0.472
REMARK UNBOUND:                -0.482
REMARK  Name = 
REMARK  4 active torsions:
REMARK  status: ('A' for Active; 'I' for Inactive)
REMARK    1  A    between atoms: N_1  and  C_2
REMARK    2  A    between atoms: C_2  and  C_3
REMARK    3  A    between atoms: C_6  and  C_7
REMARK    4  A    between atoms: C_7  and  C_8
REMARK                            x       y       z     vdW  Elec       q    Type
REMARK                         _______ _______ _______ _____ _____    ______ ____
ROOT
ATOM      1  C   UNL     1      43.311   5.365  11.000  0.00  0.00    +0.000 C 
ENDROOT
BRANCH   1   2
ATOM      2  C   UNL     1      43.892   4.061  10.564  0.00  0.00    +0.000 A 
ATOM      3  N   UNL     1      43.442   2.917  11.109  0.00  0.00    +0.000 NA
ATOM      4  N   UNL     1      44.050   1.957  10.394  0.00  0.00    +0.000 N 
ATOM      5  C   UNL     1      44.880   2.423   9.413  0.00  0.00    +0.000 A 
ATOM      6  C   UNL     1      45.647   1.758   8.450  0.00  0.00    +0.000 A 
ATOM      7  C   UNL     1      46.392   2.550   7.571  0.00  0.00    +0.000 A 
ATOM      8  C   UNL     1      46.375   3.942   7.663  0.00  0.00    +0.000 A 
ATOM      9  C   UNL     1      45.592   4.588   8.630  0.00  0.00    +0.000 A 
ATOM     10  C   UNL     1      44.824   3.808   9.516  0.00  0.00    +0.000 A 
ATOM     11  H   UNL     1      43.838   0.990  10.611  0.00  0.00    +0.000 HD
ENDBRANCH   1   2
BRANCH   1  15
ATOM     12  C   UNL     1      46.473   7.425  13.005  0.00  0.00    +0.000 A 
ATOM     13  C   UNL     1      45.721   8.110  12.048  0.00  0.00    +0.000 A 
ATOM     14  C   UNL     1      44.658   7.473  11.408  0.00  0.00    +0.000 A 
ATOM     15  C   UNL     1      44.360   6.153  11.742  0.00  0.00    +0.000 A 
ATOM     16  N   UNL     1      45.074   5.471  12.677  0.00  0.00    +0.000 NA
ATOM     17  C   UNL     1      46.103   6.115  13.277  0.00  0.00    +0.000 A 
BRANCH  12  18
ATOM     18  C   UNL     1      47.654   8.054  13.686  0.00  0.00    +0.000 C 
BRANCH  18  19
ATOM     19  N   UNL     1      47.247   8.903  14.800  0.00  0.00    +0.000 NA
ATOM     20  H   UNL     1      46.512   9.536  14.489  0.00  0.00    +0.000 HD
ATOM     21  H   UNL     1      48.034   9.489  15.075  0.00  0.00    +0.000 HD
ENDBRANCH  18  19
ENDBRANCH  12  18
ENDBRANCH   1  15
TORSDOF 4
ENDMDL
MODEL 5
REMARK VINA RESULT:    -7.302      1.207      1.329
REMARK INTER + INTRA:          -9.278
REMARK INTER:                  -8.993
REMARK INTRA:                  -0.285
REMARK UNBOUND:                -0.482
REMARK  Name = 
REMARK  4 active torsions:
REMARK  status: ('A' for Active; 'I' for Inactive)
REMARK    1  A    between atoms: N_1  and  C_2
REMARK    2  A    between atoms: C_2  and  C_3
REMARK    3  A    between atoms: C_6  and  C_7
REMARK    4  A    between atoms: C_7  and  C_8
REMARK                            x       y       z     vdW  Elec       q    Type
REMARK                         _______ _______ _______ _____ _____    ______ ____
ROOT
ATOM      1  C   UNL     1      43.925   4.501  10.313  0.00  0.00    +0.000 C 
ENDROOT
BRANCH   1   2
ATOM      2  C   UNL     1      44.815   4.942  11.427  0.00  0.00    +0.000 A 
ATOM      3  N   UNL     1      45.464   4.022  12.163  0.00  0.00    +0.000 NA
ATOM      4  N   UNL     1      46.275   4.749  12.947  0.00  0.00    +0.000 N 
ATOM      5  C   UNL     1      46.180   6.101  12.761  0.00  0.00    +0.000 A 
ATOM      6  C   UNL     1      46.869   7.170  13.342  0.00  0.00    +0.000 A 
ATOM      7  C   UNL     1      46.530   8.456  12.912  0.00  0.00    +0.000 A 
ATOM      8  C   UNL     1      45.538   8.656  11.951  0.00  0.00    +0.000 A 
ATOM      9  C   UNL     1      44.866   7.569  11.374  0.00  0.00    +0.000 A 
ATOM     10  C   UNL     1      45.203   6.265  11.786  0.00  0.00    +0.000 A 
ATOM     11  H   UNL     1      46.895   4.259  13.582  0.00  0.00    +0.000 HD
ENDBRANCH   1   2
BRANCH   1  15
ATOM     12  C   UNL     1      46.444   2.400   7.573  0.00  0.00    +0.000 A 
ATOM     13  C   UNL     1      45.704   1.670   8.506  0.00  0.00    +0.000 A 
ATOM     14  C   UNL     1      44.844   2.329   9.385  0.00  0.00    +0.000 A 
ATOM     15  C   UNL     1      44.735   3.717   9.312  0.00  0.00    +0.000 A 
ATOM     16  N   UNL     1      45.439   4.445   8.406  0.00  0.00    +0.000 NA
ATOM     17  C   UNL     1      46.269   3.778   7.570  0.00  0.00    +0.000 A 
BRANCH  12  18
ATOM     18  C   UNL     1      47.415   1.740   6.639  0.00  0.00    +0.000 C 
BRANCH  18  19
ATOM     19  N   UNL     1      48.601   2.562   6.421  0.00  0.00    +0.000 NA
ATOM     20  H   UNL     1      48.346   3.545   6.495  0.00  0.00    +0.000 HD
ATOM     21  H   UNL     1      48.932   2.421   5.468  0.00  0.00    +0.000 HD
ENDBRANCH  18  19
ENDBRANCH  12  18
ENDBRANCH   1  15
TORSDOF 4
ENDMDL
MODEL 6
REMARK VINA RESULT:    -6.679      2.410      5.590
REMARK INTER + INTRA:          -8.528
REMARK INTER:                  -8.098
REMARK INTRA:                  -0.429
REMARK UNBOUND:                -0.482
REMARK  Name = 
REMARK  4 active torsions:
REMARK  status: ('A' for Active; 'I' for Inactive)
REMARK    1  A    between atoms: N_1  and  C_2
REMARK    2  A    between atoms: C_2  and  C_3
REMARK    3  A    between atoms: C_6  and  C_7
REMARK    4  A    between atoms: C_7  and  C_8
REMARK                            x       y       z     vdW  Elec       q    Type
REMARK                         _______ _______ _______ _____ _____    ______ ____
ROOT
ATOM      1  C   UNL     1      43.884   5.415  12.734  0.00  0.00    +0.000 C 
ENDROOT
BRANCH   1   2
ATOM      2  C   UNL     1      44.020   4.187  11.896  0.00  0.00    +0.000 A 
ATOM      3  N   UNL     1      43.459   3.037  12.308  0.00  0.00    +0.000 NA
ATOM      4  N   UNL     1      43.632   2.203  11.270  0.00  0.00    +0.000 N 
ATOM      5  C   UNL     1      44.286   2.757  10.203  0.00  0.00    +0.000 A 
ATOM      6  C   UNL     1      44.617   2.240   8.946  0.00  0.00    +0.000 A 
ATOM      7  C   UNL     1      45.292   3.091   8.066  0.00  0.00    +0.000 A 
ATOM      8  C   UNL     1      45.625   4.395   8.436  0.00  0.00    +0.000 A 
ATOM      9  C   UNL     1      45.274   4.895   9.698  0.00  0.00    +0.000 A 
ATOM     10  C   UNL     1      44.583   4.057  10.594  0.00  0.00    +0.000 A 
ATOM     11  H   UNL     1      43.259   1.264  11.340  0.00  0.00    +0.000 HD
ENDBRANCH   1   2
BRANCH   1  15
ATOM     12  C   UNL     1      47.652   7.198  13.681  0.00  0.00    +0.000 A 
ATOM     13  C   UNL     1      47.477   5.830  13.905  0.00  0.00    +0.000 A 
ATOM     14  C   UNL     1      46.271   5.216  13.567  0.00  0.00    +0.000 A 
ATOM     15  C   UNL     1      45.254   5.986  13.003  0.00  0.00    +0.000 A 
ATOM     16  N   UNL     1      45.407   7.316  12.769  0.00  0.00    +0.000 NA
ATOM     17  C   UNL     1      46.587   7.884  13.111  0.00  0.00    +0.000 A 
BRANCH  12  18
ATOM     18  C   UNL     1      48.914   7.911  14.069  0.00  0.00    +0.000 C 
BRANCH  18  19
ATOM     19  N   UNL     1      50.101   7.142  13.714  0.00  0.00    +0.000 NA
ATOM     20  H   UNL     1      50.140   6.300  14.285  0.00  0.00    +0.000 HD
ATOM     21  H   UNL     1      50.931   7.686  13.947  0.00  0.00    +0.000 HD
ENDBRANCH  18  19
ENDBRANCH  12  18
ENDBRANCH   1  15
TORSDOF 4
ENDMDL
MODEL 7
REMARK VINA RESULT:    -6.057      1.604      2.398
REMARK INTER + INTRA:          -7.779
REMARK INTER:                  -7.447
REMARK INTRA:                  -0.332
REMARK UNBOUND:                -0.482
REMARK  Name = 
REMARK  4 active torsions:
REMARK  status: ('A' for Active; 'I' for Inactive)
REMARK    1  A    between atoms: N_1  and  C_2
REMARK    2  A    between atoms: C_2  and  C_3
REMARK    3  A    between atoms: C_6  and  C_7
REMARK    4  A    between atoms: C_7  and  C_8
REMARK                            x       y       z     vdW  Elec       q    Type
REMARK                         _______ _______ _______ _____ _____    ______ ____
ROOT
ATOM      1  C   UNL     1      44.161   5.382  12.457  0.00  0.00    +0.000 C 
ENDROOT
BRANCH   1   2
ATOM      2  C   UNL     1      45.432   5.435  13.237  0.00  0.00    +0.000 A 
ATOM      3  N   UNL     1      45.858   4.340  13.890  0.00  0.00    +0.000 NA
ATOM      4  N   UNL     1      47.075   4.682  14.338  0.00  0.00    +0.000 N 
ATOM      5  C   UNL     1      47.460   5.954  14.013  0.00  0.00    +0.000 A 
ATOM      6  C   UNL     1      48.645   6.657  14.255  0.00  0.00    +0.000 A 
ATOM      7  C   UNL     1      48.720   7.965  13.767  0.00  0.00    +0.000 A 
ATOM      8  C   UNL     1      47.651   8.541  13.079  0.00  0.00    +0.000 A 
ATOM      9  C   UNL     1      46.477   7.814  12.839  0.00  0.00    +0.000 A 
ATOM     10  C   UNL     1      46.387   6.491  13.311  0.00  0.00    +0.000 A 
ATOM     11  H   UNL     1      47.612   3.990  14.847  0.00  0.00    +0.000 HD
ENDBRANCH   1   2
BRANCH   1  15
ATOM     12  C   UNL     1      45.238   3.852   8.614  0.00  0.00    +0.000 A 
ATOM     13  C   UNL     1      44.350   3.122   9.407  0.00  0.00    +0.000 A 
ATOM     14  C   UNL     1      43.951   3.619  10.648  0.00  0.00    +0.000 A 
ATOM     15  C   UNL     1      44.448   4.849  11.076  0.00  0.00    +0.000 A 
ATOM     16  N   UNL     1      45.306   5.579  10.316  0.00  0.00    +0.000 NA
ATOM     17  C   UNL     1      45.678   5.069   9.119  0.00  0.00    +0.000 A 
BRANCH  12  18
ATOM     18  C   UNL     1      45.731   3.338   7.293  0.00  0.00    +0.000 C 
BRANCH  18  19
ATOM     19  N   UNL     1      46.755   4.204   6.723  0.00  0.00    +0.000 NA
ATOM     20  H   UNL     1      46.867   3.986   5.735  0.00  0.00    +0.000 HD
ATOM     21  H   UNL     1      47.649   3.998   7.166  0.00  0.00    +0.000 HD
ENDBRANCH  18  19
ENDBRANCH  12  18
ENDBRANCH   1  15
TORSDOF 4
ENDMDL
MODEL 8
REMARK VINA RESULT:    -5.892      3.912      5.832
REMARK INTER + INTRA:          -7.579
REMARK INTER:                  -7.124
REMARK INTRA:                  -0.455
REMARK UNBOUND:                -0.482
REMARK  Name = 
REMARK  4 active torsions:
REMARK  status: ('A' for Active; 'I' for Inactive)
REMARK    1  A    between atoms: N_1  and  C_2
REMARK    2  A    between atoms: C_2  and  C_3
REMARK    3  A    between atoms: C_6  and  C_7
REMARK    4  A    between atoms: C_7  and  C_8
REMARK                            x       y       z     vdW  Elec       q    Type
REMARK                         _______ _______ _______ _____ _____    ______ ____
ROOT
ATOM      1  C   UNL     1      47.438   3.721  14.333  0.00  0.00    +0.000 C 
ENDROOT
BRANCH   1   2
ATOM      2  C   UNL     1      47.369   4.178  15.753  0.00  0.00    +0.000 A 
ATOM      3  N   UNL     1      46.690   3.446  16.653  0.00  0.00    +0.000 NA
ATOM      4  N   UNL     1      46.960   4.042  17.825  0.00  0.00    +0.000 N 
ATOM      5  C   UNL     1      47.779   5.134  17.728  0.00  0.00    +0.000 A 
ATOM      6  C   UNL     1      48.313   5.984  18.701  0.00  0.00    +0.000 A 
ATOM      7  C   UNL     1      49.139   7.021  18.257  0.00  0.00    +0.000 A 
ATOM      8  C   UNL     1      49.406   7.199  16.899  0.00  0.00    +0.000 A 
ATOM      9  C   UNL     1      48.868   6.328  15.941  0.00  0.00    +0.000 A 
ATOM     10  C   UNL     1      48.044   5.270  16.370  0.00  0.00    +0.000 A 
ATOM     11  H   UNL     1      46.570   3.641  18.670  0.00  0.00    +0.000 HD
ENDBRANCH   1   2
BRANCH   1  15
ATOM     12  C   UNL     1      43.887   5.096  12.392  0.00  0.00    +0.000 A 
ATOM     13  C   UNL     1      44.782   6.036  12.907  0.00  0.00    +0.000 A 
ATOM     14  C   UNL     1      45.968   5.615  13.509  0.00  0.00    +0.000 A 
ATOM     15  C   UNL     1      46.242   4.250  13.583  0.00  0.00    +0.000 A 
ATOM     16  N   UNL     1      45.388   3.319  13.081  0.00  0.00    +0.000 NA
ATOM     17  C   UNL     1      44.244   3.759  12.506  0.00  0.00    +0.000 A 
BRANCH  12  18
ATOM     18  C   UNL     1      42.579   5.499  11.776  0.00  0.00    +0.000 C 
BRANCH  18  19
ATOM     19  N   UNL     1      42.646   6.832  11.187  0.00  0.00    +0.000 NA
ATOM     20  H   UNL     1      43.265   6.811  10.379  0.00  0.00    +0.000 HD
ATOM     21  H   UNL     1      43.070   7.470  11.858  0.00  0.00    +0.000 HD
ENDBRANCH  18  19
ENDBRANCH  12  18
ENDBRANCH   1  15
TORSDOF 4
ENDMDL
MODEL 9
REMARK VINA RESULT:    -5.721      3.832      7.131
REMARK INTER + INTRA:          -7.374
REMARK INTER:                  -7.034
REMARK INTRA:                  -0.340
REMARK UNBOUND:                -0.482
REMARK  Name = 
REMARK  4 active torsions:
REMARK  status: ('A' for Active; 'I' for Inactive)
REMARK    1  A    between atoms: N_1  and  C_2
REMARK    2  A    between atoms: C_2  and  C_3
REMARK    3  A    between atoms: C_6  and  C_7
REMARK    4  A    between atoms: C_7  and  C_8
REMARK                            x       y       z     vdW  Elec       q    Type
REMARK                         _______ _______ _______ _____ _____    ______ ____
ROOT
ATOM      1  C   UNL     1      47.723   5.886  13.232  0.00  0.00    +0.000 C 
ENDROOT
BRANCH   1   2
ATOM      2  C   UNL     1      46.269   6.091  12.960  0.00  0.00    +0.000 A 
ATOM      3  N   UNL     1      45.745   7.326  13.043  0.00  0.00    +0.000 NA
ATOM      4  N   UNL     1      44.490   7.176  12.594  0.00  0.00    +0.000 N 
ATOM      5  C   UNL     1      44.169   5.898  12.228  0.00  0.00    +0.000 A 
ATOM      6  C   UNL     1      43.002   5.351  11.686  0.00  0.00    +0.000 A 
ATOM      7  C   UNL     1      43.008   3.980  11.412  0.00  0.00    +0.000 A 
ATOM      8  C   UNL     1      44.131   3.196  11.680  0.00  0.00    +0.000 A 
ATOM      9  C   UNL     1      45.294   3.768  12.214  0.00  0.00    +0.000 A 
ATOM     10  C   UNL     1      45.312   5.149  12.485  0.00  0.00    +0.000 A 
ATOM     11  H   UNL     1      43.898   7.997  12.538  0.00  0.00    +0.000 HD
ENDBRANCH   1   2
BRANCH   1  15
ATOM     12  C   UNL     1      48.133   4.915  17.374  0.00  0.00    +0.000 A 
ATOM     13  C   UNL     1      47.295   4.132  16.577  0.00  0.00    +0.000 A 
ATOM     14  C   UNL     1      47.174   4.404  15.214  0.00  0.00    +0.000 A 
ATOM     15  C   UNL     1      47.904   5.458  14.667  0.00  0.00    +0.000 A 
ATOM     16  N   UNL     1      48.732   6.226  15.423  0.00  0.00    +0.000 NA
ATOM     17  C   UNL     1      48.824   5.941  16.743  0.00  0.00    +0.000 A 
BRANCH  12  18
ATOM     18  C   UNL     1      48.260   4.690  18.852  0.00  0.00    +0.000 C 
BRANCH  18  19
ATOM     19  N   UNL     1      48.425   3.277  19.173  0.00  0.00    +0.000 NA
ATOM     20  H   UNL     1      48.395   3.156  20.183  0.00  0.00    +0.000 HD
ATOM     21  H   UNL     1      49.351   2.975  18.874  0.00  0.00    +0.000 HD
ENDBRANCH  18  19
ENDBRANCH  12  18
ENDBRANCH   1  15
TORSDOF 4
ENDMDL
