MODEL 1
REMARK VINA RESULT:    -9.265      0.000      0.000
REMARK INTER + INTRA:         -13.705
REMARK INTER:                 -12.514
REMARK INTRA:                  -1.191
REMARK UNBOUND:                -1.191
REMARK  Name = 
REMARK  6 active torsions:
REMARK  status: ('A' for Active; 'I' for Inactive)
REMARK    1  A    between atoms: C_2  and  C_4
REMARK    2  A    between atoms: C_7  and  N_8
REMARK    3  A    between atoms: N_8  and  C_9
REMARK    4  A    between atoms: C_9  and  C_10
REMARK    5  A    between atoms: C_10  and  C_13
REMARK    6  A    between atoms: C_18  and  C_19
REMARK                            x       y       z     vdW  Elec       q    Type
REMARK                         _______ _______ _______ _____ _____    ______ ____
ROOT
ATOM      1  C   UNL     1      43.338   5.418  12.221  0.00  0.00    +0.000 C 
ATOM      2  F   UNL     1      42.881   6.633  11.798  0.00  0.00    +0.000 F 
ATOM      3  F   UNL     1      42.551   5.093  13.295  0.00  0.00    +0.000 F 
ENDROOT
BRANCH   1   4
ATOM      4  C   UNL     1      44.808   5.473  12.597  0.00  0.00    +0.000 A 
ATOM      5  C   UNL     1      45.400   4.407  13.283  0.00  0.00    +0.000 A 
ATOM      6  C   UNL     1      46.742   4.472  13.625  0.00  0.00    +0.000 A 
ATOM      7  F   UNL     1      47.301   3.449  14.285  0.00  0.00    +0.000 F 
ATOM      8  C   UNL     1      47.521   5.575  13.289  0.00  0.00    +0.000 A 
ATOM      9  C   UNL     1      46.976   6.659  12.578  0.00  0.00    +0.000 A 
ATOM     10  C   UNL     1      45.605   6.584  12.248  0.00  0.00    +0.000 A 
BRANCH   9  11
ATOM     11  C   UNL     1      47.812   7.816  12.183  0.00  0.00    +0.000 A 
ATOM     12  C   UNL     1      49.159   7.686  11.815  0.00  0.00    +0.000 A 
ATOM     13  C   UNL     1      49.917   8.806  11.467  0.00  0.00    +0.000 A 
ATOM     14  C   UNL     1      49.306  10.046  11.483  0.00  0.00    +0.000 A 
ATOM     15  N   UNL     1      48.016  10.231  11.823  0.00  0.00    +0.000 NA
ATOM     16  C   UNL     1      47.312   9.122  12.162  0.00  0.00    +0.000 A 
ENDBRANCH   9  11
ENDBRANCH   1   4
BRANCH   1  17
ATOM     17  C   UNL     1      43.090   4.366  11.111  0.00  0.00    +0.000 C 
BRANCH  17  18
ATOM     18  N   UNL     1      43.652   4.759   9.804  0.00  0.00    +0.000 N 
ATOM     19  H   UNL     1      42.977   5.167   9.161  0.00  0.00    +0.000 HD
BRANCH  18  23
ATOM     20  C   UNL     1      46.445   2.313   7.797  0.00  0.00    +0.000 A 
ATOM     21  C   UNL     1      46.467   3.694   7.590  0.00  0.00    +0.000 A 
ATOM     22  C   UNL     1      45.561   4.519   8.269  0.00  0.00    +0.000 A 
ATOM     23  C   UNL     1      44.638   3.996   9.183  0.00  0.00    +0.000 A 
ATOM     24  C   UNL     1      44.622   2.607   9.367  0.00  0.00    +0.000 A 
ATOM     25  C   UNL     1      45.510   1.769   8.682  0.00  0.00    +0.000 A 
BRANCH  20  27
ATOM     26  N   UNL     1      48.385   1.975   6.364  0.00  0.00    +0.000 N 
ATOM     27  C   UNL     1      47.358   1.401   7.062  0.00  0.00    +0.000 C 
ATOM     28  O   UNL     1      47.222   0.185   7.100  0.00  0.00    +0.000 OA
ATOM     29  H   UNL     1      49.054   1.338   5.949  0.00  0.00    +0.000 HD
ATOM     30  H   UNL     1      48.674   2.930   6.513  0.00  0.00    +0.000 HD
ENDBRANCH  20  27
ENDBRANCH  18  23
ENDBRANCH  17  18
ENDBRANCH   1  17
TORSDOF 6
ENDMDL
MODEL 2
REMARK VINA RESULT:    -9.090      2.458      3.678
REMARK INTER + INTRA:         -13.470
REMARK INTER:                 -12.305
REMARK INTRA:                  -1.165
REMARK UNBOUND:                -1.191
REMARK  Name = 
REMARK  6 active torsions:
REMARK  status: ('A' for Active; 'I' for Inactive)
REMARK    1  A    between atoms: C_2  and  C_4
REMARK    2  A    between atoms: C_7  and  N_8
REMARK    3  A    between atoms: N_8  and  C_9
REMARK    4  A    between atoms: C_9  and  C_10
REMARK    5  A    between atoms: C_10  and  C_13
REMARK    6  A    between atoms: C_18  and  C_19
REMARK                            x       y       z     vdW  Elec       q    Type
REMARK                         _______ _______ _______ _____ _____    ______ ____
ROOT
ATOM      1  C   UNL     1      43.719   4.789  12.442  0.00  0.00    +0.000 C 
ATOM      2  F   UNL     1      42.802   5.473  13.190  0.00  0.00    +0.000 F 
ATOM      3  F   UNL     1      43.485   3.467  12.711  0.00  0.00    +0.000 F 
ENDROOT
BRANCH   1   4
ATOM      4  C   UNL     1      45.140   5.193  12.794  0.00  0.00    +0.000 A 
ATOM      5  C   UNL     1      45.869   6.020  11.934  0.00  0.00    +0.000 A 
ATOM      6  C   UNL     1      47.168   6.378  12.264  0.00  0.00    +0.000 A 
ATOM      7  F   UNL     1      47.862   7.168  11.434  0.00  0.00    +0.000 F 
ATOM      8  C   UNL     1      47.762   5.936  13.443  0.00  0.00    +0.000 A 
ATOM      9  C   UNL     1      47.059   5.123  14.349  0.00  0.00    +0.000 A 
ATOM     10  C   UNL     1      45.742   4.758  13.994  0.00  0.00    +0.000 A 
BRANCH   9  11
ATOM     11  C   UNL     1      47.673   4.685  15.624  0.00  0.00    +0.000 A 
ATOM     12  C   UNL     1      47.547   3.377  16.116  0.00  0.00    +0.000 A 
ATOM     13  C   UNL     1      48.127   3.012  17.332  0.00  0.00    +0.000 A 
ATOM     14  C   UNL     1      48.837   3.965  18.038  0.00  0.00    +0.000 A 
ATOM     15  N   UNL     1      48.994   5.234  17.613  0.00  0.00    +0.000 NA
ATOM     16  C   UNL     1      48.413   5.556  16.431  0.00  0.00    +0.000 A 
ENDBRANCH   9  11
ENDBRANCH   1   4
BRANCH   1  17
ATOM     17  C   UNL     1      43.431   5.032  10.939  0.00  0.00    +0.000 C 
BRANCH  17  18
ATOM     18  N   UNL     1      43.454   3.793  10.137  0.00  0.00    +0.000 N 
ATOM     19  H   UNL     1      43.014   2.992  10.587  0.00  0.00    +0.000 HD
BRANCH  18  23
ATOM     20  C   UNL     1      46.616   2.650   7.586  0.00  0.00    +0.000 A 
ATOM     21  C   UNL     1      46.262   3.998   7.682  0.00  0.00    +0.000 A 
ATOM     22  C   UNL     1      45.230   4.392   8.543  0.00  0.00    +0.000 A 
ATOM     23  C   UNL     1      44.551   3.467   9.344  0.00  0.00    +0.000 A 
ATOM     24  C   UNL     1      44.910   2.117   9.224  0.00  0.00    +0.000 A 
ATOM     25  C   UNL     1      45.927   1.707   8.353  0.00  0.00    +0.000 A 
BRANCH  20  27
ATOM     26  N   UNL     1      47.889   2.942   5.531  0.00  0.00    +0.000 N 
ATOM     27  C   UNL     1      47.671   2.187   6.650  0.00  0.00    +0.000 C 
ATOM     28  O   UNL     1      48.344   1.190   6.880  0.00  0.00    +0.000 OA
ATOM     29  H   UNL     1      48.675   2.670   4.953  0.00  0.00    +0.000 HD
ATOM     30  H   UNL     1      47.540   3.884   5.437  0.00  0.00    +0.000 HD
ENDBRANCH  20  27
ENDBRANCH  18  23
ENDBRANCH  17  18
ENDBRANCH   1  17
TORSDOF 6
ENDMDL
MODEL 3
REMARK VINA RESULT:    -8.348      2.818      3.950
REMARK INTER + INTRA:         -12.467
REMARK INTER:                 -11.494
REMARK INTRA:                  -0.973
REMARK UNBOUND:                -1.191
REMARK  Name = 
REMARK  6 active torsions:
REMARK  status: ('A' for Active; 'I' for Inactive)
REMARK    1  A    between atoms: C_2  and  C_4
REMARK    2  A    between atoms: C_7  and  N_8
REMARK    3  A    between atoms: N_8  and  C_9
REMARK    4  A    between atoms: C_9  and  C_10
REMARK    5  A    between atoms: C_10  and  C_13
REMARK    6  A    between atoms: C_18  and  C_19
REMARK                            x       y       z     vdW  Elec       q    Type
REMARK                         _______ _______ _______ _____ _____    ______ ____
ROOT
ATOM      1  C   UNL     1      44.346   4.992  12.206  0.00  0.00    +0.000 C 
ATOM      2  F   UNL     1      43.959   5.757  11.142  0.00  0.00    +0.000 F 
ATOM      3  F   UNL     1      43.345   5.130  13.130  0.00  0.00    +0.000 F 
ENDROOT
BRANCH   1   4
ATOM      4  C   UNL     1      45.688   5.441  12.758  0.00  0.00    +0.000 A 
ATOM      5  C   UNL     1      46.471   6.356  12.048  0.00  0.00    +0.000 A 
ATOM      6  C   UNL     1      47.696   6.754  12.561  0.00  0.00    +0.000 A 
ATOM      7  F   UNL     1      48.442   7.629  11.874  0.00  0.00    +0.000 F 
ATOM      8  C   UNL     1      48.163   6.267  13.778  0.00  0.00    +0.000 A 
ATOM      9  C   UNL     1      47.400   5.364  14.539  0.00  0.00    +0.000 A 
ATOM     10  C   UNL     1      46.160   4.959  13.998  0.00  0.00    +0.000 A 
BRANCH   9  11
ATOM     11  C   UNL     1      47.874   4.875  15.854  0.00  0.00    +0.000 A 
ATOM     12  C   UNL     1      48.749   5.613  16.665  0.00  0.00    +0.000 A 
ATOM     13  C   UNL     1      49.186   5.107  17.891  0.00  0.00    +0.000 A 
ATOM     14  C   UNL     1      48.730   3.865  18.292  0.00  0.00    +0.000 A 
ATOM     15  N   UNL     1      47.887   3.114  17.558  0.00  0.00    +0.000 NA
ATOM     16  C   UNL     1      47.488   3.633  16.370  0.00  0.00    +0.000 A 
ENDBRANCH   9  11
ENDBRANCH   1   4
BRANCH   1  17
ATOM     17  C   UNL     1      44.396   3.505  11.771  0.00  0.00    +0.000 C 
BRANCH  17  18
ATOM     18  N   UNL     1      43.829   3.274  10.429  0.00  0.00    +0.000 N 
ATOM     19  H   UNL     1      42.971   2.726  10.424  0.00  0.00    +0.000 HD
BRANCH  18  23
ATOM     20  C   UNL     1      46.502   2.758   7.204  0.00  0.00    +0.000 A 
ATOM     21  C   UNL     1      46.076   1.643   7.930  0.00  0.00    +0.000 A 
ATOM     22  C   UNL     1      45.171   1.799   8.987  0.00  0.00    +0.000 A 
ATOM     23  C   UNL     1      44.650   3.053   9.326  0.00  0.00    +0.000 A 
ATOM     24  C   UNL     1      45.099   4.162   8.596  0.00  0.00    +0.000 A 
ATOM     25  C   UNL     1      46.018   4.023   7.549  0.00  0.00    +0.000 A 
BRANCH  20  27
ATOM     26  N   UNL     1      48.800   2.434   6.467  0.00  0.00    +0.000 N 
ATOM     27  C   UNL     1      47.496   2.640   6.108  0.00  0.00    +0.000 C 
ATOM     28  O   UNL     1      47.167   2.692   4.930  0.00  0.00    +0.000 OA
ATOM     29  H   UNL     1      49.450   2.259   5.711  0.00  0.00    +0.000 HD
ATOM     30  H   UNL     1      49.066   2.138   7.395  0.00  0.00    +0.000 HD
ENDBRANCH  20  27
ENDBRANCH  18  23
ENDBRANCH  17  18
ENDBRANCH   1  17
TORSDOF 6
ENDMDL
MODEL 4
REMARK VINA RESULT:    -8.016      2.060      3.029
REMARK INTER + INTRA:         -12.019
REMARK INTER:                 -11.061
REMARK INTRA:                  -0.958
REMARK UNBOUND:                -1.191
REMARK  Name = 
REMARK  6 active torsions:
REMARK  status: ('A' for Active; 'I' for Inactive)
REMARK    1  A    between atoms: C_2  and  C_4
REMARK    2  A    between atoms: C_7  and  N_8
REMARK    3  A    between atoms: N_8  and  C_9
REMARK    4  A    between atoms: C_9  and  C_10
REMARK    5  A    between atoms: C_10  and  C_13
REMARK    6  A    between atoms: C_18  and  C_19
REMARK                            x       y       z     vdW  Elec       q    Type
REMARK                         _______ _______ _______ _____ _____    ______ ____
ROOT
ATOM      1  C   UNL     1      44.328   5.457  12.301  0.00  0.00    +0.000 C 
ATOM      2  F   UNL     1      43.355   5.433  13.260  0.00  0.00    +0.000 F 
ATOM      3  F   UNL     1      45.102   4.354  12.548  0.00  0.00    +0.000 F 
ENDROOT
BRANCH   1   4
ATOM      4  C   UNL     1      45.140   6.739  12.361  0.00  0.00    +0.000 A 
ATOM      5  C   UNL     1      44.668   7.900  11.740  0.00  0.00    +0.000 A 
ATOM      6  C   UNL     1      45.421   9.063  11.798  0.00  0.00    +0.000 A 
ATOM      7  F   UNL     1      44.965  10.171  11.198  0.00  0.00    +0.000 F 
ATOM      8  C   UNL     1      46.638   9.104  12.471  0.00  0.00    +0.000 A 
ATOM      9  C   UNL     1      47.141   7.968  13.131  0.00  0.00    +0.000 A 
ATOM     10  C   UNL     1      46.369   6.788  13.054  0.00  0.00    +0.000 A 
BRANCH   9  11
ATOM     11  C   UNL     1      48.415   8.019  13.884  0.00  0.00    +0.000 A 
ATOM     12  C   UNL     1      49.182   9.188  13.997  0.00  0.00    +0.000 A 
ATOM     13  C   UNL     1      50.387   9.187  14.702  0.00  0.00    +0.000 A 
ATOM     14  C   UNL     1      50.805   8.010  15.294  0.00  0.00    +0.000 A 
ATOM     15  N   UNL     1      50.109   6.859  15.222  0.00  0.00    +0.000 NA
ATOM     16  C   UNL     1      48.946   6.894  14.525  0.00  0.00    +0.000 A 
ENDBRANCH   9  11
ENDBRANCH   1   4
BRANCH   1  17
ATOM     17  C   UNL     1      43.674   5.282  10.907  0.00  0.00    +0.000 C 
BRANCH  17  18
ATOM     18  N   UNL     1      43.657   3.880  10.447  0.00  0.00    +0.000 N 
ATOM     19  H   UNL     1      43.488   3.197  11.183  0.00  0.00    +0.000 HD
BRANCH  18  23
ATOM     20  C   UNL     1      46.474   2.676   7.544  0.00  0.00    +0.000 A 
ATOM     21  C   UNL     1      45.838   1.710   8.327  0.00  0.00    +0.000 A 
ATOM     22  C   UNL     1      44.884   2.096   9.277  0.00  0.00    +0.000 A 
ATOM     23  C   UNL     1      44.522   3.437   9.450  0.00  0.00    +0.000 A 
ATOM     24  C   UNL     1      45.181   4.393   8.665  0.00  0.00    +0.000 A 
ATOM     25  C   UNL     1      46.150   4.024   7.725  0.00  0.00    +0.000 A 
BRANCH  20  27
ATOM     26  N   UNL     1      47.586   3.051   5.411  0.00  0.00    +0.000 N 
ATOM     27  C   UNL     1      47.525   2.313   6.560  0.00  0.00    +0.000 C 
ATOM     28  O   UNL     1      48.326   1.412   6.775  0.00  0.00    +0.000 OA
ATOM     29  H   UNL     1      48.366   2.857   4.795  0.00  0.00    +0.000 HD
ATOM     30  H   UNL     1      47.120   3.941   5.314  0.00  0.00    +0.000 HD
ENDBRANCH  20  27
ENDBRANCH  18  23
ENDBRANCH  17  18
ENDBRANCH   1  17
TORSDOF 6
ENDMDL
MODEL 5
REMARK VINA RESULT:    -7.893      3.522      7.281
REMARK INTER + INTRA:         -11.853
REMARK INTER:                 -10.932
REMARK INTRA:                  -0.921
REMARK UNBOUND:                -1.191
REMARK  Name = 
REMARK  6 active torsions:
REMARK  status: ('A' for Active; 'I' for Inactive)
REMARK    1  A    between atoms: C_2  and  C_4
REMARK    2  A    between atoms: C_7  and  N_8
REMARK    3  A    between atoms: N_8  and  C_9
REMARK    4  A    between atoms: C_9  and  C_10
REMARK    5  A    between atoms: C_10  and  C_13
REMARK    6  A    between atoms: C_18  and  C_19
REMARK                            x       y       z     vdW  Elec       q    Type
REMARK                         _______ _______ _______ _____ _____    ______ ____
ROOT
ATOM      1  C   UNL     1      44.787   6.541  11.380  0.00  0.00    +0.000 C 
ATOM      2  F   UNL     1      43.598   7.209  11.313  0.00  0.00    +0.000 F 
ATOM      3  F   UNL     1      45.646   7.258  10.591  0.00  0.00    +0.000 F 
ENDROOT
BRANCH   1   4
ATOM      4  C   UNL     1      44.651   5.105  10.905  0.00  0.00    +0.000 A 
ATOM      5  C   UNL     1      43.794   4.222  11.569  0.00  0.00    +0.000 A 
ATOM      6  C   UNL     1      43.682   2.912  11.128  0.00  0.00    +0.000 A 
ATOM      7  F   UNL     1      42.861   2.071  11.772  0.00  0.00    +0.000 F 
ATOM      8  C   UNL     1      44.400   2.457  10.027  0.00  0.00    +0.000 A 
ATOM      9  C   UNL     1      45.255   3.315   9.313  0.00  0.00    +0.000 A 
ATOM     10  C   UNL     1      45.368   4.642   9.780  0.00  0.00    +0.000 A 
BRANCH   9  11
ATOM     11  C   UNL     1      45.989   2.845   8.115  0.00  0.00    +0.000 A 
ATOM     12  C   UNL     1      46.283   3.684   7.029  0.00  0.00    +0.000 A 
ATOM     13  C   UNL     1      46.961   3.195   5.911  0.00  0.00    +0.000 A 
ATOM     14  C   UNL     1      47.346   1.867   5.901  0.00  0.00    +0.000 A 
ATOM     15  N   UNL     1      47.094   1.017   6.915  0.00  0.00    +0.000 NA
ATOM     16  C   UNL     1      46.428   1.523   7.982  0.00  0.00    +0.000 A 
ENDBRANCH   9  11
ENDBRANCH   1   4
BRANCH   1  17
ATOM     17  C   UNL     1      45.317   6.593  12.836  0.00  0.00    +0.000 C 
BRANCH  17  18
ATOM     18  N   UNL     1      46.746   6.239  12.946  0.00  0.00    +0.000 N 
ATOM     19  H   UNL     1      47.159   5.886  12.084  0.00  0.00    +0.000 HD
BRANCH  18  23
ATOM     20  C   UNL     1      48.207   4.683  16.586  0.00  0.00    +0.000 A 
ATOM     21  C   UNL     1      47.260   3.958  15.859  0.00  0.00    +0.000 A 
ATOM     22  C   UNL     1      46.785   4.453  14.638  0.00  0.00    +0.000 A 
ATOM     23  C   UNL     1      47.258   5.656  14.102  0.00  0.00    +0.000 A 
ATOM     24  C   UNL     1      48.198   6.376  14.852  0.00  0.00    +0.000 A 
ATOM     25  C   UNL     1      48.667   5.902  16.083  0.00  0.00    +0.000 A 
BRANCH  20  27
ATOM     26  N   UNL     1      47.946   4.534  19.003  0.00  0.00    +0.000 N 
ATOM     27  C   UNL     1      48.699   4.216  17.907  0.00  0.00    +0.000 C 
ATOM     28  O   UNL     1      49.718   3.545  18.015  0.00  0.00    +0.000 OA
ATOM     29  H   UNL     1      48.240   4.128  19.882  0.00  0.00    +0.000 HD
ATOM     30  H   UNL     1      46.992   4.857  18.929  0.00  0.00    +0.000 HD
ENDBRANCH  20  27
ENDBRANCH  18  23
ENDBRANCH  17  18
ENDBRANCH   1  17
TORSDOF 6
ENDMDL
MODEL 6
REMARK VINA RESULT:    -7.860      1.974      2.199
REMARK INTER + INTRA:         -11.808
REMARK INTER:                 -10.809
REMARK INTRA:                  -0.999
REMARK UNBOUND:                -1.191
REMARK  Name = 
REMARK  6 active torsions:
REMARK  status: ('A' for Active; 'I' for Inactive)
REMARK    1  A    between atoms: C_2  and  C_4
REMARK    2  A    between atoms: C_7  and  N_8
REMARK    3  A    between atoms: N_8  and  C_9
REMARK    4  A    between atoms: C_9  and  C_10
REMARK    5  A    between atoms: C_10  and  C_13
REMARK    6  A    between atoms: C_18  and  C_19
REMARK                            x       y       z     vdW  Elec       q    Type
REMARK                         _______ _______ _______ _____ _____    ______ ____
ROOT
ATOM      1  C   UNL     1      44.888   6.500  11.424  0.00  0.00    +0.000 C 
ATOM      2  F   UNL     1      45.480   6.835  10.240  0.00  0.00    +0.000 F 
ATOM      3  F   UNL     1      44.168   7.606  11.790  0.00  0.00    +0.000 F 
ENDROOT
BRANCH   1   4
ATOM      4  C   UNL     1      45.916   6.124  12.477  0.00  0.00    +0.000 A 
ATOM      5  C   UNL     1      45.977   4.815  12.965  0.00  0.00    +0.000 A 
ATOM      6  C   UNL     1      46.918   4.486  13.929  0.00  0.00    +0.000 A 
ATOM      7  F   UNL     1      46.968   3.231  14.395  0.00  0.00    +0.000 F 
ATOM      8  C   UNL     1      47.813   5.432  14.418  0.00  0.00    +0.000 A 
ATOM      9  C   UNL     1      47.805   6.754  13.940  0.00  0.00    +0.000 A 
ATOM     10  C   UNL     1      46.835   7.078  12.966  0.00  0.00    +0.000 A 
BRANCH   9  11
ATOM     11  C   UNL     1      48.784   7.753  14.427  0.00  0.00    +0.000 A 
ATOM     12  C   UNL     1      48.677   8.368  15.684  0.00  0.00    +0.000 A 
ATOM     13  C   UNL     1      49.612   9.319  16.097  0.00  0.00    +0.000 A 
ATOM     14  C   UNL     1      50.653   9.635  15.244  0.00  0.00    +0.000 A 
ATOM     15  N   UNL     1      50.809   9.075  14.029  0.00  0.00    +0.000 NA
ATOM     16  C   UNL     1      49.879   8.160  13.657  0.00  0.00    +0.000 A 
ENDBRANCH   9  11
ENDBRANCH   1   4
BRANCH   1  17
ATOM     17  C   UNL     1      43.893   5.337  11.184  0.00  0.00    +0.000 C 
BRANCH  17  18
ATOM     18  N   UNL     1      43.792   4.943   9.765  0.00  0.00    +0.000 N 
ATOM     19  H   UNL     1      42.838   4.862   9.418  0.00  0.00    +0.000 HD
BRANCH  18  23
ATOM     20  C   UNL     1      46.275   2.047   7.961  0.00  0.00    +0.000 A 
ATOM     21  C   UNL     1      46.424   3.392   7.615  0.00  0.00    +0.000 A 
ATOM     22  C   UNL     1      45.622   4.365   8.225  0.00  0.00    +0.000 A 
ATOM     23  C   UNL     1      44.680   4.029   9.205  0.00  0.00    +0.000 A 
ATOM     24  C   UNL     1      44.535   2.673   9.528  0.00  0.00    +0.000 A 
ATOM     25  C   UNL     1      45.317   1.688   8.914  0.00  0.00    +0.000 A 
BRANCH  20  27
ATOM     26  N   UNL     1      46.792  -0.312   7.650  0.00  0.00    +0.000 N 
ATOM     27  C   UNL     1      47.072   0.981   7.303  0.00  0.00    +0.000 C 
ATOM     28  O   UNL     1      47.924   1.238   6.461  0.00  0.00    +0.000 OA
ATOM     29  H   UNL     1      47.274  -1.031   7.124  0.00  0.00    +0.000 HD
ATOM     30  H   UNL     1      45.946  -0.571   8.135  0.00  0.00    +0.000 HD
ENDBRANCH  20  27
ENDBRANCH  18  23
ENDBRANCH  17  18
ENDBRANCH   1  17
TORSDOF 6
ENDMDL
MODEL 7
REMARK VINA RESULT:    -7.598      2.938      6.891
REMARK INTER + INTRA:         -11.454
REMARK INTER:                 -10.463
REMARK INTRA:                  -0.991
REMARK UNBOUND:                -1.191
REMARK  Name = 
REMARK  6 active torsions:
REMARK  status: ('A' for Active; 'I' for Inactive)
REMARK    1  A    between atoms: C_2  and  C_4
REMARK    2  A    between atoms: C_7  and  N_8
REMARK    3  A    between atoms: N_8  and  C_9
REMARK    4  A    between atoms: C_9  and  C_10
REMARK    5  A    between atoms: C_10  and  C_13
REMARK    6  A    between atoms: C_18  and  C_19
REMARK                            x       y       z     vdW  Elec       q    Type
REMARK                         _______ _______ _______ _____ _____    ______ ____
ROOT
ATOM      1  C   UNL     1      44.159   6.290  11.366  0.00  0.00    +0.000 C 
ATOM      2  F   UNL     1      42.928   6.835  11.137  0.00  0.00    +0.000 F 
ATOM      3  F   UNL     1      45.038   7.092  10.688  0.00  0.00    +0.000 F 
ENDROOT
BRANCH   1   4
ATOM      4  C   UNL     1      44.230   4.849  10.891  0.00  0.00    +0.000 A 
ATOM      5  C   UNL     1      43.485   3.857  11.538  0.00  0.00    +0.000 A 
ATOM      6  C   UNL     1      43.562   2.544  11.097  0.00  0.00    +0.000 A 
ATOM      7  F   UNL     1      42.849   1.599  11.724  0.00  0.00    +0.000 F 
ATOM      8  C   UNL     1      44.362   2.191  10.015  0.00  0.00    +0.000 A 
ATOM      9  C   UNL     1      45.109   3.158   9.319  0.00  0.00    +0.000 A 
ATOM     10  C   UNL     1      45.030   4.488   9.785  0.00  0.00    +0.000 A 
BRANCH   9  11
ATOM     11  C   UNL     1      45.929   2.792   8.140  0.00  0.00    +0.000 A 
ATOM     12  C   UNL     1      46.205   3.694   7.101  0.00  0.00    +0.000 A 
ATOM     13  C   UNL     1      46.967   3.302   5.999  0.00  0.00    +0.000 A 
ATOM     14  C   UNL     1      47.452   2.009   5.957  0.00  0.00    +0.000 A 
ATOM     15  N   UNL     1      47.222   1.102   6.926  0.00  0.00    +0.000 NA
ATOM     16  C   UNL     1      46.473   1.514   7.980  0.00  0.00    +0.000 A 
ENDBRANCH   9  11
ENDBRANCH   1   4
BRANCH   1  17
ATOM     17  C   UNL     1      44.486   6.390  12.878  0.00  0.00    +0.000 C 
BRANCH  17  18
ATOM     18  N   UNL     1      45.921   6.215  13.173  0.00  0.00    +0.000 N 
ATOM     19  H   UNL     1      46.114   5.676  14.015  0.00  0.00    +0.000 HD
BRANCH  18  23
ATOM     20  C   UNL     1      48.662   9.262  12.167  0.00  0.00    +0.000 A 
ATOM     21  C   UNL     1      47.527   9.578  12.917  0.00  0.00    +0.000 A 
ATOM     22  C   UNL     1      46.622   8.572  13.277  0.00  0.00    +0.000 A 
ATOM     23  C   UNL     1      46.838   7.233  12.927  0.00  0.00    +0.000 A 
ATOM     24  C   UNL     1      47.975   6.937  12.164  0.00  0.00    +0.000 A 
ATOM     25  C   UNL     1      48.878   7.936  11.781  0.00  0.00    +0.000 A 
BRANCH  20  27
ATOM     26  N   UNL     1      50.669  10.585  12.558  0.00  0.00    +0.000 N 
ATOM     27  C   UNL     1      49.620  10.307  11.725  0.00  0.00    +0.000 C 
ATOM     28  O   UNL     1      49.500  10.877  10.648  0.00  0.00    +0.000 OA
ATOM     29  H   UNL     1      51.365  11.227  12.201  0.00  0.00    +0.000 HD
ATOM     30  H   UNL     1      50.936   9.973  13.314  0.00  0.00    +0.000 HD
ENDBRANCH  20  27
ENDBRANCH  18  23
ENDBRANCH  17  18
ENDBRANCH   1  17
TORSDOF 6
ENDMDL
MODEL 8
REMARK VINA RESULT:    -7.581      3.502      7.124
REMARK INTER + INTRA:         -11.431
REMARK INTER:                 -10.418
REMARK INTRA:                  -1.013
REMARK UNBOUND:                -1.191
REMARK  Name = 
REMARK  6 active torsions:
REMARK  status: ('A' for Active; 'I' for Inactive)
REMARK    1  A    between atoms: C_2  and  C_4
REMARK    2  A    between atoms: C_7  and  N_8
REMARK    3  A    between atoms: N_8  and  C_9
REMARK    4  A    between atoms: C_9  and  C_10
REMARK    5  A    between atoms: C_10  and  C_13
REMARK    6  A    between atoms: C_18  and  C_19
REMARK                            x       y       z     vdW  Elec       q    Type
REMARK                         _______ _______ _______ _____ _____    ______ ____
ROOT
ATOM      1  C   UNL     1      46.174   7.713  12.106  0.00  0.00    +0.000 C 
ATOM      2  F   UNL     1      45.699   8.149  13.310  0.00  0.00    +0.000 F 
ATOM      3  F   UNL     1      46.235   8.832  11.318  0.00  0.00    +0.000 F 
ENDROOT
BRANCH   1   4
ATOM      4  C   UNL     1      45.275   6.648  11.502  0.00  0.00    +0.000 A 
ATOM      5  C   UNL     1      43.916   6.606  11.829  0.00  0.00    +0.000 A 
ATOM      6  C   UNL     1      43.107   5.626  11.275  0.00  0.00    +0.000 A 
ATOM      7  F   UNL     1      41.807   5.590  11.595  0.00  0.00    +0.000 F 
ATOM      8  C   UNL     1      43.618   4.683  10.388  0.00  0.00    +0.000 A 
ATOM      9  C   UNL     1      44.973   4.701  10.011  0.00  0.00    +0.000 A 
ATOM     10  C   UNL     1      45.787   5.697  10.592  0.00  0.00    +0.000 A 
BRANCH   9  11
ATOM     11  C   UNL     1      45.511   3.725   9.036  0.00  0.00    +0.000 A 
ATOM     12  C   UNL     1      45.380   2.338   9.201  0.00  0.00    +0.000 A 
ATOM     13  C   UNL     1      45.919   1.452   8.266  0.00  0.00    +0.000 A 
ATOM     14  C   UNL     1      46.577   1.972   7.168  0.00  0.00    +0.000 A 
ATOM     15  N   UNL     1      46.731   3.294   6.955  0.00  0.00    +0.000 NA
ATOM     16  C   UNL     1      46.200   4.125   7.886  0.00  0.00    +0.000 A 
ENDBRANCH   9  11
ENDBRANCH   1   4
BRANCH   1  17
ATOM     17  C   UNL     1      47.617   7.178  12.292  0.00  0.00    +0.000 C 
BRANCH  17  18
ATOM     18  N   UNL     1      48.153   7.416  13.645  0.00  0.00    +0.000 N 
ATOM     19  H   UNL     1      49.030   7.934  13.665  0.00  0.00    +0.000 HD
BRANCH  18  23
ATOM     20  C   UNL     1      47.897   4.327  16.509  0.00  0.00    +0.000 A 
ATOM     21  C   UNL     1      48.720   5.428  16.757  0.00  0.00    +0.000 A 
ATOM     22  C   UNL     1      48.795   6.471  15.825  0.00  0.00    +0.000 A 
ATOM     23  C   UNL     1      48.038   6.457  14.647  0.00  0.00    +0.000 A 
ATOM     24  C   UNL     1      47.229   5.337  14.409  0.00  0.00    +0.000 A 
ATOM     25  C   UNL     1      47.159   4.280  15.324  0.00  0.00    +0.000 A 
BRANCH  20  27
ATOM     26  N   UNL     1      48.982   2.827  18.091  0.00  0.00    +0.000 N 
ATOM     27  C   UNL     1      47.827   3.180  17.450  0.00  0.00    +0.000 C 
ATOM     28  O   UNL     1      46.776   2.592  17.671  0.00  0.00    +0.000 OA
ATOM     29  H   UNL     1      48.898   2.109  18.800  0.00  0.00    +0.000 HD
ATOM     30  H   UNL     1      49.788   3.433  18.128  0.00  0.00    +0.000 HD
ENDBRANCH  20  27
ENDBRANCH  18  23
ENDBRANCH  17  18
ENDBRANCH   1  17
TORSDOF 6
ENDMDL
MODEL 9
REMARK VINA RESULT:    -7.034      4.016      7.649
REMARK INTER + INTRA:         -10.692
REMARK INTER:                  -9.521
REMARK INTRA:                  -1.172
REMARK UNBOUND:                -1.191
REMARK  Name = 
REMARK  6 active torsions:
REMARK  status: ('A' for Active; 'I' for Inactive)
REMARK    1  A    between atoms: C_2  and  C_4
REMARK    2  A    between atoms: C_7  and  N_8
REMARK    3  A    between atoms: N_8  and  C_9
REMARK    4  A    between atoms: C_9  and  C_10
REMARK    5  A    between atoms: C_10  and  C_13
REMARK    6  A    between atoms: C_18  and  C_19
REMARK                            x       y       z     vdW  Elec       q    Type
REMARK                         _______ _______ _______ _____ _____    ______ ____
ROOT
ATOM      1  C   UNL     1      48.999   8.108  12.429  0.00  0.00    +0.000 C 
ATOM      2  F   UNL     1      49.566   9.057  11.627  0.00  0.00    +0.000 F 
ATOM      3  F   UNL     1      49.740   6.974  12.221  0.00  0.00    +0.000 F 
ENDROOT
BRANCH   1   4
ATOM      4  C   UNL     1      47.534   7.893  12.092  0.00  0.00    +0.000 A 
ATOM      5  C   UNL     1      46.599   8.903  12.340  0.00  0.00    +0.000 A 
ATOM      6  C   UNL     1      45.264   8.693  12.031  0.00  0.00    +0.000 A 
ATOM      7  F   UNL     1      44.373   9.664  12.275  0.00  0.00    +0.000 F 
ATOM      8  C   UNL     1      44.832   7.495  11.469  0.00  0.00    +0.000 A 
ATOM      9  C   UNL     1      45.739   6.461  11.180  0.00  0.00    +0.000 A 
ATOM     10  C   UNL     1      47.093   6.684  11.510  0.00  0.00    +0.000 A 
BRANCH   9  11
ATOM     11  C   UNL     1      45.289   5.201  10.543  0.00  0.00    +0.000 A 
ATOM     12  C   UNL     1      45.490   4.927   9.182  0.00  0.00    +0.000 A 
ATOM     13  C   UNL     1      45.033   3.734   8.618  0.00  0.00    +0.000 A 
ATOM     14  C   UNL     1      44.386   2.824   9.432  0.00  0.00    +0.000 A 
ATOM     15  N   UNL     1      44.168   3.031  10.745  0.00  0.00    +0.000 NA
ATOM     16  C   UNL     1      44.620   4.203  11.259  0.00  0.00    +0.000 A 
ENDBRANCH   9  11
ENDBRANCH   1   4
BRANCH   1  17
ATOM     17  C   UNL     1      49.169   8.526  13.911  0.00  0.00    +0.000 C 
BRANCH  17  18
ATOM     18  N   UNL     1      49.986   7.576  14.692  0.00  0.00    +0.000 N 
ATOM     19  H   UNL     1      50.811   7.232  14.205  0.00  0.00    +0.000 HD
BRANCH  18  23
ATOM     20  C   UNL     1      48.230   4.561  17.066  0.00  0.00    +0.000 A 
ATOM     21  C   UNL     1      49.383   5.207  17.517  0.00  0.00    +0.000 A 
ATOM     22  C   UNL     1      49.962   6.226  16.749  0.00  0.00    +0.000 A 
ATOM     23  C   UNL     1      49.395   6.642  15.538  0.00  0.00    +0.000 A 
ATOM     24  C   UNL     1      48.246   5.972  15.095  0.00  0.00    +0.000 A 
ATOM     25  C   UNL     1      47.668   4.940  15.844  0.00  0.00    +0.000 A 
BRANCH  20  27
ATOM     26  N   UNL     1      48.250   3.044  18.970  0.00  0.00    +0.000 N 
ATOM     27  C   UNL     1      47.614   3.445  17.828  0.00  0.00    +0.000 C 
ATOM     28  O   UNL     1      46.565   2.923  17.472  0.00  0.00    +0.000 OA
ATOM     29  H   UNL     1      47.769   2.350  19.530  0.00  0.00    +0.000 HD
ATOM     30  H   UNL     1      48.958   3.604  19.421  0.00  0.00    +0.000 HD
ENDBRANCH  20  27
ENDBRANCH  18  23
ENDBRANCH  17  18
ENDBRANCH   1  17
TORSDOF 6
ENDMDL
