MODEL 1
REMARK VINA RESULT:    -9.660      0.000      0.000
REMARK INTER + INTRA:         -13.560
REMARK INTER:                 -12.483
REMARK INTRA:                  -1.077
REMARK UNBOUND:                -1.077
REMARK  Name = 
REMARK  5 active torsions:
REMARK  status: ('A' for Active; 'I' for Inactive)
REMARK    1  A    between atoms: C_2  and  C_4
REMARK    2  A    between atoms: C_7  and  C_8
REMARK    3  A    between atoms: C_8  and  C_9
REMARK    4  A    between atoms: C_9  and  C_10
REMARK    5  A    between atoms: C_14  and  C_15
REMARK                            x       y       z     vdW  Elec       q    Type
REMARK                         _______ _______ _______ _____ _____    ______ ____
ROOT
ATOM      1  C   UNL     1      44.081   4.644  11.759  0.00  0.00    +0.000 C 
ATOM      2  C   UNL     1      43.416   3.540  12.583  0.00  0.00    +0.000 C 
ATOM      3  C   UNL     1      42.992   4.960  12.786  0.00  0.00    +0.000 C 
ENDROOT
BRANCH   1   4
ATOM      4  C   UNL     1      45.466   5.128  12.195  0.00  0.00    +0.000 A 
ATOM      5  C   UNL     1      46.053   6.257  11.606  0.00  0.00    +0.000 A 
ATOM      6  C   UNL     1      47.160   6.870  12.184  0.00  0.00    +0.000 A 
ATOM      7  C   UNL     1      47.692   6.361  13.367  0.00  0.00    +0.000 A 
ATOM      8  C   UNL     1      47.182   5.188  13.949  0.00  0.00    +0.000 A 
ATOM      9  C   UNL     1      46.104   4.559  13.307  0.00  0.00    +0.000 A 
BRANCH   8  10
ATOM     10  C   UNL     1      47.651   4.716  15.256  0.00  0.00    +0.000 A 
ATOM     11  C   UNL     1      48.267   5.541  16.198  0.00  0.00    +0.000 A 
ATOM     12  N   UNL     1      48.811   5.081  17.352  0.00  0.00    +0.000 NA
ATOM     13  C   UNL     1      48.723   3.744  17.531  0.00  0.00    +0.000 A 
ATOM     14  C   UNL     1      48.107   2.914  16.613  0.00  0.00    +0.000 A 
ATOM     15  N   UNL     1      47.552   3.378  15.472  0.00  0.00    +0.000 NA
ENDBRANCH   8  10
ENDBRANCH   1   4
BRANCH   1  16
ATOM     16  C   UNL     1      43.838   4.757  10.260  0.00  0.00    +0.000 C 
BRANCH  16  20
ATOM     17  C   UNL     1      46.423   2.338   7.778  0.00  0.00    +0.000 A 
ATOM     18  C   UNL     1      46.420   3.731   7.641  0.00  0.00    +0.000 A 
ATOM     19  C   UNL     1      45.554   4.508   8.416  0.00  0.00    +0.000 A 
ATOM     20  C   UNL     1      44.690   3.909   9.344  0.00  0.00    +0.000 A 
ATOM     21  C   UNL     1      44.684   2.510   9.456  0.00  0.00    +0.000 A 
ATOM     22  C   UNL     1      45.535   1.730   8.672  0.00  0.00    +0.000 A 
BRANCH  17  24
ATOM     23  N   UNL     1      48.467   2.053   6.479  0.00  0.00    +0.000 N 
ATOM     24  C   UNL     1      47.344   1.473   6.998  0.00  0.00    +0.000 C 
ATOM     25  O   UNL     1      47.135   0.269   6.853  0.00  0.00    +0.000 OA
ATOM     26  H   UNL     1      49.138   1.425   6.056  0.00  0.00    +0.000 HD
ATOM     27  H   UNL     1      48.800   2.952   6.791  0.00  0.00    +0.000 HD
ENDBRANCH  17  24
ENDBRANCH  16  20
ENDBRANCH   1  16
TORSDOF 5
ENDMDL
MODEL 2
REMARK VINA RESULT:    -8.794      1.627      2.230
REMARK INTER + INTRA:         -12.440
REMARK INTER:                 -11.378
REMARK INTRA:                  -1.062
REMARK UNBOUND:                -1.077
REMARK  Name = 
REMARK  5 active torsions:
REMARK  status: ('A' for Active; 'I' for Inactive)
REMARK    1  A    between atoms: C_2  and  C_4
REMARK    2  A    between atoms: C_7  and  C_8
REMARK    3  A    between atoms: C_8  and  C_9
REMARK    4  A    between atoms: C_9  and  C_10
REMARK    5  A    between atoms: C_14  and  C_15
REMARK                            x       y       z     vdW  Elec       q    Type
REMARK                         _______ _______ _______ _____ _____    ______ ____
ROOT
ATOM      1  C   UNL     1      44.271   4.860  11.708  0.00  0.00    +0.000 C 
ATOM      2  C   UNL     1      44.561   3.690  12.651  0.00  0.00    +0.000 C 
ATOM      3  C   UNL     1      43.406   4.596  12.943  0.00  0.00    +0.000 C 
ENDROOT
BRANCH   1   4
ATOM      4  C   UNL     1      45.129   6.119  11.844  0.00  0.00    +0.000 A 
ATOM      5  C   UNL     1      44.606   7.384  11.535  0.00  0.00    +0.000 A 
ATOM      6  C   UNL     1      45.266   8.545  11.925  0.00  0.00    +0.000 A 
ATOM      7  C   UNL     1      46.461   8.453  12.637  0.00  0.00    +0.000 A 
ATOM      8  C   UNL     1      47.057   7.209  12.901  0.00  0.00    +0.000 A 
ATOM      9  C   UNL     1      46.397   6.060  12.439  0.00  0.00    +0.000 A 
BRANCH   8  10
ATOM     10  C   UNL     1      48.245   7.095  13.755  0.00  0.00    +0.000 A 
ATOM     11  C   UNL     1      48.287   6.327  14.919  0.00  0.00    +0.000 A 
ATOM     12  N   UNL     1      49.341   6.320  15.772  0.00  0.00    +0.000 NA
ATOM     13  C   UNL     1      50.366   7.128  15.418  0.00  0.00    +0.000 A 
ATOM     14  C   UNL     1      50.345   7.887  14.264  0.00  0.00    +0.000 A 
ATOM     15  N   UNL     1      49.299   7.879  13.408  0.00  0.00    +0.000 NA
ENDBRANCH   8  10
ENDBRANCH   1   4
BRANCH   1  16
ATOM     16  C   UNL     1      43.759   4.618  10.295  0.00  0.00    +0.000 C 
BRANCH  16  20
ATOM     17  C   UNL     1      46.493   2.508   7.694  0.00  0.00    +0.000 A 
ATOM     18  C   UNL     1      46.419   3.905   7.649  0.00  0.00    +0.000 A 
ATOM     19  C   UNL     1      45.505   4.583   8.462  0.00  0.00    +0.000 A 
ATOM     20  C   UNL     1      44.664   3.879   9.336  0.00  0.00    +0.000 A 
ATOM     21  C   UNL     1      44.730   2.477   9.355  0.00  0.00    +0.000 A 
ATOM     22  C   UNL     1      45.629   1.796   8.533  0.00  0.00    +0.000 A 
BRANCH  17  24
ATOM     23  N   UNL     1      48.565   2.415   6.411  0.00  0.00    +0.000 N 
ATOM     24  C   UNL     1      47.466   1.746   6.871  0.00  0.00    +0.000 C 
ATOM     25  O   UNL     1      47.320   0.546   6.640  0.00  0.00    +0.000 OA
ATOM     26  H   UNL     1      49.272   1.852   5.956  0.00  0.00    +0.000 HD
ATOM     27  H   UNL     1      48.848   3.306   6.789  0.00  0.00    +0.000 HD
ENDBRANCH  17  24
ENDBRANCH  16  20
ENDBRANCH   1  16
TORSDOF 5
ENDMDL
MODEL 3
REMARK VINA RESULT:    -8.381      2.399      3.806
REMARK INTER + INTRA:         -11.907
REMARK INTER:                 -10.747
REMARK INTRA:                  -1.160
REMARK UNBOUND:                -1.077
REMARK  Name = 
REMARK  5 active torsions:
REMARK  status: ('A' for Active; 'I' for Inactive)
REMARK    1  A    between atoms: C_2  and  C_4
REMARK    2  A    between atoms: C_7  and  C_8
REMARK    3  A    between atoms: C_8  and  C_9
REMARK    4  A    between atoms: C_9  and  C_10
REMARK    5  A    between atoms: C_14  and  C_15
REMARK                            x       y       z     vdW  Elec       q    Type
REMARK                         _______ _______ _______ _____ _____    ______ ____
ROOT
ATOM      1  C   UNL     1      43.912   4.785  11.607  0.00  0.00    +0.000 C 
ATOM      2  C   UNL     1      43.144   3.575  12.142  0.00  0.00    +0.000 C 
ATOM      3  C   UNL     1      42.598   4.949  12.375  0.00  0.00    +0.000 C 
ENDROOT
BRANCH   1   4
ATOM      4  C   UNL     1      45.127   5.271  12.401  0.00  0.00    +0.000 A 
ATOM      5  C   UNL     1      45.943   4.366  13.095  0.00  0.00    +0.000 A 
ATOM      6  C   UNL     1      47.192   4.749  13.569  0.00  0.00    +0.000 A 
ATOM      7  C   UNL     1      47.645   6.048  13.349  0.00  0.00    +0.000 A 
ATOM      8  C   UNL     1      46.830   7.007  12.726  0.00  0.00    +0.000 A 
ATOM      9  C   UNL     1      45.550   6.605  12.315  0.00  0.00    +0.000 A 
BRANCH   8  10
ATOM     10  C   UNL     1      47.343   8.337  12.379  0.00  0.00    +0.000 A 
ATOM     11  C   UNL     1      46.561   9.493  12.397  0.00  0.00    +0.000 A 
ATOM     12  N   UNL     1      47.001  10.699  11.958  0.00  0.00    +0.000 NA
ATOM     13  C   UNL     1      48.267  10.707  11.485  0.00  0.00    +0.000 A 
ATOM     14  C   UNL     1      49.058   9.574  11.471  0.00  0.00    +0.000 A 
ATOM     15  N   UNL     1      48.622   8.378  11.923  0.00  0.00    +0.000 NA
ENDBRANCH   8  10
ENDBRANCH   1   4
BRANCH   1  16
ATOM     16  C   UNL     1      44.013   5.050  10.111  0.00  0.00    +0.000 C 
BRANCH  16  20
ATOM     17  C   UNL     1      46.522   2.528   7.654  0.00  0.00    +0.000 A 
ATOM     18  C   UNL     1      45.656   1.955   8.592  0.00  0.00    +0.000 A 
ATOM     19  C   UNL     1      44.874   2.774   9.414  0.00  0.00    +0.000 A 
ATOM     20  C   UNL     1      44.940   4.170   9.303  0.00  0.00    +0.000 A 
ATOM     21  C   UNL     1      45.830   4.734   8.377  0.00  0.00    +0.000 A 
ATOM     22  C   UNL     1      46.623   3.921   7.567  0.00  0.00    +0.000 A 
BRANCH  17  24
ATOM     23  N   UNL     1      48.414   2.305   6.131  0.00  0.00    +0.000 N 
ATOM     24  C   UNL     1      47.350   1.701   6.741  0.00  0.00    +0.000 C 
ATOM     25  O   UNL     1      47.123   0.505   6.565  0.00  0.00    +0.000 OA
ATOM     26  H   UNL     1      49.033   1.698   5.610  0.00  0.00    +0.000 HD
ATOM     27  H   UNL     1      48.782   3.190   6.446  0.00  0.00    +0.000 HD
ENDBRANCH  17  24
ENDBRANCH  16  20
ENDBRANCH   1  16
TORSDOF 5
ENDMDL
MODEL 4
REMARK VINA RESULT:    -7.807      3.502      5.146
REMARK INTER + INTRA:         -11.166
REMARK INTER:                  -9.895
REMARK INTRA:                  -1.271
REMARK UNBOUND:                -1.077
REMARK  Name = 
REMARK  5 active torsions:
REMARK  status: ('A' for Active; 'I' for Inactive)
REMARK    1  A    between atoms: C_2  and  C_4
REMARK    2  A    between atoms: C_7  and  C_8
REMARK    3  A    between atoms: C_8  and  C_9
REMARK    4  A    between atoms: C_9  and  C_10
REMARK    5  A    between atoms: C_14  and  C_15
REMARK                            x       y       z     vdW  Elec       q    Type
REMARK                         _______ _______ _______ _____ _____    ______ ____
ROOT
ATOM      1  C   UNL     1      44.647   4.392  11.886  0.00  0.00    +0.000 C 
ATOM      2  C   UNL     1      45.234   3.187  12.623  0.00  0.00    +0.000 C 
ATOM      3  C   UNL     1      43.941   3.773  13.095  0.00  0.00    +0.000 C 
ENDROOT
BRANCH   1   4
ATOM      4  C   UNL     1      45.236   5.772  12.187  0.00  0.00    +0.000 A 
ATOM      5  C   UNL     1      46.570   5.913  12.597  0.00  0.00    +0.000 A 
ATOM      6  C   UNL     1      47.192   7.156  12.591  0.00  0.00    +0.000 A 
ATOM      7  C   UNL     1      46.485   8.280  12.168  0.00  0.00    +0.000 A 
ATOM      8  C   UNL     1      45.126   8.197  11.822  0.00  0.00    +0.000 A 
ATOM      9  C   UNL     1      44.511   6.938  11.898  0.00  0.00    +0.000 A 
BRANCH   8  10
ATOM     10  C   UNL     1      44.409   9.345  11.257  0.00  0.00    +0.000 A 
ATOM     11  C   UNL     1      43.103   9.275  10.771  0.00  0.00    +0.000 A 
ATOM     12  N   UNL     1      42.485  10.303  10.137  0.00  0.00    +0.000 NA
ATOM     13  C   UNL     1      43.234  11.420   9.999  0.00  0.00    +0.000 A 
ATOM     14  C   UNL     1      44.525  11.510  10.485  0.00  0.00    +0.000 A 
ATOM     15  N   UNL     1      45.132  10.489  11.129  0.00  0.00    +0.000 NA
ENDBRANCH   8  10
ENDBRANCH   1   4
BRANCH   1  16
ATOM     16  C   UNL     1      44.101   4.256  10.472  0.00  0.00    +0.000 C 
BRANCH  16  20
ATOM     17  C   UNL     1      46.683   3.001   7.240  0.00  0.00    +0.000 A 
ATOM     18  C   UNL     1      46.024   2.046   8.022  0.00  0.00    +0.000 A 
ATOM     19  C   UNL     1      45.221   2.453   9.093  0.00  0.00    +0.000 A 
ATOM     20  C   UNL     1      45.057   3.814   9.388  0.00  0.00    +0.000 A 
ATOM     21  C   UNL     1      45.742   4.761   8.613  0.00  0.00    +0.000 A 
ATOM     22  C   UNL     1      46.558   4.358   7.554  0.00  0.00    +0.000 A 
BRANCH  17  24
ATOM     23  N   UNL     1      48.835   2.318   6.317  0.00  0.00    +0.000 N 
ATOM     24  C   UNL     1      47.523   2.620   6.077  0.00  0.00    +0.000 C 
ATOM     25  O   UNL     1      47.058   2.534   4.941  0.00  0.00    +0.000 OA
ATOM     26  H   UNL     1      49.357   1.946   5.534  0.00  0.00    +0.000 HD
ATOM     27  H   UNL     1      49.180   2.124   7.245  0.00  0.00    +0.000 HD
ENDBRANCH  17  24
ENDBRANCH  16  20
ENDBRANCH   1  16
TORSDOF 5
ENDMDL
MODEL 5
REMARK VINA RESULT:    -7.162      2.665      3.702
REMARK INTER + INTRA:         -10.331
REMARK INTER:                  -9.206
REMARK INTRA:                  -1.125
REMARK UNBOUND:                -1.077
REMARK  Name = 
REMARK  5 active torsions:
REMARK  status: ('A' for Active; 'I' for Inactive)
REMARK    1  A    between atoms: C_2  and  C_4
REMARK    2  A    between atoms: C_7  and  C_8
REMARK    3  A    between atoms: C_8  and  C_9
REMARK    4  A    between atoms: C_9  and  C_10
REMARK    5  A    between atoms: C_14  and  C_15
REMARK                            x       y       z     vdW  Elec       q    Type
REMARK                         _______ _______ _______ _____ _____    ______ ____
ROOT
ATOM      1  C   UNL     1      45.403   5.262  12.163  0.00  0.00    +0.000 C 
ATOM      2  C   UNL     1      46.325   4.259  12.859  0.00  0.00    +0.000 C 
ATOM      3  C   UNL     1      45.187   4.858  13.623  0.00  0.00    +0.000 C 
ENDROOT
BRANCH   1   4
ATOM      4  C   UNL     1      45.895   6.703  12.014  0.00  0.00    +0.000 A 
ATOM      5  C   UNL     1      45.015   7.785  12.165  0.00  0.00    +0.000 A 
ATOM      6  C   UNL     1      45.495   9.081  12.320  0.00  0.00    +0.000 A 
ATOM      7  C   UNL     1      46.869   9.311  12.331  0.00  0.00    +0.000 A 
ATOM      8  C   UNL     1      47.783   8.269  12.107  0.00  0.00    +0.000 A 
ATOM      9  C   UNL     1      47.264   6.983  11.892  0.00  0.00    +0.000 A 
BRANCH   8  10
ATOM     10  C   UNL     1      49.229   8.477  12.241  0.00  0.00    +0.000 A 
ATOM     11  C   UNL     1      50.172   7.915  11.380  0.00  0.00    +0.000 A 
ATOM     12  N   UNL     1      51.511   8.005  11.576  0.00  0.00    +0.000 NA
ATOM     13  C   UNL     1      51.880   8.684  12.685  0.00  0.00    +0.000 A 
ATOM     14  C   UNL     1      50.960   9.257  13.542  0.00  0.00    +0.000 A 
ATOM     15  N   UNL     1      49.627   9.177  13.336  0.00  0.00    +0.000 NA
ENDBRANCH   8  10
ENDBRANCH   1   4
BRANCH   1  16
ATOM     16  C   UNL     1      44.461   4.820  11.052  0.00  0.00    +0.000 C 
BRANCH  16  20
ATOM     17  C   UNL     1      46.384   3.046   7.611  0.00  0.00    +0.000 A 
ATOM     18  C   UNL     1      46.405   4.434   7.789  0.00  0.00    +0.000 A 
ATOM     19  C   UNL     1      45.748   5.009   8.881  0.00  0.00    +0.000 A 
ATOM     20  C   UNL     1      45.073   4.208   9.813  0.00  0.00    +0.000 A 
ATOM     21  C   UNL     1      45.037   2.820   9.612  0.00  0.00    +0.000 A 
ATOM     22  C   UNL     1      45.678   2.244   8.513  0.00  0.00    +0.000 A 
BRANCH  17  24
ATOM     23  N   UNL     1      48.105   1.525   6.790  0.00  0.00    +0.000 N 
ATOM     24  C   UNL     1      47.090   2.388   6.483  0.00  0.00    +0.000 C 
ATOM     25  O   UNL     1      46.756   2.571   5.313  0.00  0.00    +0.000 OA
ATOM     26  H   UNL     1      48.491   0.998   6.018  0.00  0.00    +0.000 HD
ATOM     27  H   UNL     1      48.230   1.154   7.720  0.00  0.00    +0.000 HD
ENDBRANCH  17  24
ENDBRANCH  16  20
ENDBRANCH   1  16
TORSDOF 5
ENDMDL
MODEL 6
REMARK VINA RESULT:    -7.061      2.663      4.454
REMARK INTER + INTRA:         -10.201
REMARK INTER:                  -9.365
REMARK INTRA:                  -0.836
REMARK UNBOUND:                -1.077
REMARK  Name = 
REMARK  5 active torsions:
REMARK  status: ('A' for Active; 'I' for Inactive)
REMARK    1  A    between atoms: C_2  and  C_4
REMARK    2  A    between atoms: C_7  and  C_8
REMARK    3  A    between atoms: C_8  and  C_9
REMARK    4  A    between atoms: C_9  and  C_10
REMARK    5  A    between atoms: C_14  and  C_15
REMARK                            x       y       z     vdW  Elec       q    Type
REMARK                         _______ _______ _______ _____ _____    ______ ____
ROOT
ATOM      1  C   UNL     1      47.784   8.156  12.697  0.00  0.00    +0.000 C 
ATOM      2  C   UNL     1      48.485   9.198  11.823  0.00  0.00    +0.000 C 
ATOM      3  C   UNL     1      48.710   7.744  11.550  0.00  0.00    +0.000 C 
ENDROOT
BRANCH   1   4
ATOM      4  C   UNL     1      48.380   7.859  14.075  0.00  0.00    +0.000 A 
ATOM      5  C   UNL     1      48.766   8.900  14.933  0.00  0.00    +0.000 A 
ATOM      6  C   UNL     1      49.031   8.658  16.276  0.00  0.00    +0.000 A 
ATOM      7  C   UNL     1      48.908   7.365  16.781  0.00  0.00    +0.000 A 
ATOM      8  C   UNL     1      48.598   6.282  15.943  0.00  0.00    +0.000 A 
ATOM      9  C   UNL     1      48.398   6.551  14.580  0.00  0.00    +0.000 A 
BRANCH   8  10
ATOM     10  C   UNL     1      48.344   4.942  16.484  0.00  0.00    +0.000 A 
ATOM     11  C   UNL     1      47.072   4.378  16.579  0.00  0.00    +0.000 A 
ATOM     12  N   UNL     1      46.823   3.193  17.192  0.00  0.00    +0.000 NA
ATOM     13  C   UNL     1      47.909   2.587  17.722  0.00  0.00    +0.000 A 
ATOM     14  C   UNL     1      49.178   3.127  17.627  0.00  0.00    +0.000 A 
ATOM     15  N   UNL     1      49.424   4.300  17.003  0.00  0.00    +0.000 NA
ENDBRANCH   8  10
ENDBRANCH   1   4
BRANCH   1  16
ATOM     16  C   UNL     1      46.276   7.963  12.629  0.00  0.00    +0.000 C 
BRANCH  16  20
ATOM     17  C   UNL     1      44.609   4.153  11.446  0.00  0.00    +0.000 A 
ATOM     18  C   UNL     1      44.750   4.467  12.803  0.00  0.00    +0.000 A 
ATOM     19  C   UNL     1      45.327   5.683  13.183  0.00  0.00    +0.000 A 
ATOM     20  C   UNL     1      45.758   6.604  12.218  0.00  0.00    +0.000 A 
ATOM     21  C   UNL     1      45.633   6.269  10.861  0.00  0.00    +0.000 A 
ATOM     22  C   UNL     1      45.074   5.049  10.478  0.00  0.00    +0.000 A 
BRANCH  17  24
ATOM     23  N   UNL     1      44.586   2.208   9.976  0.00  0.00    +0.000 N 
ATOM     24  C   UNL     1      43.978   2.888  10.994  0.00  0.00    +0.000 C 
ATOM     25  O   UNL     1      42.969   2.437  11.535  0.00  0.00    +0.000 OA
ATOM     26  H   UNL     1      44.210   1.293   9.764  0.00  0.00    +0.000 HD
ATOM     27  H   UNL     1      45.534   2.402   9.692  0.00  0.00    +0.000 HD
ENDBRANCH  17  24
ENDBRANCH  16  20
ENDBRANCH   1  16
TORSDOF 5
ENDMDL
