MODEL 1
REMARK VINA RESULT:    -6.689      0.000      0.000
REMARK INTER + INTRA:          -8.758
REMARK INTER:                  -8.448
REMARK INTRA:                  -0.310
REMARK UNBOUND:                -0.310
REMARK  Name = 
REMARK  5 active torsions:
REMARK  status: ('A' for Active; 'I' for Inactive)
REMARK    1  A    between atoms: N_1  and  C_2
REMARK    2  A    between atoms: C_2  and  C_3
REMARK    3  A    between atoms: C_7  and  C_8
REMARK    4  A    between atoms: C_8  and  S_9
REMARK    5  A    between atoms: S_9  and  C_10
REMARK                            x       y       z     vdW  Elec       q    Type
REMARK                         _______ _______ _______ _____ _____    ______ ____
ROOT
ATOM      1  C   UNL     1      46.311   4.991  13.074  0.00  0.00    +0.000 A 
ATOM      2  C   UNL     1      46.872   6.215  12.717  0.00  0.00    +0.000 A 
ATOM      3  C   UNL     1      46.600   6.725  11.459  0.00  0.00    +0.000 A 
ATOM      4  N   UNL     1      45.812   6.110  10.546  0.00  0.00    +0.000 NA
ATOM      5  C   UNL     1      45.256   4.921  10.894  0.00  0.00    +0.000 A 
ATOM      6  C   UNL     1      45.516   4.331  12.133  0.00  0.00    +0.000 A 
ENDROOT
BRANCH   1   7
ATOM      7  C   UNL     1      46.523   4.396  14.441  0.00  0.00    +0.000 C 
BRANCH   7   8
ATOM      8  N   UNL     1      47.417   3.246  14.382  0.00  0.00    +0.000 NA
ATOM      9  H   UNL     1      47.452   2.900  13.426  0.00  0.00    +0.000 HD
ATOM     10  H   UNL     1      47.017   2.492  14.944  0.00  0.00    +0.000 HD
ENDBRANCH   7   8
ENDBRANCH   1   7
BRANCH   5  11
ATOM     11  C   UNL     1      44.372   4.255   9.852  0.00  0.00    +0.000 C 
BRANCH  11  12
ATOM     12  S   UNL     1      44.661   2.449   9.694  0.00  0.00    +0.000 S 
BRANCH  12  13
ATOM     13  C   UNL     1      45.756   2.274   8.305  0.00  0.00    +0.000 A 
ATOM     14  C   UNL     1      45.902   3.395   7.482  0.00  0.00    +0.000 A 
ATOM     15  C   UNL     1      46.736   3.353   6.366  0.00  0.00    +0.000 A 
ATOM     16  C   UNL     1      47.411   2.176   6.105  0.00  0.00    +0.000 A 
ATOM     17  N   UNL     1      47.306   1.068   6.872  0.00  0.00    +0.000 NA
ATOM     18  C   UNL     1      46.484   1.143   7.950  0.00  0.00    +0.000 A 
ENDBRANCH  12  13
ENDBRANCH  11  12
ENDBRANCH   5  11
TORSDOF 5
ENDMDL
MODEL 2
REMARK VINA RESULT:    -6.605      1.506      6.105
REMARK INTER + INTRA:          -8.653
REMARK INTER:                  -8.333
REMARK INTRA:                  -0.320
REMARK UNBOUND:                -0.310
REMARK  Name = 
REMARK  5 active torsions:
REMARK  status: ('A' for Active; 'I' for Inactive)
REMARK    1  A    between atoms: N_1  and  C_2
REMARK    2  A    between atoms: C_2  and  C_3
REMARK    3  A    between atoms: C_7  and  C_8
REMARK    4  A    between atoms: C_8  and  S_9
REMARK    5  A    between atoms: S_9  and  C_10
REMARK                            x       y       z     vdW  Elec       q    Type
REMARK                         _______ _______ _______ _____ _____    ______ ____
ROOT
ATOM      1  C   UNL     1      46.697   2.558   6.790  0.00  0.00    +0.000 A 
ATOM      2  C   UNL     1      46.627   1.302   7.392  0.00  0.00    +0.000 A 
ATOM      3  C   UNL     1      45.825   1.149   8.509  0.00  0.00    +0.000 A 
ATOM      4  N   UNL     1      45.089   2.144   9.058  0.00  0.00    +0.000 NA
ATOM      5  C   UNL     1      45.148   3.367   8.468  0.00  0.00    +0.000 A 
ATOM      6  C   UNL     1      45.964   3.603   7.361  0.00  0.00    +0.000 A 
ENDROOT
BRANCH   1   7
ATOM      7  C   UNL     1      47.511   2.790   5.546  0.00  0.00    +0.000 C 
BRANCH   7   8
ATOM      8  N   UNL     1      48.554   1.781   5.401  0.00  0.00    +0.000 NA
ATOM      9  H   UNL     1      48.132   0.857   5.459  0.00  0.00    +0.000 HD
ATOM     10  H   UNL     1      49.191   1.853   6.197  0.00  0.00    +0.000 HD
ENDBRANCH   7   8
ENDBRANCH   1   7
BRANCH   5  11
ATOM     11  C   UNL     1      44.309   4.465   9.102  0.00  0.00    +0.000 C 
BRANCH  11  12
ATOM     12  S   UNL     1      43.650   4.021  10.757  0.00  0.00    +0.000 S 
BRANCH  12  13
ATOM     13  C   UNL     1      44.988   4.327  11.887  0.00  0.00    +0.000 A 
ATOM     14  C   UNL     1      45.499   5.628  11.909  0.00  0.00    +0.000 A 
ATOM     15  C   UNL     1      46.552   5.962  12.758  0.00  0.00    +0.000 A 
ATOM     16  C   UNL     1      47.065   4.973  13.576  0.00  0.00    +0.000 A 
ATOM     17  N   UNL     1      46.602   3.704  13.594  0.00  0.00    +0.000 NA
ATOM     18  C   UNL     1      45.577   3.412  12.752  0.00  0.00    +0.000 A 
ENDBRANCH  12  13
ENDBRANCH  11  12
ENDBRANCH   5  11
TORSDOF 5
ENDMDL
MODEL 3
REMARK VINA RESULT:    -6.569      1.732      5.874
REMARK INTER + INTRA:          -8.606
REMARK INTER:                  -8.309
REMARK INTRA:                  -0.297
REMARK UNBOUND:                -0.310
REMARK  Name = 
REMARK  5 active torsions:
REMARK  status: ('A' for Active; 'I' for Inactive)
REMARK    1  A    between atoms: N_1  and  C_2
REMARK    2  A    between atoms: C_2  and  C_3
REMARK    3  A    between atoms: C_7  and  C_8
REMARK    4  A    between atoms: C_8  and  S_9
REMARK    5  A    between atoms: S_9  and  C_10
REMARK                            x       y       z     vdW  Elec       q    Type
REMARK                         _______ _______ _______ _____ _____    ______ ____
ROOT
ATOM      1  C   UNL     1      46.429   2.045   7.746  0.00  0.00    +0.000 A 
ATOM      2  C   UNL     1      46.609   3.347   7.283  0.00  0.00    +0.000 A 
ATOM      3  C   UNL     1      45.915   4.371   7.904  0.00  0.00    +0.000 A 
ATOM      4  N   UNL     1      45.069   4.192   8.946  0.00  0.00    +0.000 NA
ATOM      5  C   UNL     1      44.899   2.925   9.405  0.00  0.00    +0.000 A 
ATOM      6  C   UNL     1      45.539   1.840   8.804  0.00  0.00    +0.000 A 
ENDROOT
BRANCH   1   7
ATOM      7  C   UNL     1      47.185   0.887   7.152  0.00  0.00    +0.000 C 
BRANCH   7   8
ATOM      8  N   UNL     1      46.787  -0.374   7.768  0.00  0.00    +0.000 NA
ATOM      9  H   UNL     1      46.228  -0.907   7.105  0.00  0.00    +0.000 HD
ATOM     10  H   UNL     1      46.174  -0.172   8.560  0.00  0.00    +0.000 HD
ENDBRANCH   7   8
ENDBRANCH   1   7
BRANCH   5  11
ATOM     11  C   UNL     1      43.947   2.752  10.578  0.00  0.00    +0.000 C 
BRANCH  11  12
ATOM     12  S   UNL     1      43.458   4.338  11.364  0.00  0.00    +0.000 S 
BRANCH  12  13
ATOM     13  C   UNL     1      44.880   4.851  12.299  0.00  0.00    +0.000 A 
ATOM     14  C   UNL     1      45.634   3.835  12.893  0.00  0.00    +0.000 A 
ATOM     15  C   UNL     1      46.764   4.140  13.649  0.00  0.00    +0.000 A 
ATOM     16  C   UNL     1      47.114   5.470  13.787  0.00  0.00    +0.000 A 
ATOM     17  N   UNL     1      46.420   6.486  13.228  0.00  0.00    +0.000 NA
ATOM     18  C   UNL     1      45.324   6.154  12.499  0.00  0.00    +0.000 A 
ENDBRANCH  12  13
ENDBRANCH  11  12
ENDBRANCH   5  11
TORSDOF 5
ENDMDL
MODEL 4
REMARK VINA RESULT:    -6.505      1.457      2.295
REMARK INTER + INTRA:          -8.526
REMARK INTER:                  -8.244
REMARK INTRA:                  -0.283
REMARK UNBOUND:                -0.310
REMARK  Name = 
REMARK  5 active torsions:
REMARK  status: ('A' for Active; 'I' for Inactive)
REMARK    1  A    between atoms: N_1  and  C_2
REMARK    2  A    between atoms: C_2  and  C_3
REMARK    3  A    between atoms: C_7  and  C_8
REMARK    4  A    between atoms: C_8  and  S_9
REMARK    5  A    between atoms: S_9  and  C_10
REMARK                            x       y       z     vdW  Elec       q    Type
REMARK                         _______ _______ _______ _____ _____    ______ ____
ROOT
ATOM      1  C   UNL     1      46.597   5.904  12.696  0.00  0.00    +0.000 A 
ATOM      2  C   UNL     1      47.133   5.038  13.647  0.00  0.00    +0.000 A 
ATOM      3  C   UNL     1      46.692   3.726  13.668  0.00  0.00    +0.000 A 
ATOM      4  N   UNL     1      45.773   3.220  12.812  0.00  0.00    +0.000 NA
ATOM      5  C   UNL     1      45.256   4.060  11.878  0.00  0.00    +0.000 A 
ATOM      6  C   UNL     1      45.627   5.404  11.823  0.00  0.00    +0.000 A 
ENDROOT
BRANCH   1   7
ATOM      7  C   UNL     1      47.060   7.332  12.582  0.00  0.00    +0.000 C 
BRANCH   7   8
ATOM      8  N   UNL     1      46.264   8.213  13.428  0.00  0.00    +0.000 NA
ATOM      9  H   UNL     1      46.767   8.386  14.296  0.00  0.00    +0.000 HD
ATOM     10  H   UNL     1      45.404   7.728  13.689  0.00  0.00    +0.000 HD
ENDBRANCH   7   8
ENDBRANCH   1   7
BRANCH   5  11
ATOM     11  C   UNL     1      44.228   3.466  10.928  0.00  0.00    +0.000 C 
BRANCH  11  12
ATOM     12  S   UNL     1      44.377   4.088   9.207  0.00  0.00    +0.000 S 
BRANCH  12  13
ATOM     13  C   UNL     1      45.486   2.958   8.400  0.00  0.00    +0.000 A 
ATOM     14  C   UNL     1      46.261   3.480   7.360  0.00  0.00    +0.000 A 
ATOM     15  C   UNL     1      47.157   2.670   6.666  0.00  0.00    +0.000 A 
ATOM     16  C   UNL     1      47.255   1.343   7.039  0.00  0.00    +0.000 A 
ATOM     17  N   UNL     1      46.531   0.793   8.038  0.00  0.00    +0.000 NA
ATOM     18  C   UNL     1      45.667   1.610   8.694  0.00  0.00    +0.000 A 
ENDBRANCH  12  13
ENDBRANCH  11  12
ENDBRANCH   5  11
TORSDOF 5
ENDMDL
MODEL 5
REMARK VINA RESULT:    -6.224      1.810      5.789
REMARK INTER + INTRA:          -8.171
REMARK INTER:                  -7.758
REMARK INTRA:                  -0.413
REMARK UNBOUND:                -0.310
REMARK  Name = 
REMARK  5 active torsions:
REMARK  status: ('A' for Active; 'I' for Inactive)
REMARK    1  A    between atoms: N_1  and  C_2
REMARK    2  A    between atoms: C_2  and  C_3
REMARK    3  A    between atoms: C_7  and  C_8
REMARK    4  A    between atoms: C_8  and  S_9
REMARK    5  A    between atoms: S_9  and  C_10
REMARK                            x       y       z     vdW  Elec       q    Type
REMARK                         _______ _______ _______ _____ _____    ______ ____
ROOT
ATOM      1  C   UNL     1      45.795   3.435   8.037  0.00  0.00    +0.000 A 
ATOM      2  C   UNL     1      45.497   2.102   8.317  0.00  0.00    +0.000 A 
ATOM      3  C   UNL     1      44.611   1.826   9.344  0.00  0.00    +0.000 A 
ATOM      4  N   UNL     1      44.003   2.772  10.097  0.00  0.00    +0.000 NA
ATOM      5  C   UNL     1      44.283   4.072   9.820  0.00  0.00    +0.000 A 
ATOM      6  C   UNL     1      45.195   4.423   8.822  0.00  0.00    +0.000 A 
ENDROOT
BRANCH   1   7
ATOM      7  C   UNL     1      46.712   3.815   6.906  0.00  0.00    +0.000 C 
BRANCH   7   8
ATOM      8  N   UNL     1      47.865   2.924   6.839  0.00  0.00    +0.000 NA
ATOM      9  H   UNL     1      48.692   3.425   7.157  0.00  0.00    +0.000 HD
ATOM     10  H   UNL     1      48.037   2.684   5.861  0.00  0.00    +0.000 HD
ENDBRANCH   7   8
ENDBRANCH   1   7
BRANCH   5  11
ATOM     11  C   UNL     1      43.583   5.114  10.677  0.00  0.00    +0.000 C 
BRANCH  11  12
ATOM     12  S   UNL     1      43.927   4.937  12.472  0.00  0.00    +0.000 S 
BRANCH  12  13
ATOM     13  C   UNL     1      45.612   5.465  12.675  0.00  0.00    +0.000 A 
ATOM     14  C   UNL     1      46.043   6.506  11.849  0.00  0.00    +0.000 A 
ATOM     15  C   UNL     1      47.349   6.985  11.933  0.00  0.00    +0.000 A 
ATOM     16  C   UNL     1      48.195   6.404  12.856  0.00  0.00    +0.000 A 
ATOM     17  N   UNL     1      47.825   5.399  13.680  0.00  0.00    +0.000 NA
ATOM     18  C   UNL     1      46.546   4.955  13.571  0.00  0.00    +0.000 A 
ENDBRANCH  12  13
ENDBRANCH  11  12
ENDBRANCH   5  11
TORSDOF 5
ENDMDL
MODEL 6
REMARK VINA RESULT:    -6.161      1.997      3.121
REMARK INTER + INTRA:          -8.092
REMARK INTER:                  -7.800
REMARK INTRA:                  -0.292
REMARK UNBOUND:                -0.310
REMARK  Name = 
REMARK  5 active torsions:
REMARK  status: ('A' for Active; 'I' for Inactive)
REMARK    1  A    between atoms: N_1  and  C_2
REMARK    2  A    between atoms: C_2  and  C_3
REMARK    3  A    between atoms: C_7  and  C_8
REMARK    4  A    between atoms: C_8  and  S_9
REMARK    5  A    between atoms: S_9  and  C_10
REMARK                            x       y       z     vdW  Elec       q    Type
REMARK                         _______ _______ _______ _____ _____    ______ ____
ROOT
ATOM      1  C   UNL     1      45.489   7.918  12.170  0.00  0.00    +0.000 A 
ATOM      2  C   UNL     1      46.405   7.214  12.949  0.00  0.00    +0.000 A 
ATOM      3  C   UNL     1      46.344   5.831  12.952  0.00  0.00    +0.000 A 
ATOM      4  N   UNL     1      45.451   5.109  12.235  0.00  0.00    +0.000 NA
ATOM      5  C   UNL     1      44.563   5.792  11.467  0.00  0.00    +0.000 A 
ATOM      6  C   UNL     1      44.543   7.188  11.445  0.00  0.00    +0.000 A 
ENDROOT
BRANCH   1   7
ATOM      7  C   UNL     1      45.522   9.420  12.080  0.00  0.00    +0.000 C 
BRANCH   7   8
ATOM      8  N   UNL     1      44.284  10.007  12.581  0.00  0.00    +0.000 NA
ATOM      9  H   UNL     1      44.338  10.082  13.595  0.00  0.00    +0.000 HD
ATOM     10  H   UNL     1      43.515   9.364  12.384  0.00  0.00    +0.000 HD
ENDBRANCH   7   8
ENDBRANCH   1   7
BRANCH   5  11
ATOM     11  C   UNL     1      43.574   4.958  10.670  0.00  0.00    +0.000 C 
BRANCH  11  12
ATOM     12  S   UNL     1      44.065   3.196  10.509  0.00  0.00    +0.000 S 
BRANCH  12  13
ATOM     13  C   UNL     1      45.176   3.149   9.122  0.00  0.00    +0.000 A 
ATOM     14  C   UNL     1      45.663   1.891   8.756  0.00  0.00    +0.000 A 
ATOM     15  C   UNL     1      46.543   1.756   7.684  0.00  0.00    +0.000 A 
ATOM     16  C   UNL     1      46.912   2.897   6.998  0.00  0.00    +0.000 A 
ATOM     17  N   UNL     1      46.465   4.133   7.311  0.00  0.00    +0.000 NA
ATOM     18  C   UNL     1      45.610   4.230   8.362  0.00  0.00    +0.000 A 
ENDBRANCH  12  13
ENDBRANCH  11  12
ENDBRANCH   5  11
TORSDOF 5
ENDMDL
MODEL 7
REMARK VINA RESULT:    -6.040      1.821      2.429
REMARK INTER + INTRA:          -7.939
REMARK INTER:                  -7.584
REMARK INTRA:                  -0.355
REMARK UNBOUND:                -0.310
REMARK  Name = 
REMARK  5 active torsions:
REMARK  status: ('A' for Active; 'I' for Inactive)
REMARK    1  A    between atoms: N_1  and  C_2
REMARK    2  A    between atoms: C_2  and  C_3
REMARK    3  A    between atoms: C_7  and  C_8
REMARK    4  A    between atoms: C_8  and  S_9
REMARK    5  A    between atoms: S_9  and  C_10
REMARK                            x       y       z     vdW  Elec       q    Type
REMARK                         _______ _______ _______ _____ _____    ______ ____
ROOT
ATOM      1  C   UNL     1      47.007   6.529  13.240  0.00  0.00    +0.000 A 
ATOM      2  C   UNL     1      46.168   7.534  12.764  0.00  0.00    +0.000 A 
ATOM      3  C   UNL     1      44.975   7.168  12.163  0.00  0.00    +0.000 A 
ATOM      4  N   UNL     1      44.562   5.888  12.012  0.00  0.00    +0.000 NA
ATOM      5  C   UNL     1      45.374   4.907  12.484  0.00  0.00    +0.000 A 
ATOM      6  C   UNL     1      46.607   5.200  13.069  0.00  0.00    +0.000 A 
ENDROOT
BRANCH   1   7
ATOM      7  C   UNL     1      48.297   6.850  13.947  0.00  0.00    +0.000 C 
BRANCH   7   8
ATOM      8  N   UNL     1      49.437   6.725  13.046  0.00  0.00    +0.000 NA
ATOM      9  H   UNL     1      50.285   6.604  13.596  0.00  0.00    +0.000 HD
ATOM     10  H   UNL     1      49.550   7.604  12.538  0.00  0.00    +0.000 HD
ENDBRANCH   7   8
ENDBRANCH   1   7
BRANCH   5  11
ATOM     11  C   UNL     1      44.885   3.479  12.306  0.00  0.00    +0.000 C 
BRANCH  11  12
ATOM     12  S   UNL     1      43.807   3.252  10.837  0.00  0.00    +0.000 S 
BRANCH  12  13
ATOM     13  C   UNL     1      44.911   3.264   9.445  0.00  0.00    +0.000 A 
ATOM     14  C   UNL     1      45.361   2.019   8.995  0.00  0.00    +0.000 A 
ATOM     15  C   UNL     1      46.233   1.928   7.912  0.00  0.00    +0.000 A 
ATOM     16  C   UNL     1      46.632   3.101   7.300  0.00  0.00    +0.000 A 
ATOM     17  N   UNL     1      46.221   4.326   7.694  0.00  0.00    +0.000 NA
ATOM     18  C   UNL     1      45.373   4.379   8.753  0.00  0.00    +0.000 A 
ENDBRANCH  12  13
ENDBRANCH  11  12
ENDBRANCH   5  11
TORSDOF 5
ENDMDL
MODEL 8
REMARK VINA RESULT:    -5.681      1.405      2.119
REMARK INTER + INTRA:          -7.486
REMARK INTER:                  -7.184
REMARK INTRA:                  -0.302
REMARK UNBOUND:                -0.310
REMARK  Name = 
REMARK  5 active torsions:
REMARK  status: ('A' for Active; 'I' for Inactive)
REMARK    1  A    between atoms: N_1  and  C_2
REMARK    2  A    between atoms: C_2  and  C_3
REMARK    3  A    between atoms: C_7  and  C_8
REMARK    4  A    between atoms: C_8  and  S_9
REMARK    5  A    between atoms: S_9  and  C_10
REMARK                            x       y       z     vdW  Elec       q    Type
REMARK                         _______ _______ _______ _____ _____    ______ ____
ROOT
ATOM      1  C   UNL     1      46.852   5.568  13.267  0.00  0.00    +0.000 A 
ATOM      2  C   UNL     1      46.435   4.338  13.773  0.00  0.00    +0.000 A 
ATOM      3  C   UNL     1      45.673   3.514  12.962  0.00  0.00    +0.000 A 
ATOM      4  N   UNL     1      45.309   3.823  11.695  0.00  0.00    +0.000 NA
ATOM      5  C   UNL     1      45.722   5.016  11.196  0.00  0.00    +0.000 A 
ATOM      6  C   UNL     1      46.461   5.913  11.969  0.00  0.00    +0.000 A 
ENDROOT
BRANCH   1   7
ATOM      7  C   UNL     1      47.720   6.497  14.071  0.00  0.00    +0.000 C 
BRANCH   7   8
ATOM      8  N   UNL     1      48.124   5.882  15.331  0.00  0.00    +0.000 NA
ATOM      9  H   UNL     1      47.952   4.880  15.283  0.00  0.00    +0.000 HD
ATOM     10  H   UNL     1      47.523   6.238  16.076  0.00  0.00    +0.000 HD
ENDBRANCH   7   8
ENDBRANCH   1   7
BRANCH   5  11
ATOM     11  C   UNL     1      45.302   5.336   9.770  0.00  0.00    +0.000 C 
BRANCH  11  12
ATOM     12  S   UNL     1      44.419   3.957   8.940  0.00  0.00    +0.000 S 
BRANCH  12  13
ATOM     13  C   UNL     1      45.679   3.055   8.070  0.00  0.00    +0.000 A 
ATOM     14  C   UNL     1      45.844   1.713   8.427  0.00  0.00    +0.000 A 
ATOM     15  C   UNL     1      46.810   0.927   7.803  0.00  0.00    +0.000 A 
ATOM     16  C   UNL     1      47.591   1.512   6.825  0.00  0.00    +0.000 A 
ATOM     17  N   UNL     1      47.467   2.802   6.443  0.00  0.00    +0.000 NA
ATOM     18  C   UNL     1      46.518   3.541   7.072  0.00  0.00    +0.000 A 
ENDBRANCH  12  13
ENDBRANCH  11  12
ENDBRANCH   5  11
TORSDOF 5
ENDMDL
MODEL 9
REMARK VINA RESULT:    -5.281      2.238      3.683
REMARK INTER + INTRA:          -6.980
REMARK INTER:                  -6.609
REMARK INTRA:                  -0.372
REMARK UNBOUND:                -0.310
REMARK  Name = 
REMARK  5 active torsions:
REMARK  status: ('A' for Active; 'I' for Inactive)
REMARK    1  A    between atoms: N_1  and  C_2
REMARK    2  A    between atoms: C_2  and  C_3
REMARK    3  A    between atoms: C_7  and  C_8
REMARK    4  A    between atoms: C_8  and  S_9
REMARK    5  A    between atoms: S_9  and  C_10
REMARK                            x       y       z     vdW  Elec       q    Type
REMARK                         _______ _______ _______ _____ _____    ______ ____
ROOT
ATOM      1  C   UNL     1      46.759   8.187  12.689  0.00  0.00    +0.000 A 
ATOM      2  C   UNL     1      48.147   8.119  12.798  0.00  0.00    +0.000 A 
ATOM      3  C   UNL     1      48.731   6.887  13.040  0.00  0.00    +0.000 A 
ATOM      4  N   UNL     1      48.038   5.732  13.172  0.00  0.00    +0.000 NA
ATOM      5  C   UNL     1      46.686   5.793  13.057  0.00  0.00    +0.000 A 
ATOM      6  C   UNL     1      46.027   7.007  12.850  0.00  0.00    +0.000 A 
ENDROOT
BRANCH   1   7
ATOM      7  C   UNL     1      46.056   9.481  12.381  0.00  0.00    +0.000 C 
BRANCH   7   8
ATOM      8  N   UNL     1      44.608   9.309  12.387  0.00  0.00    +0.000 NA
ATOM      9  H   UNL     1      44.316   8.914  11.496  0.00  0.00    +0.000 HD
ATOM     10  H   UNL     1      44.169  10.230  12.447  0.00  0.00    +0.000 HD
ENDBRANCH   7   8
ENDBRANCH   1   7
BRANCH   5  11
ATOM     11  C   UNL     1      45.933   4.481  13.206  0.00  0.00    +0.000 C 
BRANCH  11  12
ATOM     12  S   UNL     1      44.285   4.486  12.395  0.00  0.00    +0.000 S 
BRANCH  12  13
ATOM     13  C   UNL     1      44.586   3.940  10.731  0.00  0.00    +0.000 A 
ATOM     14  C   UNL     1      45.231   4.846   9.884  0.00  0.00    +0.000 A 
ATOM     15  C   UNL     1      45.506   4.508   8.561  0.00  0.00    +0.000 A 
ATOM     16  C   UNL     1      45.125   3.256   8.118  0.00  0.00    +0.000 A 
ATOM     17  N   UNL     1      44.503   2.345   8.898  0.00  0.00    +0.000 NA
ATOM     18  C   UNL     1      44.250   2.706  10.182  0.00  0.00    +0.000 A 
ENDBRANCH  12  13
ENDBRANCH  11  12
ENDBRANCH   5  11
TORSDOF 5
ENDMDL
