MODEL 1
REMARK VINA RESULT:    -7.562      0.000      0.000
REMARK INTER + INTRA:         -10.111
REMARK INTER:                  -9.552
REMARK INTRA:                  -0.559
REMARK UNBOUND:                -0.559
REMARK  Name = 
REMARK  6 active torsions:
REMARK  status: ('A' for Active; 'I' for Inactive)
REMARK    1  A    between atoms: C_1  and  O_2
REMARK    2  A    between atoms: O_2  and  C_3
REMARK    3  A    between atoms: N_10  and  C_11
REMARK    4  A    between atoms: C_11  and  C_12
REMARK    5  A    between atoms: C_16  and  C_17
REMARK    6  A    between atoms: C_17  and  N_18
REMARK                            x       y       z     vdW  Elec       q    Type
REMARK                         _______ _______ _______ _____ _____    ______ ____
ROOT
ATOM      1  C   UNL     1      46.941   6.334  13.189  0.00  0.00    +0.000 A 
ATOM      2  C   UNL     1      47.061   6.646  11.837  0.00  0.00    +0.000 A 
ATOM      3  C   UNL     1      46.207   6.069  10.884  0.00  0.00    +0.000 A 
ATOM      4  C   UNL     1      45.224   5.170  11.326  0.00  0.00    +0.000 A 
ATOM      5  C   UNL     1      45.080   4.854  12.680  0.00  0.00    +0.000 A 
ATOM      6  C   UNL     1      43.989   3.954  12.794  0.00  0.00    +0.000 A 
ATOM      7  C   UNL     1      43.506   3.720  11.531  0.00  0.00    +0.000 A 
ATOM      8  N   UNL     1      44.268   4.441  10.640  0.00  0.00    +0.000 N 
ATOM      9  C   UNL     1      45.962   5.432  13.615  0.00  0.00    +0.000 A 
ENDROOT
BRANCH   1  11
ATOM     10  C   UNL     1      49.100   7.070  13.824  0.00  0.00    +0.000 C 
ATOM     11  O   UNL     1      47.748   6.817  14.186  0.00  0.00    +0.000 OA
ENDBRANCH   1  11
BRANCH   8  12
ATOM     12  C   UNL     1      44.122   4.352   9.189  0.00  0.00    +0.000 C 
BRANCH  12  13
ATOM     13  C   UNL     1      44.986   3.261   8.609  0.00  0.00    +0.000 A 
ATOM     14  C   UNL     1      44.778   1.922   8.967  0.00  0.00    +0.000 A 
ATOM     15  C   UNL     1      45.630   0.926   8.491  0.00  0.00    +0.000 A 
ATOM     16  C   UNL     1      46.694   1.258   7.650  0.00  0.00    +0.000 A 
ATOM     17  C   UNL     1      46.908   2.583   7.251  0.00  0.00    +0.000 A 
ATOM     18  C   UNL     1      46.043   3.575   7.740  0.00  0.00    +0.000 A 
BRANCH  17  19
ATOM     19  C   UNL     1      48.115   2.932   6.414  0.00  0.00    +0.000 C 
BRANCH  19  20
ATOM     20  N   UNL     1      48.557   1.837   5.556  0.00  0.00    +0.000 NA
ATOM     21  H   UNL     1      47.963   1.816   4.729  0.00  0.00    +0.000 HD
ATOM     22  H   UNL     1      48.404   0.957   6.042  0.00  0.00    +0.000 HD
ENDBRANCH  19  20
ENDBRANCH  17  19
ENDBRANCH  12  13
ENDBRANCH   8  12
TORSDOF 5
ENDMDL
MODEL 2
REMARK VINA RESULT:    -7.088      1.516      2.206
REMARK INTER + INTRA:          -9.511
REMARK INTER:                  -8.881
REMARK INTRA:                  -0.631
REMARK UNBOUND:                -0.559
REMARK  Name = 
REMARK  6 active torsions:
REMARK  status: ('A' for Active; 'I' for Inactive)
REMARK    1  A    between atoms: C_1  and  O_2
REMARK    2  A    between atoms: O_2  and  C_3
REMARK    3  A    between atoms: N_10  and  C_11
REMARK    4  A    between atoms: C_11  and  C_12
REMARK    5  A    between atoms: C_16  and  C_17
REMARK    6  A    between atoms: C_17  and  N_18
REMARK                            x       y       z     vdW  Elec       q    Type
REMARK                         _______ _______ _______ _____ _____    ______ ____
ROOT
ATOM      1  C   UNL     1      47.148   4.518  14.331  0.00  0.00    +0.000 A 
ATOM      2  C   UNL     1      46.535   3.442  13.692  0.00  0.00    +0.000 A 
ATOM      3  C   UNL     1      45.735   3.638  12.555  0.00  0.00    +0.000 A 
ATOM      4  C   UNL     1      45.570   4.945  12.073  0.00  0.00    +0.000 A 
ATOM      5  C   UNL     1      46.187   6.036  12.693  0.00  0.00    +0.000 A 
ATOM      6  C   UNL     1      45.849   7.197  11.950  0.00  0.00    +0.000 A 
ATOM      7  C   UNL     1      45.028   6.809  10.920  0.00  0.00    +0.000 A 
ATOM      8  N   UNL     1      44.843   5.449  11.008  0.00  0.00    +0.000 N 
ATOM      9  C   UNL     1      46.969   5.815  13.845  0.00  0.00    +0.000 A 
ENDROOT
BRANCH   1  11
ATOM     10  C   UNL     1      47.905   3.172  16.126  0.00  0.00    +0.000 C 
ATOM     11  O   UNL     1      47.915   4.430  15.465  0.00  0.00    +0.000 OA
ENDBRANCH   1  11
BRANCH   8  12
ATOM     12  C   UNL     1      43.934   4.696  10.147  0.00  0.00    +0.000 C 
BRANCH  12  13
ATOM     13  C   UNL     1      44.673   3.684   9.308  0.00  0.00    +0.000 A 
ATOM     14  C   UNL     1      44.493   2.311   9.525  0.00  0.00    +0.000 A 
ATOM     15  C   UNL     1      45.239   1.381   8.802  0.00  0.00    +0.000 A 
ATOM     16  C   UNL     1      46.168   1.813   7.854  0.00  0.00    +0.000 A 
ATOM     17  C   UNL     1      46.348   3.177   7.594  0.00  0.00    +0.000 A 
ATOM     18  C   UNL     1      45.592   4.102   8.331  0.00  0.00    +0.000 A 
BRANCH  17  19
ATOM     19  C   UNL     1      47.420   3.624   6.630  0.00  0.00    +0.000 C 
BRANCH  19  20
ATOM     20  N   UNL     1      48.486   2.642   6.458  0.00  0.00    +0.000 NA
ATOM     21  H   UNL     1      48.997   2.564   7.335  0.00  0.00    +0.000 HD
ATOM     22  H   UNL     1      49.147   2.993   5.770  0.00  0.00    +0.000 HD
ENDBRANCH  19  20
ENDBRANCH  17  19
ENDBRANCH  12  13
ENDBRANCH   8  12
TORSDOF 5
ENDMDL
MODEL 3
REMARK VINA RESULT:    -6.924      2.844      6.026
REMARK INTER + INTRA:          -9.305
REMARK INTER:                  -8.774
REMARK INTRA:                  -0.530
REMARK UNBOUND:                -0.559
REMARK  Name = 
REMARK  6 active torsions:
REMARK  status: ('A' for Active; 'I' for Inactive)
REMARK    1  A    between atoms: C_1  and  O_2
REMARK    2  A    between atoms: O_2  and  C_3
REMARK    3  A    between atoms: N_10  and  C_11
REMARK    4  A    between atoms: C_11  and  C_12
REMARK    5  A    between atoms: C_16  and  C_17
REMARK    6  A    between atoms: C_17  and  N_18
REMARK                            x       y       z     vdW  Elec       q    Type
REMARK                         _______ _______ _______ _____ _____    ______ ____
ROOT
ATOM      1  C   UNL     1      45.966   2.531   8.098  0.00  0.00    +0.000 A 
ATOM      2  C   UNL     1      46.032   3.918   7.976  0.00  0.00    +0.000 A 
ATOM      3  C   UNL     1      45.333   4.755   8.860  0.00  0.00    +0.000 A 
ATOM      4  C   UNL     1      44.567   4.161   9.876  0.00  0.00    +0.000 A 
ATOM      5  C   UNL     1      44.499   2.772  10.021  0.00  0.00    +0.000 A 
ATOM      6  C   UNL     1      43.679   2.501  11.148  0.00  0.00    +0.000 A 
ATOM      7  C   UNL     1      43.248   3.704  11.650  0.00  0.00    +0.000 A 
ATOM      8  N   UNL     1      43.770   4.707  10.866  0.00  0.00    +0.000 N 
ATOM      9  C   UNL     1      45.194   1.954   9.109  0.00  0.00    +0.000 A 
ENDROOT
BRANCH   1  11
ATOM     10  C   UNL     1      47.907   1.964   6.867  0.00  0.00    +0.000 C 
ATOM     11  O   UNL     1      46.582   1.635   7.263  0.00  0.00    +0.000 OA
ENDBRANCH   1  11
BRANCH   8  12
ATOM     12  C   UNL     1      43.435   6.120  11.028  0.00  0.00    +0.000 C 
BRANCH  12  13
ATOM     13  C   UNL     1      44.546   6.881  11.705  0.00  0.00    +0.000 A 
ATOM     14  C   UNL     1      44.646   8.272  11.567  0.00  0.00    +0.000 A 
ATOM     15  C   UNL     1      45.720   8.960  12.128  0.00  0.00    +0.000 A 
ATOM     16  C   UNL     1      46.703   8.266  12.836  0.00  0.00    +0.000 A 
ATOM     17  C   UNL     1      46.615   6.881  13.017  0.00  0.00    +0.000 A 
ATOM     18  C   UNL     1      45.528   6.201  12.445  0.00  0.00    +0.000 A 
BRANCH  17  19
ATOM     19  C   UNL     1      47.733   6.139  13.709  0.00  0.00    +0.000 C 
BRANCH  19  20
ATOM     20  N   UNL     1      48.988   6.166  12.965  0.00  0.00    +0.000 NA
ATOM     21  H   UNL     1      49.640   5.523  13.409  0.00  0.00    +0.000 HD
ATOM     22  H   UNL     1      49.398   7.093  13.046  0.00  0.00    +0.000 HD
ENDBRANCH  19  20
ENDBRANCH  17  19
ENDBRANCH  12  13
ENDBRANCH   8  12
TORSDOF 5
ENDMDL
MODEL 4
REMARK VINA RESULT:    -6.785      1.079      1.266
REMARK INTER + INTRA:          -9.130
REMARK INTER:                  -8.428
REMARK INTRA:                  -0.701
REMARK UNBOUND:                -0.559
REMARK  Name = 
REMARK  6 active torsions:
REMARK  status: ('A' for Active; 'I' for Inactive)
REMARK    1  A    between atoms: C_1  and  O_2
REMARK    2  A    between atoms: O_2  and  C_3
REMARK    3  A    between atoms: N_10  and  C_11
REMARK    4  A    between atoms: C_11  and  C_12
REMARK    5  A    between atoms: C_16  and  C_17
REMARK    6  A    between atoms: C_17  and  N_18
REMARK                            x       y       z     vdW  Elec       q    Type
REMARK                         _______ _______ _______ _____ _____    ______ ____
ROOT
ATOM      1  C   UNL     1      48.206   6.924  12.822  0.00  0.00    +0.000 A 
ATOM      2  C   UNL     1      47.770   7.214  11.531  0.00  0.00    +0.000 A 
ATOM      3  C   UNL     1      46.632   6.591  10.996  0.00  0.00    +0.000 A 
ATOM      4  C   UNL     1      45.937   5.670  11.796  0.00  0.00    +0.000 A 
ATOM      5  C   UNL     1      46.353   5.375  13.098  0.00  0.00    +0.000 A 
ATOM      6  C   UNL     1      45.430   4.442  13.639  0.00  0.00    +0.000 A 
ATOM      7  C   UNL     1      44.496   4.168  12.670  0.00  0.00    +0.000 A 
ATOM      8  N   UNL     1      44.817   4.897  11.548  0.00  0.00    +0.000 N 
ATOM      9  C   UNL     1      47.511   5.999  13.604  0.00  0.00    +0.000 A 
ENDROOT
BRANCH   1  11
ATOM     10  C   UNL     1      50.174   8.217  12.571  0.00  0.00    +0.000 C 
ATOM     11  O   UNL     1      49.323   7.452  13.416  0.00  0.00    +0.000 OA
ENDBRANCH   1  11
BRANCH   8  12
ATOM     12  C   UNL     1      44.112   4.775  10.274  0.00  0.00    +0.000 C 
BRANCH  12  13
ATOM     13  C   UNL     1      44.752   3.743   9.381  0.00  0.00    +0.000 A 
ATOM     14  C   UNL     1      44.521   2.377   9.591  0.00  0.00    +0.000 A 
ATOM     15  C   UNL     1      45.178   1.424   8.814  0.00  0.00    +0.000 A 
ATOM     16  C   UNL     1      46.069   1.826   7.817  0.00  0.00    +0.000 A 
ATOM     17  C   UNL     1      46.297   3.184   7.563  0.00  0.00    +0.000 A 
ATOM     18  C   UNL     1      45.630   4.132   8.355  0.00  0.00    +0.000 A 
BRANCH  17  19
ATOM     19  C   UNL     1      47.330   3.596   6.543  0.00  0.00    +0.000 C 
BRANCH  19  20
ATOM     20  N   UNL     1      48.453   2.668   6.453  0.00  0.00    +0.000 NA
ATOM     21  H   UNL     1      48.086   1.732   6.291  0.00  0.00    +0.000 HD
ATOM     22  H   UNL     1      48.928   2.640   7.352  0.00  0.00    +0.000 HD
ENDBRANCH  19  20
ENDBRANCH  17  19
ENDBRANCH  12  13
ENDBRANCH   8  12
TORSDOF 5
ENDMDL
MODEL 5
REMARK VINA RESULT:    -6.707      2.909      6.335
REMARK INTER + INTRA:          -9.031
REMARK INTER:                  -8.509
REMARK INTRA:                  -0.522
REMARK UNBOUND:                -0.559
REMARK  Name = 
REMARK  6 active torsions:
REMARK  status: ('A' for Active; 'I' for Inactive)
REMARK    1  A    between atoms: C_1  and  O_2
REMARK    2  A    between atoms: O_2  and  C_3
REMARK    3  A    between atoms: N_10  and  C_11
REMARK    4  A    between atoms: C_11  and  C_12
REMARK    5  A    between atoms: C_16  and  C_17
REMARK    6  A    between atoms: C_17  and  N_18
REMARK                            x       y       z     vdW  Elec       q    Type
REMARK                         _______ _______ _______ _____ _____    ______ ____
ROOT
ATOM      1  C   UNL     1      45.914   2.683   7.994  0.00  0.00    +0.000 A 
ATOM      2  C   UNL     1      46.028   4.071   8.012  0.00  0.00    +0.000 A 
ATOM      3  C   UNL     1      45.380   4.837   8.993  0.00  0.00    +0.000 A 
ATOM      4  C   UNL     1      44.614   4.170   9.962  0.00  0.00    +0.000 A 
ATOM      5  C   UNL     1      44.497   2.777   9.968  0.00  0.00    +0.000 A 
ATOM      6  C   UNL     1      43.690   2.421  11.081  0.00  0.00    +0.000 A 
ATOM      7  C   UNL     1      43.315   3.581  11.713  0.00  0.00    +0.000 A 
ATOM      8  N   UNL     1      43.858   4.640  11.021  0.00  0.00    +0.000 N 
ATOM      9  C   UNL     1      45.141   2.032   8.960  0.00  0.00    +0.000 A 
ENDROOT
BRANCH   1  11
ATOM     10  C   UNL     1      47.889   1.955   6.911  0.00  0.00    +0.000 C 
ATOM     11  O   UNL     1      46.478   1.855   7.058  0.00  0.00    +0.000 OA
ENDBRANCH   1  11
BRANCH   8  12
ATOM     12  C   UNL     1      43.579   6.040  11.333  0.00  0.00    +0.000 C 
BRANCH  12  13
ATOM     13  C   UNL     1      44.798   6.741  11.877  0.00  0.00    +0.000 A 
ATOM     14  C   UNL     1      45.746   6.040  12.634  0.00  0.00    +0.000 A 
ATOM     15  C   UNL     1      46.829   6.709  13.202  0.00  0.00    +0.000 A 
ATOM     16  C   UNL     1      46.977   8.085  13.016  0.00  0.00    +0.000 A 
ATOM     17  C   UNL     1      46.063   8.808  12.239  0.00  0.00    +0.000 A 
ATOM     18  C   UNL     1      44.977   8.120  11.676  0.00  0.00    +0.000 A 
BRANCH  17  19
ATOM     19  C   UNL     1      46.192  10.307  12.125  0.00  0.00    +0.000 C 
BRANCH  19  20
ATOM     20  N   UNL     1      44.906  10.990  12.019  0.00  0.00    +0.000 NA
ATOM     21  H   UNL     1      45.079  11.977  11.842  0.00  0.00    +0.000 HD
ATOM     22  H   UNL     1      44.432  10.937  12.917  0.00  0.00    +0.000 HD
ENDBRANCH  19  20
ENDBRANCH  17  19
ENDBRANCH  12  13
ENDBRANCH   8  12
TORSDOF 5
ENDMDL
MODEL 6
REMARK VINA RESULT:    -6.164      1.853      3.164
REMARK INTER + INTRA:          -8.345
REMARK INTER:                  -7.682
REMARK INTRA:                  -0.662
REMARK UNBOUND:                -0.559
REMARK  Name = 
REMARK  6 active torsions:
REMARK  status: ('A' for Active; 'I' for Inactive)
REMARK    1  A    between atoms: C_1  and  O_2
REMARK    2  A    between atoms: O_2  and  C_3
REMARK    3  A    between atoms: N_10  and  C_11
REMARK    4  A    between atoms: C_11  and  C_12
REMARK    5  A    between atoms: C_16  and  C_17
REMARK    6  A    between atoms: C_17  and  N_18
REMARK                            x       y       z     vdW  Elec       q    Type
REMARK                         _______ _______ _______ _____ _____    ______ ____
ROOT
ATOM      1  C   UNL     1      47.918   5.273  15.147  0.00  0.00    +0.000 A 
ATOM      2  C   UNL     1      46.765   4.524  14.924  0.00  0.00    +0.000 A 
ATOM      3  C   UNL     1      45.910   4.814  13.850  0.00  0.00    +0.000 A 
ATOM      4  C   UNL     1      46.247   5.878  12.998  0.00  0.00    +0.000 A 
ATOM      5  C   UNL     1      47.406   6.635  13.198  0.00  0.00    +0.000 A 
ATOM      6  C   UNL     1      47.470   7.600  12.160  0.00  0.00    +0.000 A 
ATOM      7  C   UNL     1      46.359   7.438  11.369  0.00  0.00    +0.000 A 
ATOM      8  N   UNL     1      45.609   6.409  11.891  0.00  0.00    +0.000 N 
ATOM      9  C   UNL     1      48.237   6.335  14.296  0.00  0.00    +0.000 A 
ENDROOT
BRANCH   1  11
ATOM     10  C   UNL     1      48.202   4.850  17.459  0.00  0.00    +0.000 C 
ATOM     11  O   UNL     1      48.792   5.089  16.187  0.00  0.00    +0.000 OA
ENDBRANCH   1  11
BRANCH   8  12
ATOM     12  C   UNL     1      44.295   6.023  11.380  0.00  0.00    +0.000 C 
BRANCH  12  13
ATOM     13  C   UNL     1      44.359   4.736  10.597  0.00  0.00    +0.000 A 
ATOM     14  C   UNL     1      43.876   3.542  11.149  0.00  0.00    +0.000 A 
ATOM     15  C   UNL     1      44.011   2.341  10.454  0.00  0.00    +0.000 A 
ATOM     16  C   UNL     1      44.625   2.322   9.200  0.00  0.00    +0.000 A 
ATOM     17  C   UNL     1      45.089   3.505   8.610  0.00  0.00    +0.000 A 
ATOM     18  C   UNL     1      44.948   4.706   9.323  0.00  0.00    +0.000 A 
BRANCH  17  19
ATOM     19  C   UNL     1      45.828   3.450   7.295  0.00  0.00    +0.000 C 
BRANCH  19  20
ATOM     20  N   UNL     1      46.911   4.424   7.202  0.00  0.00    +0.000 NA
ATOM     21  H   UNL     1      47.263   4.425   6.247  0.00  0.00    +0.000 HD
ATOM     22  H   UNL     1      47.680   4.117   7.792  0.00  0.00    +0.000 HD
ENDBRANCH  19  20
ENDBRANCH  17  19
ENDBRANCH  12  13
ENDBRANCH   8  12
TORSDOF 5
ENDMDL
MODEL 7
REMARK VINA RESULT:    -5.766      2.568      4.144
REMARK INTER + INTRA:          -7.842
REMARK INTER:                  -7.399
REMARK INTRA:                  -0.443
REMARK UNBOUND:                -0.559
REMARK  Name = 
REMARK  6 active torsions:
REMARK  status: ('A' for Active; 'I' for Inactive)
REMARK    1  A    between atoms: C_1  and  O_2
REMARK    2  A    between atoms: O_2  and  C_3
REMARK    3  A    between atoms: N_10  and  C_11
REMARK    4  A    between atoms: C_11  and  C_12
REMARK    5  A    between atoms: C_16  and  C_17
REMARK    6  A    between atoms: C_17  and  N_18
REMARK                            x       y       z     vdW  Elec       q    Type
REMARK                         _______ _______ _______ _____ _____    ______ ____
ROOT
ATOM      1  C   UNL     1      47.286  10.198  11.878  0.00  0.00    +0.000 A 
ATOM      2  C   UNL     1      45.910  10.092  12.068  0.00  0.00    +0.000 A 
ATOM      3  C   UNL     1      45.326   8.875  12.452  0.00  0.00    +0.000 A 
ATOM      4  C   UNL     1      46.163   7.764  12.645  0.00  0.00    +0.000 A 
ATOM      5  C   UNL     1      47.547   7.855  12.470  0.00  0.00    +0.000 A 
ATOM      6  C   UNL     1      48.099   6.582  12.770  0.00  0.00    +0.000 A 
ATOM      7  C   UNL     1      47.062   5.742  13.094  0.00  0.00    +0.000 A 
ATOM      8  N   UNL     1      45.888   6.455  12.997  0.00  0.00    +0.000 N 
ATOM      9  C   UNL     1      48.107   9.083  12.065  0.00  0.00    +0.000 A 
ENDROOT
BRANCH   1  11
ATOM     10  C   UNL     1      49.063  11.128  10.620  0.00  0.00    +0.000 C 
ATOM     11  O   UNL     1      47.942  11.331  11.469  0.00  0.00    +0.000 OA
ENDBRANCH   1  11
BRANCH   8  12
ATOM     12  C   UNL     1      44.563   5.860  13.159  0.00  0.00    +0.000 C 
BRANCH  12  13
ATOM     13  C   UNL     1      44.310   4.781  12.137  0.00  0.00    +0.000 A 
ATOM     14  C   UNL     1      43.590   3.629  12.480  0.00  0.00    +0.000 A 
ATOM     15  C   UNL     1      43.428   2.598  11.556  0.00  0.00    +0.000 A 
ATOM     16  C   UNL     1      43.980   2.710  10.278  0.00  0.00    +0.000 A 
ATOM     17  C   UNL     1      44.679   3.862   9.896  0.00  0.00    +0.000 A 
ATOM     18  C   UNL     1      44.836   4.891  10.839  0.00  0.00    +0.000 A 
BRANCH  17  19
ATOM     19  C   UNL     1      45.344   3.925   8.543  0.00  0.00    +0.000 C 
BRANCH  19  20
ATOM     20  N   UNL     1      46.108   5.151   8.333  0.00  0.00    +0.000 NA
ATOM     21  H   UNL     1      45.546   5.789   7.773  0.00  0.00    +0.000 HD
ATOM     22  H   UNL     1      46.933   4.933   7.780  0.00  0.00    +0.000 HD
ENDBRANCH  19  20
ENDBRANCH  17  19
ENDBRANCH  12  13
ENDBRANCH   8  12
TORSDOF 5
ENDMDL
MODEL 8
REMARK VINA RESULT:    -5.586      4.140      7.880
REMARK INTER + INTRA:          -7.614
REMARK INTER:                  -7.026
REMARK INTRA:                  -0.588
REMARK UNBOUND:                -0.559
REMARK  Name = 
REMARK  6 active torsions:
REMARK  status: ('A' for Active; 'I' for Inactive)
REMARK    1  A    between atoms: C_1  and  O_2
REMARK    2  A    between atoms: O_2  and  C_3
REMARK    3  A    between atoms: N_10  and  C_11
REMARK    4  A    between atoms: C_11  and  C_12
REMARK    5  A    between atoms: C_16  and  C_17
REMARK    6  A    between atoms: C_17  and  N_18
REMARK                            x       y       z     vdW  Elec       q    Type
REMARK                         _______ _______ _______ _____ _____    ______ ____
ROOT
ATOM      1  C   UNL     1      44.573   4.893  11.977  0.00  0.00    +0.000 A 
ATOM      2  C   UNL     1      45.577   4.186  12.635  0.00  0.00    +0.000 A 
ATOM      3  C   UNL     1      46.628   4.855  13.282  0.00  0.00    +0.000 A 
ATOM      4  C   UNL     1      46.641   6.259  13.255  0.00  0.00    +0.000 A 
ATOM      5  C   UNL     1      45.636   6.986  12.610  0.00  0.00    +0.000 A 
ATOM      6  C   UNL     1      45.923   8.364  12.793  0.00  0.00    +0.000 A 
ATOM      7  C   UNL     1      47.089   8.457  13.512  0.00  0.00    +0.000 A 
ATOM      8  N   UNL     1      47.533   7.181  13.773  0.00  0.00    +0.000 N 
ATOM      9  C   UNL     1      44.603   6.290  11.951  0.00  0.00    +0.000 A 
ENDROOT
BRANCH   1  11
ATOM     10  C   UNL     1      43.351   2.929  11.470  0.00  0.00    +0.000 C 
ATOM     11  O   UNL     1      43.531   4.328  11.289  0.00  0.00    +0.000 OA
ENDBRANCH   1  11
BRANCH   8  12
ATOM     12  C   UNL     1      48.808   6.883  14.421  0.00  0.00    +0.000 C 
BRANCH  12  13
ATOM     13  C   UNL     1      48.630   6.580  15.887  0.00  0.00    +0.000 A 
ATOM     14  C   UNL     1      48.830   7.578  16.851  0.00  0.00    +0.000 A 
ATOM     15  C   UNL     1      48.742   7.273  18.208  0.00  0.00    +0.000 A 
ATOM     16  C   UNL     1      48.450   5.970  18.616  0.00  0.00    +0.000 A 
ATOM     17  C   UNL     1      48.214   4.959  17.676  0.00  0.00    +0.000 A 
ATOM     18  C   UNL     1      48.308   5.280  16.312  0.00  0.00    +0.000 A 
BRANCH  17  19
ATOM     19  C   UNL     1      47.988   3.540  18.137  0.00  0.00    +0.000 C 
BRANCH  19  20
ATOM     20  N   UNL     1      46.715   2.984  17.688  0.00  0.00    +0.000 NA
ATOM     21  H   UNL     1      46.478   3.406  16.792  0.00  0.00    +0.000 HD
ATOM     22  H   UNL     1      45.987   3.262  18.340  0.00  0.00    +0.000 HD
ENDBRANCH  19  20
ENDBRANCH  17  19
ENDBRANCH  12  13
ENDBRANCH   8  12
TORSDOF 5
ENDMDL
MODEL 9
REMARK VINA RESULT:    -5.525      3.156      6.960
REMARK INTER + INTRA:          -7.537
REMARK INTER:                  -6.923
REMARK INTRA:                  -0.615
REMARK UNBOUND:                -0.559
REMARK  Name = 
REMARK  6 active torsions:
REMARK  status: ('A' for Active; 'I' for Inactive)
REMARK    1  A    between atoms: C_1  and  O_2
REMARK    2  A    between atoms: O_2  and  C_3
REMARK    3  A    between atoms: N_10  and  C_11
REMARK    4  A    between atoms: C_11  and  C_12
REMARK    5  A    between atoms: C_16  and  C_17
REMARK    6  A    between atoms: C_17  and  N_18
REMARK                            x       y       z     vdW  Elec       q    Type
REMARK                         _______ _______ _______ _____ _____    ______ ____
ROOT
ATOM      1  C   UNL     1      44.955   3.169   9.626  0.00  0.00    +0.000 A 
ATOM      2  C   UNL     1      45.316   4.368   9.016  0.00  0.00    +0.000 A 
ATOM      3  C   UNL     1      45.609   5.509   9.780  0.00  0.00    +0.000 A 
ATOM      4  C   UNL     1      45.534   5.412  11.178  0.00  0.00    +0.000 A 
ATOM      5  C   UNL     1      45.186   4.214  11.809  0.00  0.00    +0.000 A 
ATOM      6  C   UNL     1      45.233   4.441  13.210  0.00  0.00    +0.000 A 
ATOM      7  C   UNL     1      45.580   5.754  13.409  0.00  0.00    +0.000 A 
ATOM      8  N   UNL     1      45.742   6.346  12.177  0.00  0.00    +0.000 N 
ATOM      9  C   UNL     1      44.877   3.089  11.019  0.00  0.00    +0.000 A 
ENDROOT
BRANCH   1  11
ATOM     10  C   UNL     1      45.695   1.293   8.386  0.00  0.00    +0.000 C 
ATOM     11  O   UNL     1      44.617   2.017   8.965  0.00  0.00    +0.000 OA
ENDBRANCH   1  11
BRANCH   8  12
ATOM     12  C   UNL     1      46.001   7.772  11.991  0.00  0.00    +0.000 C 
BRANCH  12  13
ATOM     13  C   UNL     1      47.432   8.123  12.314  0.00  0.00    +0.000 A 
ATOM     14  C   UNL     1      48.481   7.634  11.524  0.00  0.00    +0.000 A 
ATOM     15  C   UNL     1      49.805   7.895  11.874  0.00  0.00    +0.000 A 
ATOM     16  C   UNL     1      50.093   8.651  13.012  0.00  0.00    +0.000 A 
ATOM     17  C   UNL     1      49.065   9.179  13.802  0.00  0.00    +0.000 A 
ATOM     18  C   UNL     1      47.737   8.906  13.440  0.00  0.00    +0.000 A 
BRANCH  17  19
ATOM     19  C   UNL     1      49.398   9.917  15.076  0.00  0.00    +0.000 C 
BRANCH  19  20
ATOM     20  N   UNL     1      48.617  11.137  15.257  0.00  0.00    +0.000 NA
ATOM     21  H   UNL     1      47.870  11.146  14.565  0.00  0.00    +0.000 HD
ATOM     22  H   UNL     1      49.208  11.939  15.054  0.00  0.00    +0.000 HD
ENDBRANCH  19  20
ENDBRANCH  17  19
ENDBRANCH  12  13
ENDBRANCH   8  12
TORSDOF 5
ENDMDL
