MODEL 1
REMARK VINA RESULT:    -7.825      0.000      0.000
REMARK INTER + INTRA:         -11.664
REMARK INTER:                 -10.569
REMARK INTRA:                  -1.094
REMARK UNBOUND:                -1.094
REMARK  Name = 
REMARK  7 active torsions:
REMARK  status: ('A' for Active; 'I' for Inactive)
REMARK    1  A    between atoms: C_1  and  C_2
REMARK    2  A    between atoms: C_2  and  C_3
REMARK    3  A    between atoms: C_7  and  C_8
REMARK    4  A    between atoms: C_8  and  C_9
REMARK    5  A    between atoms: C_9  and  C_10
REMARK    6  A    between atoms: C_10  and  C_11
REMARK    7  A    between atoms: C_14  and  C_15
REMARK                            x       y       z     vdW  Elec       q    Type
REMARK                         _______ _______ _______ _____ _____    ______ ____
ROOT
ATOM      1  C   UNL     1      43.408   4.590  12.775  0.00  0.00    +0.000 C 
ENDROOT
BRANCH   1   6
ATOM      2  C   UNL     1      46.437   6.909  13.038  0.00  0.00    +0.000 A 
ATOM      3  C   UNL     1      47.425   5.989  13.435  0.00  0.00    +0.000 A 
ATOM      4  C   UNL     1      47.134   4.630  13.564  0.00  0.00    +0.000 A 
ATOM      5  C   UNL     1      45.846   4.163  13.314  0.00  0.00    +0.000 A 
ATOM      6  C   UNL     1      44.842   5.051  12.919  0.00  0.00    +0.000 A 
ATOM      7  C   UNL     1      45.153   6.411  12.760  0.00  0.00    +0.000 A 
BRANCH   2   9
ATOM      8  C   UNL     1      45.530   9.237  12.648  0.00  0.00    +0.000 C 
ATOM      9  C   UNL     1      46.767   8.394  12.976  0.00  0.00    +0.000 C 
ATOM     10  C   UNL     1      47.511   8.881  14.191  0.00  0.00    +0.000 C 
ATOM     11  C   UNL     1      48.711   9.346  13.839  0.00  0.00    +0.000 C 
ATOM     12  N   UNL     1      48.951   9.292  12.495  0.00  0.00    +0.000 NA
ATOM     13  C   UNL     1      47.871   8.769  12.001  0.00  0.00    +0.000 C 
ENDBRANCH   2   9
ENDBRANCH   1   6
BRANCH   1  14
ATOM     14  C   UNL     1      43.259   3.766  11.492  0.00  0.00    +0.000 C 
BRANCH  14  15
ATOM     15  C   UNL     1      43.588   4.557  10.225  0.00  0.00    +0.000 C 
BRANCH  15  16
ATOM     16  C   UNL     1      44.612   3.839   9.395  0.00  0.00    +0.000 A 
ATOM     17  C   UNL     1      45.381   4.483   8.443  0.00  0.00    +0.000 A 
ATOM     18  N   UNL     1      46.271   3.862   7.645  0.00  0.00    +0.000 NA
ATOM     19  C   UNL     1      46.379   2.522   7.826  0.00  0.00    +0.000 A 
ATOM     20  N   UNL     1      45.685   1.792   8.719  0.00  0.00    +0.000 NA
ATOM     21  C   UNL     1      44.813   2.474   9.484  0.00  0.00    +0.000 A 
BRANCH  19  22
ATOM     22  C   UNL     1      47.356   1.798   6.925  0.00  0.00    +0.000 C 
ATOM     23  N   UNL     1      48.419   2.544   6.471  0.00  0.00    +0.000 N 
ATOM     24  O   UNL     1      47.241   0.621   6.594  0.00  0.00    +0.000 OA
ATOM     25  H   UNL     1      48.510   3.517   6.741  0.00  0.00    +0.000 HD
ATOM     26  H   UNL     1      49.098   2.111   5.862  0.00  0.00    +0.000 HD
ENDBRANCH  19  22
ENDBRANCH  15  16
ENDBRANCH  14  15
ENDBRANCH   1  14
TORSDOF 6
ENDMDL
MODEL 2
REMARK VINA RESULT:    -7.718      2.608      3.843
REMARK INTER + INTRA:         -11.519
REMARK INTER:                 -10.715
REMARK INTRA:                  -0.804
REMARK UNBOUND:                -1.094
REMARK  Name = 
REMARK  7 active torsions:
REMARK  status: ('A' for Active; 'I' for Inactive)
REMARK    1  A    between atoms: C_1  and  C_2
REMARK    2  A    between atoms: C_2  and  C_3
REMARK    3  A    between atoms: C_7  and  C_8
REMARK    4  A    between atoms: C_8  and  C_9
REMARK    5  A    between atoms: C_9  and  C_10
REMARK    6  A    between atoms: C_10  and  C_11
REMARK    7  A    between atoms: C_14  and  C_15
REMARK                            x       y       z     vdW  Elec       q    Type
REMARK                         _______ _______ _______ _____ _____    ______ ____
ROOT
ATOM      1  C   UNL     1      45.520   3.834  12.513  0.00  0.00    +0.000 C 
ENDROOT
BRANCH   1   6
ATOM      2  C   UNL     1      47.654   4.971  15.475  0.00  0.00    +0.000 A 
ATOM      3  C   UNL     1      48.228   6.138  14.940  0.00  0.00    +0.000 A 
ATOM      4  C   UNL     1      47.892   6.585  13.661  0.00  0.00    +0.000 A 
ATOM      5  C   UNL     1      46.986   5.866  12.884  0.00  0.00    +0.000 A 
ATOM      6  C   UNL     1      46.399   4.702  13.387  0.00  0.00    +0.000 A 
ATOM      7  C   UNL     1      46.719   4.279  14.687  0.00  0.00    +0.000 A 
BRANCH   2   9
ATOM      8  C   UNL     1      47.202   5.016  17.963  0.00  0.00    +0.000 C 
ATOM      9  C   UNL     1      48.095   4.470  16.845  0.00  0.00    +0.000 C 
ATOM     10  C   UNL     1      48.262   2.975  16.896  0.00  0.00    +0.000 C 
ATOM     11  C   UNL     1      49.527   2.664  17.185  0.00  0.00    +0.000 C 
ATOM     12  N   UNL     1      50.330   3.750  17.384  0.00  0.00    +0.000 NA
ATOM     13  C   UNL     1      49.542   4.765  17.204  0.00  0.00    +0.000 C 
ENDBRANCH   2   9
ENDBRANCH   1   6
BRANCH   1  14
ATOM     14  C   UNL     1      44.517   4.712  11.758  0.00  0.00    +0.000 C 
BRANCH  14  15
ATOM     15  C   UNL     1      43.747   3.955  10.675  0.00  0.00    +0.000 C 
BRANCH  15  16
ATOM     16  C   UNL     1      44.660   3.546   9.555  0.00  0.00    +0.000 A 
ATOM     17  C   UNL     1      45.004   2.227   9.321  0.00  0.00    +0.000 A 
ATOM     18  N   UNL     1      45.860   1.829   8.360  0.00  0.00    +0.000 NA
ATOM     19  C   UNL     1      46.391   2.823   7.606  0.00  0.00    +0.000 A 
ATOM     20  N   UNL     1      46.130   4.137   7.742  0.00  0.00    +0.000 NA
ATOM     21  C   UNL     1      45.268   4.466   8.721  0.00  0.00    +0.000 A 
BRANCH  19  22
ATOM     22  C   UNL     1      47.374   2.404   6.535  0.00  0.00    +0.000 C 
ATOM     23  N   UNL     1      47.373   3.168   5.390  0.00  0.00    +0.000 N 
ATOM     24  O   UNL     1      48.138   1.448   6.639  0.00  0.00    +0.000 OA
ATOM     25  H   UNL     1      46.739   3.953   5.302  0.00  0.00    +0.000 HD
ATOM     26  H   UNL     1      48.006   2.928   4.639  0.00  0.00    +0.000 HD
ENDBRANCH  19  22
ENDBRANCH  15  16
ENDBRANCH  14  15
ENDBRANCH   1  14
TORSDOF 6
ENDMDL
MODEL 3
REMARK VINA RESULT:    -7.473      1.399      2.218
REMARK INTER + INTRA:         -11.189
REMARK INTER:                 -10.165
REMARK INTRA:                  -1.024
REMARK UNBOUND:                -1.094
REMARK  Name = 
REMARK  7 active torsions:
REMARK  status: ('A' for Active; 'I' for Inactive)
REMARK    1  A    between atoms: C_1  and  C_2
REMARK    2  A    between atoms: C_2  and  C_3
REMARK    3  A    between atoms: C_7  and  C_8
REMARK    4  A    between atoms: C_8  and  C_9
REMARK    5  A    between atoms: C_9  and  C_10
REMARK    6  A    between atoms: C_10  and  C_11
REMARK    7  A    between atoms: C_14  and  C_15
REMARK                            x       y       z     vdW  Elec       q    Type
REMARK                         _______ _______ _______ _____ _____    ______ ____
ROOT
ATOM      1  C   UNL     1      44.268   4.282  13.040  0.00  0.00    +0.000 C 
ENDROOT
BRANCH   1   6
ATOM      2  C   UNL     1      46.510   7.355  12.653  0.00  0.00    +0.000 A 
ATOM      3  C   UNL     1      45.710   8.147  11.810  0.00  0.00    +0.000 A 
ATOM      4  C   UNL     1      44.440   7.722  11.413  0.00  0.00    +0.000 A 
ATOM      5  C   UNL     1      43.951   6.490  11.839  0.00  0.00    +0.000 A 
ATOM      6  C   UNL     1      44.721   5.679  12.677  0.00  0.00    +0.000 A 
ATOM      7  C   UNL     1      45.983   6.131  13.097  0.00  0.00    +0.000 A 
BRANCH   2   9
ATOM      8  C   UNL     1      48.592   8.538  11.840  0.00  0.00    +0.000 C 
ATOM      9  C   UNL     1      47.919   7.813  13.009  0.00  0.00    +0.000 C 
ATOM     10  C   UNL     1      47.974   8.589  14.298  0.00  0.00    +0.000 C 
ATOM     11  C   UNL     1      48.744   7.954  15.184  0.00  0.00    +0.000 C 
ATOM     12  N   UNL     1      49.299   6.801  14.706  0.00  0.00    +0.000 NA
ATOM     13  C   UNL     1      48.852   6.715  13.490  0.00  0.00    +0.000 C 
ENDBRANCH   2   9
ENDBRANCH   1   6
BRANCH   1  14
ATOM     14  C   UNL     1      44.807   3.283  12.012  0.00  0.00    +0.000 C 
BRANCH  14  15
ATOM     15  C   UNL     1      43.932   3.171  10.762  0.00  0.00    +0.000 C 
BRANCH  15  16
ATOM     16  C   UNL     1      44.776   3.075   9.524  0.00  0.00    +0.000 A 
ATOM     17  C   UNL     1      45.252   1.870   9.041  0.00  0.00    +0.000 A 
ATOM     18  N   UNL     1      46.054   1.750   7.966  0.00  0.00    +0.000 NA
ATOM     19  C   UNL     1      46.387   2.915   7.357  0.00  0.00    +0.000 A 
ATOM     20  N   UNL     1      45.984   4.143   7.736  0.00  0.00    +0.000 NA
ATOM     21  C   UNL     1      45.186   4.191   8.818  0.00  0.00    +0.000 A 
BRANCH  19  22
ATOM     22  C   UNL     1      47.306   2.810   6.159  0.00  0.00    +0.000 C 
ATOM     23  N   UNL     1      48.633   2.579   6.442  0.00  0.00    +0.000 N 
ATOM     24  O   UNL     1      46.933   2.923   4.995  0.00  0.00    +0.000 OA
ATOM     25  H   UNL     1      48.941   2.491   7.403  0.00  0.00    +0.000 HD
ATOM     26  H   UNL     1      49.292   2.506   5.679  0.00  0.00    +0.000 HD
ENDBRANCH  19  22
ENDBRANCH  15  16
ENDBRANCH  14  15
ENDBRANCH   1  14
TORSDOF 6
ENDMDL
MODEL 4
REMARK VINA RESULT:    -7.189      2.447      3.686
REMARK INTER + INTRA:         -10.805
REMARK INTER:                 -10.032
REMARK INTRA:                  -0.773
REMARK UNBOUND:                -1.094
REMARK  Name = 
REMARK  7 active torsions:
REMARK  status: ('A' for Active; 'I' for Inactive)
REMARK    1  A    between atoms: C_1  and  C_2
REMARK    2  A    between atoms: C_2  and  C_3
REMARK    3  A    between atoms: C_7  and  C_8
REMARK    4  A    between atoms: C_8  and  C_9
REMARK    5  A    between atoms: C_9  and  C_10
REMARK    6  A    between atoms: C_10  and  C_11
REMARK    7  A    between atoms: C_14  and  C_15
REMARK                            x       y       z     vdW  Elec       q    Type
REMARK                         _______ _______ _______ _____ _____    ______ ____
ROOT
ATOM      1  C   UNL     1      45.168   5.503  11.673  0.00  0.00    +0.000 C 
ENDROOT
BRANCH   1   6
ATOM      2  C   UNL     1      44.581   9.275  11.449  0.00  0.00    +0.000 A 
ATOM      3  C   UNL     1      45.490   9.730  12.420  0.00  0.00    +0.000 A 
ATOM      4  C   UNL     1      46.322   8.840  13.102  0.00  0.00    +0.000 A 
ATOM      5  C   UNL     1      46.251   7.475  12.838  0.00  0.00    +0.000 A 
ATOM      6  C   UNL     1      45.358   6.990  11.878  0.00  0.00    +0.000 A 
ATOM      7  C   UNL     1      44.550   7.898  11.175  0.00  0.00    +0.000 A 
BRANCH   2   9
ATOM      8  C   UNL     1      44.237  10.831   9.484  0.00  0.00    +0.000 C 
ATOM      9  C   UNL     1      43.637  10.262  10.774  0.00  0.00    +0.000 C 
ATOM     10  C   UNL     1      42.248   9.712  10.589  0.00  0.00    +0.000 C 
ATOM     11  C   UNL     1      41.367  10.453  11.262  0.00  0.00    +0.000 C 
ATOM     12  N   UNL     1      41.924  11.516  11.914  0.00  0.00    +0.000 NA
ATOM     13  C   UNL     1      43.190  11.425  11.644  0.00  0.00    +0.000 C 
ENDBRANCH   2   9
ENDBRANCH   1   6
BRANCH   1  14
ATOM     14  C   UNL     1      43.828   5.248  10.976  0.00  0.00    +0.000 C 
BRANCH  14  15
ATOM     15  C   UNL     1      43.631   3.788  10.562  0.00  0.00    +0.000 C 
BRANCH  15  16
ATOM     16  C   UNL     1      44.585   3.408   9.467  0.00  0.00    +0.000 A 
ATOM     17  C   UNL     1      45.132   2.143   9.363  0.00  0.00    +0.000 A 
ATOM     18  N   UNL     1      46.030   1.782   8.426  0.00  0.00    +0.000 NA
ATOM     19  C   UNL     1      46.388   2.759   7.557  0.00  0.00    +0.000 A 
ATOM     20  N   UNL     1      45.923   4.022   7.561  0.00  0.00    +0.000 NA
ATOM     21  C   UNL     1      45.030   4.316   8.524  0.00  0.00    +0.000 A 
BRANCH  19  22
ATOM     22  C   UNL     1      47.413   2.385   6.509  0.00  0.00    +0.000 C 
ATOM     23  N   UNL     1      47.329   3.071   5.318  0.00  0.00    +0.000 N 
ATOM     24  O   UNL     1      48.278   1.528   6.668  0.00  0.00    +0.000 OA
ATOM     25  H   UNL     1      46.612   3.774   5.185  0.00  0.00    +0.000 HD
ATOM     26  H   UNL     1      47.985   2.857   4.581  0.00  0.00    +0.000 HD
ENDBRANCH  19  22
ENDBRANCH  15  16
ENDBRANCH  14  15
ENDBRANCH   1  14
TORSDOF 6
ENDMDL
MODEL 5
REMARK VINA RESULT:    -7.130      1.365      2.572
REMARK INTER + INTRA:         -10.725
REMARK INTER:                  -9.842
REMARK INTRA:                  -0.883
REMARK UNBOUND:                -1.094
REMARK  Name = 
REMARK  7 active torsions:
REMARK  status: ('A' for Active; 'I' for Inactive)
REMARK    1  A    between atoms: C_1  and  C_2
REMARK    2  A    between atoms: C_2  and  C_3
REMARK    3  A    between atoms: C_7  and  C_8
REMARK    4  A    between atoms: C_8  and  C_9
REMARK    5  A    between atoms: C_9  and  C_10
REMARK    6  A    between atoms: C_10  and  C_11
REMARK    7  A    between atoms: C_14  and  C_15
REMARK                            x       y       z     vdW  Elec       q    Type
REMARK                         _______ _______ _______ _____ _____    ______ ____
ROOT
ATOM      1  C   UNL     1      45.342   5.070  12.039  0.00  0.00    +0.000 C 
ENDROOT
BRANCH   1   6
ATOM      2  C   UNL     1      47.834   7.904  12.655  0.00  0.00    +0.000 A 
ATOM      3  C   UNL     1      47.004   9.020  12.448  0.00  0.00    +0.000 A 
ATOM      4  C   UNL     1      45.645   8.865  12.167  0.00  0.00    +0.000 A 
ATOM      5  C   UNL     1      45.091   7.591  12.072  0.00  0.00    +0.000 A 
ATOM      6  C   UNL     1      45.890   6.461  12.271  0.00  0.00    +0.000 A 
ATOM      7  C   UNL     1      47.248   6.629  12.587  0.00  0.00    +0.000 A 
BRANCH   2   9
ATOM      8  C   UNL     1      49.793   7.432  14.184  0.00  0.00    +0.000 C 
ATOM      9  C   UNL     1      49.326   8.103  12.889  0.00  0.00    +0.000 C 
ATOM     10  C   UNL     1      50.162   7.730  11.693  0.00  0.00    +0.000 C 
ATOM     11  C   UNL     1      50.832   8.795  11.251  0.00  0.00    +0.000 C 
ATOM     12  N   UNL     1      50.621   9.925  11.988  0.00  0.00    +0.000 NA
ATOM     13  C   UNL     1      49.788   9.551  12.909  0.00  0.00    +0.000 C 
ENDBRANCH   2   9
ENDBRANCH   1   6
BRANCH   1  14
ATOM     14  C   UNL     1      44.143   5.141  11.088  0.00  0.00    +0.000 C 
BRANCH  14  15
ATOM     15  C   UNL     1      43.761   3.784  10.496  0.00  0.00    +0.000 C 
BRANCH  15  16
ATOM     16  C   UNL     1      44.705   3.393   9.397  0.00  0.00    +0.000 A 
ATOM     17  C   UNL     1      45.186   2.105   9.254  0.00  0.00    +0.000 A 
ATOM     18  N   UNL     1      46.075   1.730   8.313  0.00  0.00    +0.000 NA
ATOM     19  C   UNL     1      46.493   2.717   7.483  0.00  0.00    +0.000 A 
ATOM     20  N   UNL     1      46.095   4.002   7.528  0.00  0.00    +0.000 NA
ATOM     21  C   UNL     1      45.208   4.309   8.491  0.00  0.00    +0.000 A 
BRANCH  19  22
ATOM     22  C   UNL     1      47.510   2.327   6.432  0.00  0.00    +0.000 C 
ATOM     23  N   UNL     1      47.383   2.956   5.214  0.00  0.00    +0.000 N 
ATOM     24  O   UNL     1      48.402   1.503   6.611  0.00  0.00    +0.000 OA
ATOM     25  H   UNL     1      46.644   3.632   5.065  0.00  0.00    +0.000 HD
ATOM     26  H   UNL     1      48.032   2.729   4.474  0.00  0.00    +0.000 HD
ENDBRANCH  19  22
ENDBRANCH  15  16
ENDBRANCH  14  15
ENDBRANCH   1  14
TORSDOF 6
ENDMDL
MODEL 6
REMARK VINA RESULT:    -7.069      2.733      7.114
REMARK INTER + INTRA:         -10.643
REMARK INTER:                  -9.616
REMARK INTRA:                  -1.027
REMARK UNBOUND:                -1.094
REMARK  Name = 
REMARK  7 active torsions:
REMARK  status: ('A' for Active; 'I' for Inactive)
REMARK    1  A    between atoms: C_1  and  C_2
REMARK    2  A    between atoms: C_2  and  C_3
REMARK    3  A    between atoms: C_7  and  C_8
REMARK    4  A    between atoms: C_8  and  C_9
REMARK    5  A    between atoms: C_9  and  C_10
REMARK    6  A    between atoms: C_10  and  C_11
REMARK    7  A    between atoms: C_14  and  C_15
REMARK                            x       y       z     vdW  Elec       q    Type
REMARK                         _______ _______ _______ _____ _____    ______ ____
ROOT
ATOM      1  C   UNL     1      43.780   2.898  11.096  0.00  0.00    +0.000 C 
ENDROOT
BRANCH   1   6
ATOM      2  C   UNL     1      46.180   2.751   8.123  0.00  0.00    +0.000 A 
ATOM      3  C   UNL     1      46.350   4.125   7.868  0.00  0.00    +0.000 A 
ATOM      4  C   UNL     1      45.743   5.088   8.676  0.00  0.00    +0.000 A 
ATOM      5  C   UNL     1      44.942   4.699   9.746  0.00  0.00    +0.000 A 
ATOM      6  C   UNL     1      44.752   3.343  10.026  0.00  0.00    +0.000 A 
ATOM      7  C   UNL     1      45.394   2.383   9.227  0.00  0.00    +0.000 A 
BRANCH   2   9
ATOM      8  C   UNL     1      46.539   0.292   7.658  0.00  0.00    +0.000 C 
ATOM      9  C   UNL     1      46.796   1.725   7.181  0.00  0.00    +0.000 C 
ATOM     10  C   UNL     1      46.416   1.948   5.742  0.00  0.00    +0.000 C 
ATOM     11  C   UNL     1      47.505   2.191   5.011  0.00  0.00    +0.000 C 
ATOM     12  N   UNL     1      48.668   2.153   5.726  0.00  0.00    +0.000 NA
ATOM     13  C   UNL     1      48.287   1.886   6.938  0.00  0.00    +0.000 C 
ENDBRANCH   2   9
ENDBRANCH   1   6
BRANCH   1  14
ATOM     14  C   UNL     1      43.182   4.125  11.791  0.00  0.00    +0.000 C 
BRANCH  14  15
ATOM     15  C   UNL     1      43.685   4.311  13.224  0.00  0.00    +0.000 C 
BRANCH  15  16
ATOM     16  C   UNL     1      45.030   4.977  13.238  0.00  0.00    +0.000 A 
ATOM     17  C   UNL     1      46.181   4.317  13.629  0.00  0.00    +0.000 A 
ATOM     18  N   UNL     1      47.395   4.896  13.705  0.00  0.00    +0.000 NA
ATOM     19  C   UNL     1      47.435   6.209  13.369  0.00  0.00    +0.000 A 
ATOM     20  N   UNL     1      46.383   6.951  12.975  0.00  0.00    +0.000 NA
ATOM     21  C   UNL     1      45.200   6.312  12.922  0.00  0.00    +0.000 A 
BRANCH  19  22
ATOM     22  C   UNL     1      48.783   6.889  13.467  0.00  0.00    +0.000 C 
ATOM     23  N   UNL     1      49.143   7.664  12.389  0.00  0.00    +0.000 N 
ATOM     24  O   UNL     1      49.540   6.778  14.428  0.00  0.00    +0.000 OA
ATOM     25  H   UNL     1      48.521   7.751  11.594  0.00  0.00    +0.000 HD
ATOM     26  H   UNL     1      50.036   8.136  12.400  0.00  0.00    +0.000 HD
ENDBRANCH  19  22
ENDBRANCH  15  16
ENDBRANCH  14  15
ENDBRANCH   1  14
TORSDOF 6
ENDMDL
MODEL 7
REMARK VINA RESULT:    -6.910      1.273      2.282
REMARK INTER + INTRA:         -10.428
REMARK INTER:                  -9.555
REMARK INTRA:                  -0.873
REMARK UNBOUND:                -1.094
REMARK  Name = 
REMARK  7 active torsions:
REMARK  status: ('A' for Active; 'I' for Inactive)
REMARK    1  A    between atoms: C_1  and  C_2
REMARK    2  A    between atoms: C_2  and  C_3
REMARK    3  A    between atoms: C_7  and  C_8
REMARK    4  A    between atoms: C_8  and  C_9
REMARK    5  A    between atoms: C_9  and  C_10
REMARK    6  A    between atoms: C_10  and  C_11
REMARK    7  A    between atoms: C_14  and  C_15
REMARK                            x       y       z     vdW  Elec       q    Type
REMARK                         _______ _______ _______ _____ _____    ______ ____
ROOT
ATOM      1  C   UNL     1      45.000   5.314  12.162  0.00  0.00    +0.000 C 
ENDROOT
BRANCH   1   6
ATOM      2  C   UNL     1      47.424   8.241  12.587  0.00  0.00    +0.000 A 
ATOM      3  C   UNL     1      46.610   9.307  12.163  0.00  0.00    +0.000 A 
ATOM      4  C   UNL     1      45.279   9.095  11.795  0.00  0.00    +0.000 A 
ATOM      5  C   UNL     1      44.740   7.812  11.829  0.00  0.00    +0.000 A 
ATOM      6  C   UNL     1      45.522   6.731  12.246  0.00  0.00    +0.000 A 
ATOM      7  C   UNL     1      46.849   6.960  12.646  0.00  0.00    +0.000 A 
BRANCH   2   9
ATOM      8  C   UNL     1      49.707   8.799  11.654  0.00  0.00    +0.000 C 
ATOM      9  C   UNL     1      48.891   8.492  12.913  0.00  0.00    +0.000 C 
ATOM     10  C   UNL     1      49.082   9.509  14.007  0.00  0.00    +0.000 C 
ATOM     11  C   UNL     1      49.702   8.952  15.049  0.00  0.00    +0.000 C 
ATOM     12  N   UNL     1      50.025   7.638  14.860  0.00  0.00    +0.000 NA
ATOM     13  C   UNL     1      49.584   7.371  13.669  0.00  0.00    +0.000 C 
ENDBRANCH   2   9
ENDBRANCH   1   6
BRANCH   1  14
ATOM     14  C   UNL     1      43.929   5.224  11.070  0.00  0.00    +0.000 C 
BRANCH  14  15
ATOM     15  C   UNL     1      43.689   3.797  10.575  0.00  0.00    +0.000 C 
BRANCH  15  16
ATOM     16  C   UNL     1      44.678   3.426   9.509  0.00  0.00    +0.000 A 
ATOM     17  C   UNL     1      45.179   4.347   8.607  0.00  0.00    +0.000 A 
ATOM     18  N   UNL     1      46.025   4.041   7.605  0.00  0.00    +0.000 NA
ATOM     19  C   UNL     1      46.375   2.733   7.519  0.00  0.00    +0.000 A 
ATOM     20  N   UNL     1      45.952   1.752   8.338  0.00  0.00    +0.000 NA
ATOM     21  C   UNL     1      45.108   2.126   9.316  0.00  0.00    +0.000 A 
BRANCH  19  22
ATOM     22  C   UNL     1      47.307   2.359   6.388  0.00  0.00    +0.000 C 
ATOM     23  N   UNL     1      47.309   3.211   5.306  0.00  0.00    +0.000 N 
ATOM     24  O   UNL     1      48.029   1.365   6.392  0.00  0.00    +0.000 OA
ATOM     25  H   UNL     1      46.710   4.027   5.301  0.00  0.00    +0.000 HD
ATOM     26  H   UNL     1      47.909   3.005   4.520  0.00  0.00    +0.000 HD
ENDBRANCH  19  22
ENDBRANCH  15  16
ENDBRANCH  14  15
ENDBRANCH   1  14
TORSDOF 6
ENDMDL
MODEL 8
REMARK VINA RESULT:    -6.882      1.237      2.136
REMARK INTER + INTRA:         -10.390
REMARK INTER:                  -9.442
REMARK INTRA:                  -0.948
REMARK UNBOUND:                -1.094
REMARK  Name = 
REMARK  7 active torsions:
REMARK  status: ('A' for Active; 'I' for Inactive)
REMARK    1  A    between atoms: C_1  and  C_2
REMARK    2  A    between atoms: C_2  and  C_3
REMARK    3  A    between atoms: C_7  and  C_8
REMARK    4  A    between atoms: C_8  and  C_9
REMARK    5  A    between atoms: C_9  and  C_10
REMARK    6  A    between atoms: C_10  and  C_11
REMARK    7  A    between atoms: C_14  and  C_15
REMARK                            x       y       z     vdW  Elec       q    Type
REMARK                         _______ _______ _______ _____ _____    ______ ____
ROOT
ATOM      1  C   UNL     1      45.602   4.003  12.945  0.00  0.00    +0.000 C 
ENDROOT
BRANCH   1   6
ATOM      2  C   UNL     1      48.175   6.781  13.481  0.00  0.00    +0.000 A 
ATOM      3  C   UNL     1      48.504   6.563  14.831  0.00  0.00    +0.000 A 
ATOM      4  C   UNL     1      47.947   5.501  15.547  0.00  0.00    +0.000 A 
ATOM      5  C   UNL     1      47.036   4.645  14.932  0.00  0.00    +0.000 A 
ATOM      6  C   UNL     1      46.688   4.835  13.592  0.00  0.00    +0.000 A 
ATOM      7  C   UNL     1      47.280   5.885  12.872  0.00  0.00    +0.000 A 
BRANCH   2   9
ATOM      8  C   UNL     1      50.011   7.631  11.964  0.00  0.00    +0.000 C 
ATOM      9  C   UNL     1      48.745   7.989  12.748  0.00  0.00    +0.000 C 
ATOM     10  C   UNL     1      47.716   8.709  11.918  0.00  0.00    +0.000 C 
ATOM     11  C   UNL     1      47.569   9.961  12.354  0.00  0.00    +0.000 C 
ATOM     12  N   UNL     1      48.385  10.280  13.401  0.00  0.00    +0.000 NA
ATOM     13  C   UNL     1      49.052   9.190  13.627  0.00  0.00    +0.000 C 
ENDBRANCH   2   9
ENDBRANCH   1   6
BRANCH   1  14
ATOM     14  C   UNL     1      44.957   4.797  11.804  0.00  0.00    +0.000 C 
BRANCH  14  15
ATOM     15  C   UNL     1      44.136   3.925  10.852  0.00  0.00    +0.000 C 
BRANCH  15  16
ATOM     16  C   UNL     1      44.912   3.619   9.603  0.00  0.00    +0.000 A 
ATOM     17  C   UNL     1      45.181   2.326   9.194  0.00  0.00    +0.000 A 
ATOM     18  N   UNL     1      45.918   2.014   8.111  0.00  0.00    +0.000 NA
ATOM     19  C   UNL     1      46.404   3.071   7.414  0.00  0.00    +0.000 A 
ATOM     20  N   UNL     1      46.207   4.368   7.717  0.00  0.00    +0.000 NA
ATOM     21  C   UNL     1      45.463   4.610   8.812  0.00  0.00    +0.000 A 
BRANCH  19  22
ATOM     22  C   UNL     1      47.254   2.748   6.205  0.00  0.00    +0.000 C 
ATOM     23  N   UNL     1      48.579   2.477   6.460  0.00  0.00    +0.000 N 
ATOM     24  O   UNL     1      46.829   2.723   5.053  0.00  0.00    +0.000 OA
ATOM     25  H   UNL     1      48.930   2.503   7.409  0.00  0.00    +0.000 HD
ATOM     26  H   UNL     1      49.193   2.260   5.687  0.00  0.00    +0.000 HD
ENDBRANCH  19  22
ENDBRANCH  15  16
ENDBRANCH  14  15
ENDBRANCH   1  14
TORSDOF 6
ENDMDL
MODEL 9
REMARK VINA RESULT:    -6.710      3.868      7.395
REMARK INTER + INTRA:         -10.158
REMARK INTER:                  -8.817
REMARK INTRA:                  -1.341
REMARK UNBOUND:                -1.094
REMARK  Name = 
REMARK  7 active torsions:
REMARK  status: ('A' for Active; 'I' for Inactive)
REMARK    1  A    between atoms: C_1  and  C_2
REMARK    2  A    between atoms: C_2  and  C_3
REMARK    3  A    between atoms: C_7  and  C_8
REMARK    4  A    between atoms: C_8  and  C_9
REMARK    5  A    between atoms: C_9  and  C_10
REMARK    6  A    between atoms: C_10  and  C_11
REMARK    7  A    between atoms: C_14  and  C_15
REMARK                            x       y       z     vdW  Elec       q    Type
REMARK                         _______ _______ _______ _____ _____    ______ ____
ROOT
ATOM      1  C   UNL     1      48.681   8.146  11.738  0.00  0.00    +0.000 C 
ENDROOT
BRANCH   1   6
ATOM      2  C   UNL     1      45.443   6.173  11.247  0.00  0.00    +0.000 A 
ATOM      3  C   UNL     1      44.545   6.977  11.972  0.00  0.00    +0.000 A 
ATOM      4  C   UNL     1      44.963   8.169  12.567  0.00  0.00    +0.000 A 
ATOM      5  C   UNL     1      46.292   8.574  12.462  0.00  0.00    +0.000 A 
ATOM      6  C   UNL     1      47.209   7.797  11.750  0.00  0.00    +0.000 A 
ATOM      7  C   UNL     1      46.770   6.617  11.127  0.00  0.00    +0.000 A 
BRANCH   2   9
ATOM      8  C   UNL     1      45.497   4.624   9.249  0.00  0.00    +0.000 C 
ATOM      9  C   UNL     1      44.973   4.843  10.671  0.00  0.00    +0.000 C 
ATOM     10  C   UNL     1      45.242   3.680  11.588  0.00  0.00    +0.000 C 
ATOM     11  C   UNL     1      44.094   3.099  11.941  0.00  0.00    +0.000 C 
ATOM     12  N   UNL     1      42.989   3.671  11.377  0.00  0.00    +0.000 NA
ATOM     13  C   UNL     1      43.467   4.642  10.660  0.00  0.00    +0.000 C 
ENDBRANCH   2   9
ENDBRANCH   1   6
BRANCH   1  14
ATOM     14  C   UNL     1      49.440   7.208  12.683  0.00  0.00    +0.000 C 
BRANCH  14  15
ATOM     15  C   UNL     1      49.404   7.663  14.143  0.00  0.00    +0.000 C 
BRANCH  15  16
ATOM     16  C   UNL     1      48.919   6.558  15.036  0.00  0.00    +0.000 A 
ATOM     17  C   UNL     1      47.930   5.671  14.652  0.00  0.00    +0.000 A 
ATOM     18  N   UNL     1      47.434   4.703  15.445  0.00  0.00    +0.000 NA
ATOM     19  C   UNL     1      47.969   4.638  16.689  0.00  0.00    +0.000 A 
ATOM     20  N   UNL     1      48.933   5.445  17.171  0.00  0.00    +0.000 NA
ATOM     21  C   UNL     1      49.384   6.391  16.328  0.00  0.00    +0.000 A 
BRANCH  19  22
ATOM     22  C   UNL     1      47.412   3.573  17.608  0.00  0.00    +0.000 C 
ATOM     23  N   UNL     1      48.066   3.417  18.809  0.00  0.00    +0.000 N 
ATOM     24  O   UNL     1      46.444   2.868  17.335  0.00  0.00    +0.000 OA
ATOM     25  H   UNL     1      48.868   3.995  19.031  0.00  0.00    +0.000 HD
ATOM     26  H   UNL     1      47.739   2.716  19.458  0.00  0.00    +0.000 HD
ENDBRANCH  19  22
ENDBRANCH  15  16
ENDBRANCH  14  15
ENDBRANCH   1  14
TORSDOF 6
ENDMDL
