MODEL 1
REMARK VINA RESULT:    -8.516      0.000      0.000
REMARK INTER + INTRA:         -10.459
REMARK INTER:                 -10.010
REMARK INTRA:                  -0.449
REMARK UNBOUND:                -0.449
REMARK  Name = 
REMARK  3 active torsions:
REMARK  status: ('A' for Active; 'I' for Inactive)
REMARK    1  A    between atoms: C_2  and  C_4
REMARK    2  A    between atoms: N_8  and  C_9
REMARK    3  A    between atoms: C_9  and  C_10
REMARK                            x       y       z     vdW  Elec       q    Type
REMARK                         _______ _______ _______ _____ _____    ______ ____
ROOT
ATOM      1  C   UNL     1      46.433   2.342   7.674  0.00  0.00    +0.000 A 
ATOM      2  C   UNL     1      45.648   1.829   8.701  0.00  0.00    +0.000 A 
ATOM      3  C   UNL     1      44.819   2.694   9.413  0.00  0.00    +0.000 A 
ATOM      4  C   UNL     1      44.800   4.050   9.102  0.00  0.00    +0.000 A 
ATOM      5  N   UNL     1      43.941   4.947   9.690  0.00  0.00    +0.000 N 
ATOM      6  N   UNL     1      45.576   4.559   8.125  0.00  0.00    +0.000 NA
ATOM      7  C   UNL     1      46.380   3.705   7.439  0.00  0.00    +0.000 A 
ATOM      8  H   UNL     1      44.131   5.884   9.350  0.00  0.00    +0.000 HD
ENDROOT
BRANCH   1  10
ATOM      9  N   UNL     1      48.407   2.093   6.285  0.00  0.00    +0.000 N 
ATOM     10  C   UNL     1      47.304   1.497   6.832  0.00  0.00    +0.000 C 
ATOM     11  O   UNL     1      47.072   0.309   6.660  0.00  0.00    +0.000 OA
ATOM     12  H   UNL     1      49.056   1.480   5.809  0.00  0.00    +0.000 HD
ATOM     13  H   UNL     1      48.766   2.977   6.619  0.00  0.00    +0.000 HD
ENDBRANCH   1  10
BRANCH   5  14
ATOM     14  C   UNL     1      43.536   4.847  11.076  0.00  0.00    +0.000 C 
BRANCH  14  15
ATOM     15  C   UNL     1      44.703   5.132  11.999  0.00  0.00    +0.000 A 
ATOM     16  C   UNL     1      45.193   6.443  12.120  0.00  0.00    +0.000 A 
ATOM     17  C   UNL     1      46.298   6.722  12.932  0.00  0.00    +0.000 A 
ATOM     18  C   UNL     1      46.933   5.693  13.624  0.00  0.00    +0.000 A 
ATOM     19  C   UNL     1      46.461   4.394  13.499  0.00  0.00    +0.000 A 
ATOM     20  F   UNL     1      47.072   3.401  14.158  0.00  0.00    +0.000 F 
ATOM     21  C   UNL     1      45.363   4.106  12.695  0.00  0.00    +0.000 A 
ENDBRANCH  14  15
ENDBRANCH   5  14
TORSDOF 3
ENDMDL
MODEL 2
REMARK VINA RESULT:    -8.048      3.613      6.241
REMARK INTER + INTRA:          -9.908
REMARK INTER:                  -9.392
REMARK INTRA:                  -0.516
REMARK UNBOUND:                -0.449
REMARK  Name = 
REMARK  3 active torsions:
REMARK  status: ('A' for Active; 'I' for Inactive)
REMARK    1  A    between atoms: C_2  and  C_4
REMARK    2  A    between atoms: N_8  and  C_9
REMARK    3  A    between atoms: C_9  and  C_10
REMARK                            x       y       z     vdW  Elec       q    Type
REMARK                         _______ _______ _______ _____ _____    ______ ____
ROOT
ATOM      1  C   UNL     1      46.915   5.342  13.623  0.00  0.00    +0.000 A 
ATOM      2  C   UNL     1      46.108   5.970  12.681  0.00  0.00    +0.000 A 
ATOM      3  C   UNL     1      45.266   5.193  11.887  0.00  0.00    +0.000 A 
ATOM      4  C   UNL     1      45.257   3.808  12.033  0.00  0.00    +0.000 A 
ATOM      5  N   UNL     1      44.389   2.984  11.359  0.00  0.00    +0.000 N 
ATOM      6  N   UNL     1      46.055   3.190  12.926  0.00  0.00    +0.000 NA
ATOM      7  C   UNL     1      46.870   3.959  13.693  0.00  0.00    +0.000 A 
ATOM      8  H   UNL     1      44.589   2.015  11.580  0.00  0.00    +0.000 HD
ENDROOT
BRANCH   1  10
ATOM      9  N   UNL     1      47.839   7.444  14.405  0.00  0.00    +0.000 N 
ATOM     10  C   UNL     1      47.801   6.084  14.542  0.00  0.00    +0.000 C 
ATOM     11  O   UNL     1      48.445   5.514  15.411  0.00  0.00    +0.000 OA
ATOM     12  H   UNL     1      48.356   7.950  15.112  0.00  0.00    +0.000 HD
ATOM     13  H   UNL     1      47.134   7.956  13.893  0.00  0.00    +0.000 HD
ENDBRANCH   1  10
BRANCH   5  14
ATOM     14  C   UNL     1      43.956   3.249  10.003  0.00  0.00    +0.000 C 
BRANCH  14  15
ATOM     15  C   UNL     1      45.057   2.927   9.014  0.00  0.00    +0.000 A 
ATOM     16  C   UNL     1      45.585   3.945   8.202  0.00  0.00    +0.000 A 
ATOM     17  C   UNL     1      46.571   3.663   7.251  0.00  0.00    +0.000 A 
ATOM     18  C   UNL     1      47.034   2.358   7.092  0.00  0.00    +0.000 A 
ATOM     19  C   UNL     1      46.507   1.347   7.883  0.00  0.00    +0.000 A 
ATOM     20  F   UNL     1      46.946   0.091   7.729  0.00  0.00    +0.000 F 
ATOM     21  C   UNL     1      45.527   1.617   8.832  0.00  0.00    +0.000 A 
ENDBRANCH  14  15
ENDBRANCH   5  14
TORSDOF 3
ENDMDL
MODEL 3
REMARK VINA RESULT:    -7.587      3.735      6.448
REMARK INTER + INTRA:          -9.367
REMARK INTER:                  -8.949
REMARK INTRA:                  -0.417
REMARK UNBOUND:                -0.449
REMARK  Name = 
REMARK  3 active torsions:
REMARK  status: ('A' for Active; 'I' for Inactive)
REMARK    1  A    between atoms: C_2  and  C_4
REMARK    2  A    between atoms: N_8  and  C_9
REMARK    3  A    between atoms: C_9  and  C_10
REMARK                            x       y       z     vdW  Elec       q    Type
REMARK                         _______ _______ _______ _____ _____    ______ ____
ROOT
ATOM      1  C   UNL     1      45.499   7.337  12.375  0.00  0.00    +0.000 A 
ATOM      2  C   UNL     1      44.429   7.118  11.514  0.00  0.00    +0.000 A 
ATOM      3  C   UNL     1      44.166   5.819  11.081  0.00  0.00    +0.000 A 
ATOM      4  C   UNL     1      44.980   4.770  11.498  0.00  0.00    +0.000 A 
ATOM      5  N   UNL     1      44.729   3.453  11.195  0.00  0.00    +0.000 N 
ATOM      6  N   UNL     1      46.033   4.978  12.312  0.00  0.00    +0.000 NA
ATOM      7  C   UNL     1      46.278   6.248  12.726  0.00  0.00    +0.000 A 
ATOM      8  H   UNL     1      45.472   2.866  11.559  0.00  0.00    +0.000 HD
ENDROOT
BRANCH   1  10
ATOM      9  N   UNL     1      46.672   8.705  13.999  0.00  0.00    +0.000 N 
ATOM     10  C   UNL     1      45.824   8.668  12.926  0.00  0.00    +0.000 C 
ATOM     11  O   UNL     1      45.386   9.693  12.425  0.00  0.00    +0.000 OA
ATOM     12  H   UNL     1      46.979   9.623  14.293  0.00  0.00    +0.000 HD
ATOM     13  H   UNL     1      47.251   7.919  14.259  0.00  0.00    +0.000 HD
ENDBRANCH   1  10
BRANCH   5  14
ATOM     14  C   UNL     1      44.154   3.039   9.933  0.00  0.00    +0.000 C 
BRANCH  14  15
ATOM     15  C   UNL     1      45.237   2.799   8.902  0.00  0.00    +0.000 A 
ATOM     16  C   UNL     1      45.702   3.866   8.115  0.00  0.00    +0.000 A 
ATOM     17  C   UNL     1      46.669   3.658   7.126  0.00  0.00    +0.000 A 
ATOM     18  C   UNL     1      47.177   2.379   6.904  0.00  0.00    +0.000 A 
ATOM     19  C   UNL     1      46.713   1.319   7.671  0.00  0.00    +0.000 A 
ATOM     20  F   UNL     1      47.194   0.088   7.457  0.00  0.00    +0.000 F 
ATOM     21  C   UNL     1      45.752   1.515   8.656  0.00  0.00    +0.000 A 
ENDBRANCH  14  15
ENDBRANCH   5  14
TORSDOF 3
ENDMDL
MODEL 4
REMARK VINA RESULT:    -6.571      3.825      6.515
REMARK INTER + INTRA:          -8.173
REMARK INTER:                  -7.778
REMARK INTRA:                  -0.395
REMARK UNBOUND:                -0.449
REMARK  Name = 
REMARK  3 active torsions:
REMARK  status: ('A' for Active; 'I' for Inactive)
REMARK    1  A    between atoms: C_2  and  C_4
REMARK    2  A    between atoms: N_8  and  C_9
REMARK    3  A    between atoms: C_9  and  C_10
REMARK                            x       y       z     vdW  Elec       q    Type
REMARK                         _______ _______ _______ _____ _____    ______ ____
ROOT
ATOM      1  C   UNL     1      46.960   5.189  14.162  0.00  0.00    +0.000 A 
ATOM      2  C   UNL     1      46.695   4.007  13.480  0.00  0.00    +0.000 A 
ATOM      3  C   UNL     1      46.043   4.069  12.248  0.00  0.00    +0.000 A 
ATOM      4  C   UNL     1      45.655   5.301  11.730  0.00  0.00    +0.000 A 
ATOM      5  N   UNL     1      45.098   5.454  10.483  0.00  0.00    +0.000 N 
ATOM      6  N   UNL     1      45.886   6.449  12.397  0.00  0.00    +0.000 NA
ATOM      7  C   UNL     1      46.521   6.374  13.595  0.00  0.00    +0.000 A 
ATOM      8  H   UNL     1      44.850   6.425  10.331  0.00  0.00    +0.000 HD
ENDROOT
BRANCH   1  10
ATOM      9  N   UNL     1      47.069   4.661  16.527  0.00  0.00    +0.000 N 
ATOM     10  C   UNL     1      47.687   5.227  15.446  0.00  0.00    +0.000 C 
ATOM     11  O   UNL     1      48.807   5.711  15.534  0.00  0.00    +0.000 OA
ATOM     12  H   UNL     1      47.623   4.589  17.371  0.00  0.00    +0.000 HD
ATOM     13  H   UNL     1      46.285   4.030  16.433  0.00  0.00    +0.000 HD
ENDBRANCH   1  10
BRANCH   5  14
ATOM     14  C   UNL     1      44.206   4.473   9.902  0.00  0.00    +0.000 C 
BRANCH  14  15
ATOM     15  C   UNL     1      44.953   3.563   8.949  0.00  0.00    +0.000 A 
ATOM     16  C   UNL     1      45.102   2.201   9.257  0.00  0.00    +0.000 A 
ATOM     17  C   UNL     1      45.826   1.351   8.414  0.00  0.00    +0.000 A 
ATOM     18  C   UNL     1      46.421   1.855   7.259  0.00  0.00    +0.000 A 
ATOM     19  C   UNL     1      46.288   3.203   6.956  0.00  0.00    +0.000 A 
ATOM     20  F   UNL     1      46.862   3.692   5.850  0.00  0.00    +0.000 F 
ATOM     21  C   UNL     1      45.569   4.055   7.787  0.00  0.00    +0.000 A 
ENDBRANCH  14  15
ENDBRANCH   5  14
TORSDOF 3
ENDMDL
MODEL 5
REMARK VINA RESULT:    -5.914      5.789      8.329
REMARK INTER + INTRA:          -7.400
REMARK INTER:                  -7.149
REMARK INTRA:                  -0.251
REMARK UNBOUND:                -0.449
REMARK  Name = 
REMARK  3 active torsions:
REMARK  status: ('A' for Active; 'I' for Inactive)
REMARK    1  A    between atoms: C_2  and  C_4
REMARK    2  A    between atoms: N_8  and  C_9
REMARK    3  A    between atoms: C_9  and  C_10
REMARK                            x       y       z     vdW  Elec       q    Type
REMARK                         _______ _______ _______ _____ _____    ______ ____
ROOT
ATOM      1  C   UNL     1      48.661   4.456  18.344  0.00  0.00    +0.000 A 
ATOM      2  C   UNL     1      48.964   5.348  17.322  0.00  0.00    +0.000 A 
ATOM      3  C   UNL     1      48.225   5.298  16.141  0.00  0.00    +0.000 A 
ATOM      4  C   UNL     1      47.213   4.352  15.994  0.00  0.00    +0.000 A 
ATOM      5  N   UNL     1      46.379   4.302  14.904  0.00  0.00    +0.000 N 
ATOM      6  N   UNL     1      46.931   3.468  16.971  0.00  0.00    +0.000 NA
ATOM      7  C   UNL     1      47.659   3.527  18.116  0.00  0.00    +0.000 A 
ATOM      8  H   UNL     1      45.751   3.510  14.984  0.00  0.00    +0.000 HD
ENDROOT
BRANCH   1  10
ATOM      9  N   UNL     1      48.640   4.040  20.735  0.00  0.00    +0.000 N 
ATOM     10  C   UNL     1      49.354   4.466  19.648  0.00  0.00    +0.000 C 
ATOM     11  O   UNL     1      50.524   4.804  19.749  0.00  0.00    +0.000 OA
ATOM     12  H   UNL     1      49.158   3.941  21.598  0.00  0.00    +0.000 HD
ATOM     13  H   UNL     1      47.783   3.512  20.646  0.00  0.00    +0.000 HD
ENDBRANCH   1  10
BRANCH   5  14
ATOM     14  C   UNL     1      46.824   4.626  13.565  0.00  0.00    +0.000 C 
BRANCH  14  15
ATOM     15  C   UNL     1      45.672   4.561  12.585  0.00  0.00    +0.000 A 
ATOM     16  C   UNL     1      45.301   5.710  11.866  0.00  0.00    +0.000 A 
ATOM     17  C   UNL     1      44.212   5.686  10.989  0.00  0.00    +0.000 A 
ATOM     18  C   UNL     1      43.474   4.516  10.826  0.00  0.00    +0.000 A 
ATOM     19  C   UNL     1      43.828   3.381  11.542  0.00  0.00    +0.000 A 
ATOM     20  F   UNL     1      43.117   2.256  11.393  0.00  0.00    +0.000 F 
ATOM     21  C   UNL     1      44.909   3.395  12.417  0.00  0.00    +0.000 A 
ENDBRANCH  14  15
ENDBRANCH   5  14
TORSDOF 3
ENDMDL
MODEL 6
REMARK VINA RESULT:    -5.615      3.518      5.318
REMARK INTER + INTRA:          -7.049
REMARK INTER:                  -6.791
REMARK INTRA:                  -0.258
REMARK UNBOUND:                -0.449
REMARK  Name = 
REMARK  3 active torsions:
REMARK  status: ('A' for Active; 'I' for Inactive)
REMARK    1  A    between atoms: C_2  and  C_4
REMARK    2  A    between atoms: N_8  and  C_9
REMARK    3  A    between atoms: C_9  and  C_10
REMARK                            x       y       z     vdW  Elec       q    Type
REMARK                         _______ _______ _______ _____ _____    ______ ____
ROOT
ATOM      1  C   UNL     1      44.811   4.727  11.527  0.00  0.00    +0.000 A 
ATOM      2  C   UNL     1      45.557   3.975  12.428  0.00  0.00    +0.000 A 
ATOM      3  C   UNL     1      46.410   4.633  13.314  0.00  0.00    +0.000 A 
ATOM      4  C   UNL     1      46.516   6.020  13.274  0.00  0.00    +0.000 A 
ATOM      5  N   UNL     1      47.257   6.747  14.174  0.00  0.00    +0.000 N 
ATOM      6  N   UNL     1      45.816   6.753  12.386  0.00  0.00    +0.000 NA
ATOM      7  C   UNL     1      44.989   6.100  11.530  0.00  0.00    +0.000 A 
ATOM      8  H   UNL     1      47.231   7.731  13.931  0.00  0.00    +0.000 HD
ENDROOT
BRANCH   1  10
ATOM      9  N   UNL     1      43.883   4.565   9.292  0.00  0.00    +0.000 N 
ATOM     10  C   UNL     1      43.846   4.124  10.586  0.00  0.00    +0.000 C 
ATOM     11  O   UNL     1      43.073   3.245  10.937  0.00  0.00    +0.000 OA
ATOM     12  H   UNL     1      43.300   4.065   8.634  0.00  0.00    +0.000 HD
ATOM     13  H   UNL     1      44.668   5.079   8.917  0.00  0.00    +0.000 HD
ENDBRANCH   1  10
BRANCH   5  14
ATOM     14  C   UNL     1      48.504   6.263  14.728  0.00  0.00    +0.000 C 
BRANCH  14  15
ATOM     15  C   UNL     1      48.305   5.759  16.142  0.00  0.00    +0.000 A 
ATOM     16  C   UNL     1      48.676   6.566  17.230  0.00  0.00    +0.000 A 
ATOM     17  C   UNL     1      48.543   6.103  18.544  0.00  0.00    +0.000 A 
ATOM     18  C   UNL     1      48.048   4.823  18.785  0.00  0.00    +0.000 A 
ATOM     19  C   UNL     1      47.691   4.016  17.714  0.00  0.00    +0.000 A 
ATOM     20  F   UNL     1      47.221   2.784  17.942  0.00  0.00    +0.000 F 
ATOM     21  C   UNL     1      47.820   4.468  16.405  0.00  0.00    +0.000 A 
ENDBRANCH  14  15
ENDBRANCH   5  14
TORSDOF 3
ENDMDL
MODEL 7
REMARK VINA RESULT:    -5.607      4.469      7.074
REMARK INTER + INTRA:          -7.040
REMARK INTER:                  -6.713
REMARK INTRA:                  -0.326
REMARK UNBOUND:                -0.449
REMARK  Name = 
REMARK  3 active torsions:
REMARK  status: ('A' for Active; 'I' for Inactive)
REMARK    1  A    between atoms: C_2  and  C_4
REMARK    2  A    between atoms: N_8  and  C_9
REMARK    3  A    between atoms: C_9  and  C_10
REMARK                            x       y       z     vdW  Elec       q    Type
REMARK                         _______ _______ _______ _____ _____    ______ ____
ROOT
ATOM      1  C   UNL     1      48.509   6.316  15.089  0.00  0.00    +0.000 A 
ATOM      2  C   UNL     1      48.357   7.231  14.054  0.00  0.00    +0.000 A 
ATOM      3  C   UNL     1      47.358   7.017  13.104  0.00  0.00    +0.000 A 
ATOM      4  C   UNL     1      46.546   5.891  13.193  0.00  0.00    +0.000 A 
ATOM      5  N   UNL     1      45.481   5.660  12.356  0.00  0.00    +0.000 N 
ATOM      6  N   UNL     1      46.704   4.986  14.179  0.00  0.00    +0.000 NA
ATOM      7  C   UNL     1      47.681   5.206  15.097  0.00  0.00    +0.000 A 
ATOM      8  H   UNL     1      45.060   4.762  12.569  0.00  0.00    +0.000 HD
ENDROOT
BRANCH   1  10
ATOM      9  N   UNL     1      49.937   7.757  16.419  0.00  0.00    +0.000 N 
ATOM     10  C   UNL     1      49.504   6.484  16.167  0.00  0.00    +0.000 C 
ATOM     11  O   UNL     1      49.897   5.535  16.830  0.00  0.00    +0.000 OA
ATOM     12  H   UNL     1      50.527   7.874  17.233  0.00  0.00    +0.000 HD
ATOM     13  H   UNL     1      49.445   8.573  16.083  0.00  0.00    +0.000 HD
ENDBRANCH   1  10
BRANCH   5  14
ATOM     14  C   UNL     1      45.490   6.040  10.959  0.00  0.00    +0.000 C 
BRANCH  14  15
ATOM     15  C   UNL     1      45.223   4.841  10.074  0.00  0.00    +0.000 A 
ATOM     16  C   UNL     1      44.528   3.733  10.589  0.00  0.00    +0.000 A 
ATOM     17  C   UNL     1      44.310   2.597   9.803  0.00  0.00    +0.000 A 
ATOM     18  C   UNL     1      44.792   2.549   8.496  0.00  0.00    +0.000 A 
ATOM     19  C   UNL     1      45.489   3.635   7.986  0.00  0.00    +0.000 A 
ATOM     20  F   UNL     1      45.959   3.590   6.733  0.00  0.00    +0.000 F 
ATOM     21  C   UNL     1      45.712   4.769   8.759  0.00  0.00    +0.000 A 
ENDBRANCH  14  15
ENDBRANCH   5  14
TORSDOF 3
ENDMDL
