MODEL 1
REMARK VINA RESULT:    -7.910      0.000      0.000
REMARK INTER + INTRA:         -10.081
REMARK INTER:                  -9.760
REMARK INTRA:                  -0.321
REMARK UNBOUND:                -0.321
REMARK  Name = 
REMARK  4 active torsions:
REMARK  status: ('A' for Active; 'I' for Inactive)
REMARK    1  A    between atoms: C_2  and  C_4
REMARK    2  A    between atoms: C_8  and  C_9
REMARK    3  A    between atoms: C_9  and  C_10
REMARK    4  A    between atoms: C_10  and  C_11
REMARK                            x       y       z     vdW  Elec       q    Type
REMARK                         _______ _______ _______ _____ _____    ______ ____
ROOT
ATOM      1  C   UNL     1      44.179   4.753   9.345  0.00  0.00    +0.000 C 
ENDROOT
BRANCH   1   6
ATOM      2  C   UNL     1      46.378   2.544   7.226  0.00  0.00    +0.000 A 
ATOM      3  C   UNL     1      46.231   1.331   7.893  0.00  0.00    +0.000 A 
ATOM      4  C   UNL     1      45.324   1.280   8.935  0.00  0.00    +0.000 A 
ATOM      5  N   UNL     1      44.601   2.339   9.358  0.00  0.00    +0.000 NA
ATOM      6  C   UNL     1      44.777   3.522   8.716  0.00  0.00    +0.000 A 
ATOM      7  C   UNL     1      45.633   3.651   7.630  0.00  0.00    +0.000 A 
BRANCH   2   9
ATOM      8  N   UNL     1      48.697   2.558   6.463  0.00  0.00    +0.000 N 
ATOM      9  C   UNL     1      47.383   2.748   6.153  0.00  0.00    +0.000 C 
ATOM     10  O   UNL     1      47.047   3.059   5.017  0.00  0.00    +0.000 OA
ATOM     11  H   UNL     1      49.351   2.619   5.691  0.00  0.00    +0.000 HD
ATOM     12  H   UNL     1      49.006   2.087   7.299  0.00  0.00    +0.000 HD
ENDBRANCH   2   9
ENDBRANCH   1   6
BRANCH   1  13
ATOM     13  C   UNL     1      44.012   4.803  10.861  0.00  0.00    +0.000 C 
ATOM     14  C   UNL     1      43.081   3.825  11.564  0.00  0.00    +0.000 C 
ATOM     15  C   UNL     1      42.726   5.284  11.521  0.00  0.00    +0.000 C 
BRANCH  13  16
ATOM     16  C   UNL     1      45.326   5.207  11.536  0.00  0.00    +0.000 A 
ATOM     17  C   UNL     1      46.102   6.270  11.048  0.00  0.00    +0.000 A 
ATOM     18  C   UNL     1      47.208   6.744  11.758  0.00  0.00    +0.000 A 
ATOM     19  C   UNL     1      47.560   6.165  12.978  0.00  0.00    +0.000 A 
ATOM     20 CL   UNL     1      48.895   6.846  13.838  0.00  0.00    +0.000 Cl
ATOM     21  C   UNL     1      46.821   5.088  13.471  0.00  0.00    +0.000 A 
ATOM     22 CL   UNL     1      47.180   4.327  14.981  0.00  0.00    +0.000 Cl
ATOM     23  C   UNL     1      45.719   4.614  12.748  0.00  0.00    +0.000 A 
ENDBRANCH  13  16
ENDBRANCH   1  13
TORSDOF 4
ENDMDL
MODEL 2
REMARK VINA RESULT:    -7.610      4.122      6.258
REMARK INTER + INTRA:          -9.711
REMARK INTER:                  -9.615
REMARK INTRA:                  -0.096
REMARK UNBOUND:                -0.321
REMARK  Name = 
REMARK  4 active torsions:
REMARK  status: ('A' for Active; 'I' for Inactive)
REMARK    1  A    between atoms: C_2  and  C_4
REMARK    2  A    between atoms: C_8  and  C_9
REMARK    3  A    between atoms: C_9  and  C_10
REMARK    4  A    between atoms: C_10  and  C_11
REMARK                            x       y       z     vdW  Elec       q    Type
REMARK                         _______ _______ _______ _____ _____    ______ ____
ROOT
ATOM      1  C   UNL     1      45.660   3.987  11.931  0.00  0.00    +0.000 C 
ENDROOT
BRANCH   1   6
ATOM      2  C   UNL     1      45.414   7.749  11.936  0.00  0.00    +0.000 A 
ATOM      3  C   UNL     1      46.395   8.062  12.872  0.00  0.00    +0.000 A 
ATOM      4  C   UNL     1      47.165   7.025  13.365  0.00  0.00    +0.000 A 
ATOM      5  N   UNL     1      46.999   5.731  13.013  0.00  0.00    +0.000 NA
ATOM      6  C   UNL     1      46.020   5.438  12.122  0.00  0.00    +0.000 A 
ATOM      7  C   UNL     1      45.231   6.424  11.543  0.00  0.00    +0.000 A 
BRANCH   2   9
ATOM      8  N   UNL     1      43.276   8.322  10.907  0.00  0.00    +0.000 N 
ATOM      9  C   UNL     1      44.468   8.760  11.403  0.00  0.00    +0.000 C 
ATOM     10  O   UNL     1      44.737   9.955  11.422  0.00  0.00    +0.000 OA
ATOM     11  H   UNL     1      42.616   9.041  10.631  0.00  0.00    +0.000 HD
ATOM     12  H   UNL     1      42.913   7.397  11.075  0.00  0.00    +0.000 HD
ENDBRANCH   2   9
ENDBRANCH   1   6
BRANCH   1  13
ATOM     13  C   UNL     1      44.547   3.624  10.954  0.00  0.00    +0.000 C 
ATOM     14  C   UNL     1      43.178   4.280  11.070  0.00  0.00    +0.000 C 
ATOM     15  C   UNL     1      43.325   2.818  11.377  0.00  0.00    +0.000 C 
BRANCH  13  16
ATOM     16  C   UNL     1      45.122   3.324   9.566  0.00  0.00    +0.000 A 
ATOM     17  C   UNL     1      45.431   4.355   8.665  0.00  0.00    +0.000 A 
ATOM     18  C   UNL     1      46.108   4.094   7.471  0.00  0.00    +0.000 A 
ATOM     19  C   UNL     1      46.494   2.791   7.153  0.00  0.00    +0.000 A 
ATOM     20 CL   UNL     1      47.389   2.548   5.697  0.00  0.00    +0.000 Cl
ATOM     21  C   UNL     1      46.172   1.744   8.019  0.00  0.00    +0.000 A 
ATOM     22 CL   UNL     1      46.629   0.106   7.709  0.00  0.00    +0.000 Cl
ATOM     23  C   UNL     1      45.486   2.015   9.210  0.00  0.00    +0.000 A 
ENDBRANCH  13  16
ENDBRANCH   1  13
TORSDOF 4
ENDMDL
MODEL 3
REMARK VINA RESULT:    -7.518      4.400      6.696
REMARK INTER + INTRA:          -9.597
REMARK INTER:                  -9.139
REMARK INTRA:                  -0.458
REMARK UNBOUND:                -0.321
REMARK  Name = 
REMARK  4 active torsions:
REMARK  status: ('A' for Active; 'I' for Inactive)
REMARK    1  A    between atoms: C_2  and  C_4
REMARK    2  A    between atoms: C_8  and  C_9
REMARK    3  A    between atoms: C_9  and  C_10
REMARK    4  A    between atoms: C_10  and  C_11
REMARK                            x       y       z     vdW  Elec       q    Type
REMARK                         _______ _______ _______ _____ _____    ______ ____
ROOT
ATOM      1  C   UNL     1      45.625   3.314  12.163  0.00  0.00    +0.000 C 
ENDROOT
BRANCH   1   6
ATOM      2  C   UNL     1      47.471   5.434  14.675  0.00  0.00    +0.000 A 
ATOM      3  C   UNL     1      47.774   6.544  13.890  0.00  0.00    +0.000 A 
ATOM      4  C   UNL     1      47.253   6.585  12.610  0.00  0.00    +0.000 A 
ATOM      5  N   UNL     1      46.497   5.603  12.073  0.00  0.00    +0.000 NA
ATOM      6  C   UNL     1      46.235   4.515  12.839  0.00  0.00    +0.000 A 
ATOM      7  C   UNL     1      46.681   4.412  14.151  0.00  0.00    +0.000 A 
BRANCH   2   9
ATOM      8  N   UNL     1      47.204   4.835  17.026  0.00  0.00    +0.000 N 
ATOM      9  C   UNL     1      48.044   5.234  16.029  0.00  0.00    +0.000 C 
ATOM     10  O   UNL     1      49.237   5.404  16.246  0.00  0.00    +0.000 OA
ATOM     11  H   UNL     1      47.638   4.623  17.917  0.00  0.00    +0.000 HD
ATOM     12  H   UNL     1      46.282   4.465  16.858  0.00  0.00    +0.000 HD
ENDBRANCH   2   9
ENDBRANCH   1   6
BRANCH   1  13
ATOM     13  C   UNL     1      44.526   3.528  11.127  0.00  0.00    +0.000 C 
ATOM     14  C   UNL     1      43.448   4.579  11.355  0.00  0.00    +0.000 C 
ATOM     15  C   UNL     1      43.080   3.124  11.381  0.00  0.00    +0.000 C 
BRANCH  13  16
ATOM     16  C   UNL     1      45.066   3.302   9.711  0.00  0.00    +0.000 A 
ATOM     17  C   UNL     1      45.304   4.375   8.839  0.00  0.00    +0.000 A 
ATOM     18  C   UNL     1      45.950   4.184   7.615  0.00  0.00    +0.000 A 
ATOM     19  C   UNL     1      46.378   2.910   7.238  0.00  0.00    +0.000 A 
ATOM     20 CL   UNL     1      47.233   2.755   5.746  0.00  0.00    +0.000 Cl
ATOM     21  C   UNL     1      46.127   1.821   8.076  0.00  0.00    +0.000 A 
ATOM     22 CL   UNL     1      46.640   0.216   7.692  0.00  0.00    +0.000 Cl
ATOM     23  C   UNL     1      45.471   2.022   9.297  0.00  0.00    +0.000 A 
ENDBRANCH  13  16
ENDBRANCH   1  13
TORSDOF 4
ENDMDL
MODEL 4
REMARK VINA RESULT:    -7.396      4.047      6.203
REMARK INTER + INTRA:          -9.447
REMARK INTER:                  -9.142
REMARK INTRA:                  -0.305
REMARK UNBOUND:                -0.321
REMARK  Name = 
REMARK  4 active torsions:
REMARK  status: ('A' for Active; 'I' for Inactive)
REMARK    1  A    between atoms: C_2  and  C_4
REMARK    2  A    between atoms: C_8  and  C_9
REMARK    3  A    between atoms: C_9  and  C_10
REMARK    4  A    between atoms: C_10  and  C_11
REMARK                            x       y       z     vdW  Elec       q    Type
REMARK                         _______ _______ _______ _____ _____    ______ ____
ROOT
ATOM      1  C   UNL     1      45.362   3.271  12.321  0.00  0.00    +0.000 C 
ENDROOT
BRANCH   1   6
ATOM      2  C   UNL     1      47.217   6.296  13.595  0.00  0.00    +0.000 A 
ATOM      3  C   UNL     1      47.626   5.830  14.842  0.00  0.00    +0.000 A 
ATOM      4  C   UNL     1      47.369   4.506  15.148  0.00  0.00    +0.000 A 
ATOM      5  N   UNL     1      46.723   3.655  14.322  0.00  0.00    +0.000 NA
ATOM      6  C   UNL     1      46.304   4.131  13.123  0.00  0.00    +0.000 A 
ATOM      7  C   UNL     1      46.560   5.434  12.717  0.00  0.00    +0.000 A 
BRANCH   2   9
ATOM      8  N   UNL     1      46.823   8.669  14.005  0.00  0.00    +0.000 N 
ATOM      9  C   UNL     1      47.355   7.716  13.189  0.00  0.00    +0.000 C 
ATOM     10  O   UNL     1      47.944   8.029  12.161  0.00  0.00    +0.000 OA
ATOM     11  H   UNL     1      47.008   9.632  13.747  0.00  0.00    +0.000 HD
ATOM     12  H   UNL     1      46.539   8.489  14.955  0.00  0.00    +0.000 HD
ENDBRANCH   2   9
ENDBRANCH   1   6
BRANCH   1  13
ATOM     13  C   UNL     1      44.502   3.923  11.242  0.00  0.00    +0.000 C 
ATOM     14  C   UNL     1      43.842   5.271  11.497  0.00  0.00    +0.000 C 
ATOM     15  C   UNL     1      42.989   4.041  11.370  0.00  0.00    +0.000 C 
BRANCH  13  16
ATOM     16  C   UNL     1      45.053   3.608   9.848  0.00  0.00    +0.000 A 
ATOM     17  C   UNL     1      45.432   4.629   8.964  0.00  0.00    +0.000 A 
ATOM     18  C   UNL     1      46.087   4.342   7.764  0.00  0.00    +0.000 A 
ATOM     19  C   UNL     1      46.381   3.020   7.423  0.00  0.00    +0.000 A 
ATOM     20 CL   UNL     1      47.255   2.740   5.960  0.00  0.00    +0.000 Cl
ATOM     21  C   UNL     1      45.988   1.984   8.273  0.00  0.00    +0.000 A 
ATOM     22 CL   UNL     1      46.329   0.324   7.934  0.00  0.00    +0.000 Cl
ATOM     23  C   UNL     1      45.324   2.282   9.470  0.00  0.00    +0.000 A 
ENDBRANCH  13  16
ENDBRANCH   1  13
TORSDOF 4
ENDMDL
MODEL 5
REMARK VINA RESULT:    -6.987      1.823      2.693
REMARK INTER + INTRA:          -8.942
REMARK INTER:                  -8.349
REMARK INTRA:                  -0.593
REMARK UNBOUND:                -0.321
REMARK  Name = 
REMARK  4 active torsions:
REMARK  status: ('A' for Active; 'I' for Inactive)
REMARK    1  A    between atoms: C_2  and  C_4
REMARK    2  A    between atoms: C_8  and  C_9
REMARK    3  A    between atoms: C_9  and  C_10
REMARK    4  A    between atoms: C_10  and  C_11
REMARK                            x       y       z     vdW  Elec       q    Type
REMARK                         _______ _______ _______ _____ _____    ______ ____
ROOT
ATOM      1  C   UNL     1      44.389   5.576  10.908  0.00  0.00    +0.000 C 
ENDROOT
BRANCH   1   6
ATOM      2  C   UNL     1      45.661   3.232   8.244  0.00  0.00    +0.000 A 
ATOM      3  C   UNL     1      45.085   2.037   8.668  0.00  0.00    +0.000 A 
ATOM      4  C   UNL     1      44.214   2.090   9.741  0.00  0.00    +0.000 A 
ATOM      5  N   UNL     1      43.917   3.223  10.414  0.00  0.00    +0.000 NA
ATOM      6  C   UNL     1      44.509   4.374  10.007  0.00  0.00    +0.000 A 
ATOM      7  C   UNL     1      45.360   4.419   8.911  0.00  0.00    +0.000 A 
BRANCH   2   9
ATOM      8  N   UNL     1      47.608   2.295   7.110  0.00  0.00    +0.000 N 
ATOM      9  C   UNL     1      46.677   3.289   7.164  0.00  0.00    +0.000 C 
ATOM     10  O   UNL     1      46.673   4.190   6.334  0.00  0.00    +0.000 OA
ATOM     11  H   UNL     1      48.234   2.313   6.313  0.00  0.00    +0.000 HD
ATOM     12  H   UNL     1      47.521   1.426   7.613  0.00  0.00    +0.000 HD
ENDBRANCH   2   9
ENDBRANCH   1   6
BRANCH   1  13
ATOM     13  C   UNL     1      45.356   5.723  12.079  0.00  0.00    +0.000 C 
ATOM     14  C   UNL     1      46.013   4.494  12.691  0.00  0.00    +0.000 C 
ATOM     15  C   UNL     1      45.002   5.266  13.488  0.00  0.00    +0.000 C 
BRANCH  13  16
ATOM     16  C   UNL     1      46.158   7.022  11.957  0.00  0.00    +0.000 A 
ATOM     17  C   UNL     1      45.557   8.274  12.162  0.00  0.00    +0.000 A 
ATOM     18  C   UNL     1      46.320   9.443  12.217  0.00  0.00    +0.000 A 
ATOM     19  C   UNL     1      47.707   9.384  12.070  0.00  0.00    +0.000 A 
ATOM     20 CL   UNL     1      48.596  10.857  12.219  0.00  0.00    +0.000 Cl
ATOM     21  C   UNL     1      48.325   8.154  11.837  0.00  0.00    +0.000 A 
ATOM     22 CL   UNL     1      50.037   7.993  11.663  0.00  0.00    +0.000 Cl
ATOM     23  C   UNL     1      47.551   6.988  11.776  0.00  0.00    +0.000 A 
ENDBRANCH  13  16
ENDBRANCH   1  13
TORSDOF 4
ENDMDL
MODEL 6
REMARK VINA RESULT:    -6.258      4.673      7.167
REMARK INTER + INTRA:          -8.043
REMARK INTER:                  -7.686
REMARK INTRA:                  -0.356
REMARK UNBOUND:                -0.321
REMARK  Name = 
REMARK  4 active torsions:
REMARK  status: ('A' for Active; 'I' for Inactive)
REMARK    1  A    between atoms: C_2  and  C_4
REMARK    2  A    between atoms: C_8  and  C_9
REMARK    3  A    between atoms: C_9  and  C_10
REMARK    4  A    between atoms: C_10  and  C_11
REMARK                            x       y       z     vdW  Elec       q    Type
REMARK                         _______ _______ _______ _____ _____    ______ ____
ROOT
ATOM      1  C   UNL     1      47.905   6.627  12.962  0.00  0.00    +0.000 C 
ENDROOT
BRANCH   1   6
ATOM      2  C   UNL     1      47.884   4.817  16.269  0.00  0.00    +0.000 A 
ATOM      3  C   UNL     1      48.561   5.739  17.063  0.00  0.00    +0.000 A 
ATOM      4  C   UNL     1      48.885   6.958  16.495  0.00  0.00    +0.000 A 
ATOM      5  N   UNL     1      48.610   7.289  15.214  0.00  0.00    +0.000 NA
ATOM      6  C   UNL     1      47.976   6.368  14.445  0.00  0.00    +0.000 A 
ATOM      7  C   UNL     1      47.574   5.137  14.948  0.00  0.00    +0.000 A 
BRANCH   2   9
ATOM      8  N   UNL     1      48.506   2.476  16.567  0.00  0.00    +0.000 N 
ATOM      9  C   UNL     1      47.563   3.446  16.737  0.00  0.00    +0.000 C 
ATOM     10  O   UNL     1      46.493   3.191  17.275  0.00  0.00    +0.000 OA
ATOM     11  H   UNL     1      48.294   1.571  16.973  0.00  0.00    +0.000 HD
ATOM     12  H   UNL     1      49.470   2.672  16.348  0.00  0.00    +0.000 HD
ENDBRANCH   2   9
ENDBRANCH   1   6
BRANCH   1  13
ATOM     13  C   UNL     1      46.617   7.189  12.370  0.00  0.00    +0.000 C 
ATOM     14  C   UNL     1      46.548   8.643  11.922  0.00  0.00    +0.000 C 
ATOM     15  C   UNL     1      45.753   8.198  13.115  0.00  0.00    +0.000 C 
BRANCH  13  16
ATOM     16  C   UNL     1      45.882   6.118  11.560  0.00  0.00    +0.000 A 
ATOM     17  C   UNL     1      46.025   6.027  10.167  0.00  0.00    +0.000 A 
ATOM     18  C   UNL     1      45.490   4.952   9.452  0.00  0.00    +0.000 A 
ATOM     19  C   UNL     1      44.800   3.939  10.119  0.00  0.00    +0.000 A 
ATOM     20 CL   UNL     1      44.226   2.604   9.186  0.00  0.00    +0.000 Cl
ATOM     21  C   UNL     1      44.618   4.021  11.501  0.00  0.00    +0.000 A 
ATOM     22 CL   UNL     1      43.792   2.801  12.405  0.00  0.00    +0.000 Cl
ATOM     23  C   UNL     1      45.152   5.107  12.208  0.00  0.00    +0.000 A 
ENDBRANCH  13  16
ENDBRANCH   1  13
TORSDOF 4
ENDMDL
MODEL 7
REMARK VINA RESULT:    -6.154      2.921      4.922
REMARK INTER + INTRA:          -7.914
REMARK INTER:                  -7.342
REMARK INTRA:                  -0.572
REMARK UNBOUND:                -0.321
REMARK  Name = 
REMARK  4 active torsions:
REMARK  status: ('A' for Active; 'I' for Inactive)
REMARK    1  A    between atoms: C_2  and  C_4
REMARK    2  A    between atoms: C_8  and  C_9
REMARK    3  A    between atoms: C_9  and  C_10
REMARK    4  A    between atoms: C_10  and  C_11
REMARK                            x       y       z     vdW  Elec       q    Type
REMARK                         _______ _______ _______ _____ _____    ______ ____
ROOT
ATOM      1  C   UNL     1      45.816   7.377  12.872  0.00  0.00    +0.000 C 
ENDROOT
BRANCH   1   6
ATOM      2  C   UNL     1      44.495   4.776  10.485  0.00  0.00    +0.000 A 
ATOM      3  C   UNL     1      43.601   4.106  11.316  0.00  0.00    +0.000 A 
ATOM      4  C   UNL     1      43.395   4.620  12.583  0.00  0.00    +0.000 A 
ATOM      5  N   UNL     1      44.031   5.709  13.066  0.00  0.00    +0.000 NA
ATOM      6  C   UNL     1      44.921   6.334  12.254  0.00  0.00    +0.000 A 
ATOM      7  C   UNL     1      45.154   5.913  10.952  0.00  0.00    +0.000 A 
BRANCH   2   9
ATOM      8  N   UNL     1      44.254   3.138   8.691  0.00  0.00    +0.000 N 
ATOM      9  C   UNL     1      44.865   4.272   9.139  0.00  0.00    +0.000 C 
ATOM     10  O   UNL     1      45.681   4.861   8.441  0.00  0.00    +0.000 OA
ATOM     11  H   UNL     1      44.462   2.867   7.736  0.00  0.00    +0.000 HD
ATOM     12  H   UNL     1      43.426   2.751   9.115  0.00  0.00    +0.000 HD
ENDBRANCH   2   9
ENDBRANCH   1   6
BRANCH   1  13
ATOM     13  C   UNL     1      47.289   7.049  13.095  0.00  0.00    +0.000 C 
ATOM     14  C   UNL     1      47.736   5.605  13.275  0.00  0.00    +0.000 C 
ATOM     15  C   UNL     1      47.818   6.555  14.435  0.00  0.00    +0.000 C 
BRANCH  13  16
ATOM     16  C   UNL     1      48.183   8.021  12.318  0.00  0.00    +0.000 A 
ATOM     17  C   UNL     1      47.810   9.359  12.122  0.00  0.00    +0.000 A 
ATOM     18  C   UNL     1      48.696  10.283  11.562  0.00  0.00    +0.000 A 
ATOM     19  C   UNL     1      49.981   9.886  11.188  0.00  0.00    +0.000 A 
ATOM     20 CL   UNL     1      51.049  11.093  10.568  0.00  0.00    +0.000 Cl
ATOM     21  C   UNL     1      50.365   8.553  11.346  0.00  0.00    +0.000 A 
ATOM     22 CL   UNL     1      51.942   7.985  10.925  0.00  0.00    +0.000 Cl
ATOM     23  C   UNL     1      49.467   7.633  11.901  0.00  0.00    +0.000 A 
ENDBRANCH  13  16
ENDBRANCH   1  13
TORSDOF 4
ENDMDL
MODEL 8
REMARK VINA RESULT:    -6.035      2.487      4.657
REMARK INTER + INTRA:          -7.768
REMARK INTER:                  -7.597
REMARK INTRA:                  -0.171
REMARK UNBOUND:                -0.321
REMARK  Name = 
REMARK  4 active torsions:
REMARK  status: ('A' for Active; 'I' for Inactive)
REMARK    1  A    between atoms: C_2  and  C_4
REMARK    2  A    between atoms: C_8  and  C_9
REMARK    3  A    between atoms: C_9  and  C_10
REMARK    4  A    between atoms: C_10  and  C_11
REMARK                            x       y       z     vdW  Elec       q    Type
REMARK                         _______ _______ _______ _____ _____    ______ ____
ROOT
ATOM      1  C   UNL     1      46.018   7.471  12.803  0.00  0.00    +0.000 C 
ENDROOT
BRANCH   1   6
ATOM      2  C   UNL     1      44.667   4.939  10.358  0.00  0.00    +0.000 A 
ATOM      3  C   UNL     1      43.696   4.325  11.145  0.00  0.00    +0.000 A 
ATOM      4  C   UNL     1      43.459   4.856  12.400  0.00  0.00    +0.000 A 
ATOM      5  N   UNL     1      44.132   5.910  12.912  0.00  0.00    +0.000 NA
ATOM      6  C   UNL     1      45.095   6.478  12.144  0.00  0.00    +0.000 A 
ATOM      7  C   UNL     1      45.367   6.038  10.855  0.00  0.00    +0.000 A 
BRANCH   2   9
ATOM      8  N   UNL     1      44.387   3.339   8.536  0.00  0.00    +0.000 N 
ATOM      9  C   UNL     1      45.073   4.408   9.033  0.00  0.00    +0.000 C 
ATOM     10  O   UNL     1      45.983   4.920   8.394  0.00  0.00    +0.000 OA
ATOM     11  H   UNL     1      44.629   3.054   7.594  0.00  0.00    +0.000 HD
ATOM     12  H   UNL     1      43.501   3.031   8.903  0.00  0.00    +0.000 HD
ENDBRANCH   2   9
ENDBRANCH   1   6
BRANCH   1  13
ATOM     13  C   UNL     1      47.460   7.063  13.088  0.00  0.00    +0.000 C 
ATOM     14  C   UNL     1      48.595   8.057  12.882  0.00  0.00    +0.000 C 
ATOM     15  C   UNL     1      48.483   6.864  11.977  0.00  0.00    +0.000 C 
BRANCH  13  16
ATOM     16  C   UNL     1      47.523   6.085  14.265  0.00  0.00    +0.000 A 
ATOM     17  C   UNL     1      46.956   4.804  14.182  0.00  0.00    +0.000 A 
ATOM     18  C   UNL     1      47.157   3.855  15.188  0.00  0.00    +0.000 A 
ATOM     19  C   UNL     1      47.937   4.169  16.302  0.00  0.00    +0.000 A 
ATOM     20 CL   UNL     1      48.205   2.929  17.474  0.00  0.00    +0.000 Cl
ATOM     21  C   UNL     1      48.488   5.447  16.422  0.00  0.00    +0.000 A 
ATOM     22 CL   UNL     1      49.480   5.910  17.760  0.00  0.00    +0.000 Cl
ATOM     23  C   UNL     1      48.274   6.393  15.412  0.00  0.00    +0.000 A 
ENDBRANCH  13  16
ENDBRANCH   1  13
TORSDOF 4
ENDMDL
MODEL 9
REMARK VINA RESULT:    -5.981      2.886      4.872
REMARK INTER + INTRA:          -7.701
REMARK INTER:                  -7.260
REMARK INTRA:                  -0.441
REMARK UNBOUND:                -0.321
REMARK  Name = 
REMARK  4 active torsions:
REMARK  status: ('A' for Active; 'I' for Inactive)
REMARK    1  A    between atoms: C_2  and  C_4
REMARK    2  A    between atoms: C_8  and  C_9
REMARK    3  A    between atoms: C_9  and  C_10
REMARK    4  A    between atoms: C_10  and  C_11
REMARK                            x       y       z     vdW  Elec       q    Type
REMARK                         _______ _______ _______ _____ _____    ______ ____
ROOT
ATOM      1  C   UNL     1      46.635   5.717  13.339  0.00  0.00    +0.000 C 
ENDROOT
BRANCH   1   6
ATOM      2  C   UNL     1      44.230   4.266  10.825  0.00  0.00    +0.000 A 
ATOM      3  C   UNL     1      43.026   4.443  11.501  0.00  0.00    +0.000 A 
ATOM      4  C   UNL     1      43.058   5.137  12.696  0.00  0.00    +0.000 A 
ATOM      5  N   UNL     1      44.188   5.622  13.255  0.00  0.00    +0.000 NA
ATOM      6  C   UNL     1      45.357   5.416  12.599  0.00  0.00    +0.000 A 
ATOM      7  C   UNL     1      45.410   4.769  11.371  0.00  0.00    +0.000 A 
BRANCH   2   9
ATOM      8  N   UNL     1      44.474   2.112   9.703  0.00  0.00    +0.000 N 
ATOM      9  C   UNL     1      44.336   3.463   9.581  0.00  0.00    +0.000 C 
ATOM     10  O   UNL     1      44.285   3.990   8.477  0.00  0.00    +0.000 OA
ATOM     11  H   UNL     1      44.457   1.582   8.838  0.00  0.00    +0.000 HD
ATOM     12  H   UNL     1      44.293   1.612  10.559  0.00  0.00    +0.000 HD
ENDBRANCH   2   9
ENDBRANCH   1   6
BRANCH   1  13
ATOM     13  C   UNL     1      47.335   7.051  13.094  0.00  0.00    +0.000 C 
ATOM     14  C   UNL     1      46.727   8.074  12.144  0.00  0.00    +0.000 C 
ATOM     15  C   UNL     1      48.007   7.384  11.769  0.00  0.00    +0.000 C 
BRANCH  13  16
ATOM     16  C   UNL     1      48.041   7.532  14.365  0.00  0.00    +0.000 A 
ATOM     17  C   UNL     1      47.941   8.863  14.798  0.00  0.00    +0.000 A 
ATOM     18  C   UNL     1      48.443   9.261  16.040  0.00  0.00    +0.000 A 
ATOM     19  C   UNL     1      49.056   8.330  16.880  0.00  0.00    +0.000 A 
ATOM     20 CL   UNL     1      49.592   8.872  18.429  0.00  0.00    +0.000 Cl
ATOM     21  C   UNL     1      49.194   7.005  16.459  0.00  0.00    +0.000 A 
ATOM     22 CL   UNL     1      49.924   5.788  17.446  0.00  0.00    +0.000 Cl
ATOM     23  C   UNL     1      48.694   6.618  15.209  0.00  0.00    +0.000 A 
ENDBRANCH  13  16
ENDBRANCH   1  13
TORSDOF 4
ENDMDL
