MODEL 1
REMARK VINA RESULT:    -8.601      0.000      0.000
REMARK INTER + INTRA:         -11.963
REMARK INTER:                 -11.618
REMARK INTRA:                  -0.345
REMARK UNBOUND:                -0.345
REMARK  Name = 
REMARK  7 active torsions:
REMARK  status: ('A' for Active; 'I' for Inactive)
REMARK    1  A    between atoms: C_1  and  C_2
REMARK    2  A    between atoms: C_2  and  N_3
REMARK    3  A    between atoms: C_2  and  C_16
REMARK    4  A    between atoms: C_4  and  C_6
REMARK    5  A    between atoms: C_19  and  O_20
REMARK    6  A    between atoms: O_20  and  C_21
REMARK    7  A    between atoms: C_21  and  C_22
REMARK                            x       y       z     vdW  Elec       q    Type
REMARK                         _______ _______ _______ _____ _____    ______ ____
ROOT
ATOM      1  C   UNL     1      47.854   8.858  12.311  0.00  0.00    +0.000 C 
ATOM      2  C   UNL     1      46.768   8.077  13.055  0.00  0.00    +0.000 C 
ENDROOT
BRANCH   2   3
ATOM      3  C   UNL     1      46.178   6.948  12.242  0.00  0.00    +0.000 A 
ATOM      4  C   UNL     1      46.517   6.688  10.910  0.00  0.00    +0.000 A 
ATOM      5  C   UNL     1      45.910   5.631  10.232  0.00  0.00    +0.000 A 
ATOM      6  C   UNL     1      44.977   4.866  10.911  0.00  0.00    +0.000 A 
ATOM      7  N   UNL     1      44.655   5.056  12.205  0.00  0.00    +0.000 NA
ATOM      8  C   UNL     1      45.263   6.083  12.839  0.00  0.00    +0.000 A 
BRANCH   6   9
ATOM      9  O   UNL     1      44.398   3.825  10.219  0.00  0.00    +0.000 OA
BRANCH   9  10
ATOM     10  C   UNL     1      44.435   4.046   8.804  0.00  0.00    +0.000 C 
BRANCH  10  11
ATOM     11  C   UNL     1      45.449   3.114   8.182  0.00  0.00    +0.000 A 
ATOM     12  C   UNL     1      46.338   3.596   7.221  0.00  0.00    +0.000 A 
ATOM     13  C   UNL     1      47.273   2.724   6.669  0.00  0.00    +0.000 A 
ATOM     14  C   UNL     1      47.299   1.401   7.089  0.00  0.00    +0.000 A 
ATOM     15  C   UNL     1      46.388   1.002   8.053  0.00  0.00    +0.000 A 
ATOM     16  N   UNL     1      45.470   1.823   8.606  0.00  0.00    +0.000 NA
ENDBRANCH  10  11
ENDBRANCH   9  10
ENDBRANCH   6   9
ENDBRANCH   2   3
BRANCH   2  17
ATOM     17  N   UNL     1      47.263   7.563  14.318  0.00  0.00    +0.000 N 
ATOM     18  C   UNL     1      48.336   6.711  14.393  0.00  0.00    +0.000 C 
ATOM     19  O   UNL     1      48.966   6.368  13.395  0.00  0.00    +0.000 OA
ATOM     20  H   UNL     1      46.685   7.710  15.140  0.00  0.00    +0.000 HD
BRANCH  18  21
ATOM     21  C   UNL     1      48.736   6.269  15.733  0.00  0.00    +0.000 A 
ATOM     22  C   UNL     1      49.676   7.003  16.445  0.00  0.00    +0.000 A 
ATOM     23  S   UNL     1      50.056   6.335  17.967  0.00  0.00    +0.000 S 
ATOM     24  C   UNL     1      49.006   5.026  17.713  0.00  0.00    +0.000 A 
ATOM     25  N   UNL     1      48.896   4.027  18.633  0.00  0.00    +0.000 NA
ATOM     26  C   UNL     1      48.088   3.076  18.297  0.00  0.00    +0.000 A 
ATOM     27  N   UNL     1      47.363   3.044  17.133  0.00  0.00    +0.000 N 
ATOM     28  C   UNL     1      47.393   4.057  16.204  0.00  0.00    +0.000 A 
ATOM     29  O   UNL     1      46.652   4.052  15.227  0.00  0.00    +0.000 OA
ATOM     30  C   UNL     1      48.334   5.120  16.506  0.00  0.00    +0.000 A 
ATOM     31  H   UNL     1      46.720   2.288  16.951  0.00  0.00    +0.000 HD
ENDBRANCH  18  21
ENDBRANCH   2  17
TORSDOF 6
ENDMDL
MODEL 2
REMARK VINA RESULT:    -8.105      1.562      1.813
REMARK INTER + INTRA:         -11.293
REMARK INTER:                 -10.124
REMARK INTRA:                  -1.169
REMARK UNBOUND:                -0.345
REMARK  Name = 
REMARK  7 active torsions:
REMARK  status: ('A' for Active; 'I' for Inactive)
REMARK    1  A    between atoms: C_1  and  C_2
REMARK    2  A    between atoms: C_2  and  N_3
REMARK    3  A    between atoms: C_2  and  C_16
REMARK    4  A    between atoms: C_4  and  C_6
REMARK    5  A    between atoms: C_19  and  O_20
REMARK    6  A    between atoms: O_20  and  C_21
REMARK    7  A    between atoms: C_21  and  C_22
REMARK                            x       y       z     vdW  Elec       q    Type
REMARK                         _______ _______ _______ _____ _____    ______ ____
ROOT
ATOM      1  C   UNL     1      48.480   8.685  12.699  0.00  0.00    +0.000 C 
ATOM      2  C   UNL     1      47.740   7.727  13.636  0.00  0.00    +0.000 C 
ENDROOT
BRANCH   2   3
ATOM      3  C   UNL     1      46.779   6.810  12.917  0.00  0.00    +0.000 A 
ATOM      4  C   UNL     1      45.912   7.230  11.901  0.00  0.00    +0.000 A 
ATOM      5  C   UNL     1      45.047   6.315  11.303  0.00  0.00    +0.000 A 
ATOM      6  C   UNL     1      45.074   5.003  11.743  0.00  0.00    +0.000 A 
ATOM      7  N   UNL     1      45.921   4.548  12.687  0.00  0.00    +0.000 NA
ATOM      8  C   UNL     1      46.753   5.456  13.245  0.00  0.00    +0.000 A 
BRANCH   6   9
ATOM      9  O   UNL     1      44.212   4.120  11.130  0.00  0.00    +0.000 OA
BRANCH   9  10
ATOM     10  C   UNL     1      44.019   4.443   9.748  0.00  0.00    +0.000 C 
BRANCH  10  11
ATOM     11  C   UNL     1      45.001   3.656   8.911  0.00  0.00    +0.000 A 
ATOM     12  C   UNL     1      45.129   2.280   9.100  0.00  0.00    +0.000 A 
ATOM     13  C   UNL     1      46.030   1.572   8.309  0.00  0.00    +0.000 A 
ATOM     14  C   UNL     1      46.776   2.250   7.354  0.00  0.00    +0.000 A 
ATOM     15  C   UNL     1      46.585   3.615   7.223  0.00  0.00    +0.000 A 
ATOM     16  N   UNL     1      45.719   4.329   7.974  0.00  0.00    +0.000 NA
ENDBRANCH  10  11
ENDBRANCH   9  10
ENDBRANCH   6   9
ENDBRANCH   2   3
BRANCH   2  17
ATOM     17  N   UNL     1      48.670   6.939  14.423  0.00  0.00    +0.000 N 
ATOM     18  C   UNL     1      49.026   7.286  15.703  0.00  0.00    +0.000 C 
ATOM     19  O   UNL     1      48.544   8.263  16.270  0.00  0.00    +0.000 OA
ATOM     20  H   UNL     1      49.191   6.214  13.940  0.00  0.00    +0.000 HD
BRANCH  18  21
ATOM     21  C   UNL     1      49.972   6.400  16.388  0.00  0.00    +0.000 A 
ATOM     22  C   UNL     1      51.264   6.842  16.645  0.00  0.00    +0.000 A 
ATOM     23  S   UNL     1      52.245   5.679  17.414  0.00  0.00    +0.000 S 
ATOM     24  C   UNL     1      50.990   4.536  17.401  0.00  0.00    +0.000 A 
ATOM     25  N   UNL     1      51.188   3.273  17.874  0.00  0.00    +0.000 NA
ATOM     26  C   UNL     1      50.160   2.496  17.771  0.00  0.00    +0.000 A 
ATOM     27  N   UNL     1      48.946   2.873  17.258  0.00  0.00    +0.000 N 
ATOM     28  C   UNL     1      48.679   4.151  16.826  0.00  0.00    +0.000 A 
ATOM     29  O   UNL     1      47.553   4.487  16.476  0.00  0.00    +0.000 OA
ATOM     30  C   UNL     1      49.821   5.046  16.863  0.00  0.00    +0.000 A 
ATOM     31  H   UNL     1      48.173   2.225  17.243  0.00  0.00    +0.000 HD
ENDBRANCH  18  21
ENDBRANCH   2  17
TORSDOF 6
ENDMDL
MODEL 3
REMARK VINA RESULT:    -7.978      2.683      3.602
REMARK INTER + INTRA:         -11.122
REMARK INTER:                  -9.961
REMARK INTRA:                  -1.161
REMARK UNBOUND:                -0.345
REMARK  Name = 
REMARK  7 active torsions:
REMARK  status: ('A' for Active; 'I' for Inactive)
REMARK    1  A    between atoms: C_1  and  C_2
REMARK    2  A    between atoms: C_2  and  N_3
REMARK    3  A    between atoms: C_2  and  C_16
REMARK    4  A    between atoms: C_4  and  C_6
REMARK    5  A    between atoms: C_19  and  O_20
REMARK    6  A    between atoms: O_20  and  C_21
REMARK    7  A    between atoms: C_21  and  C_22
REMARK                            x       y       z     vdW  Elec       q    Type
REMARK                         _______ _______ _______ _____ _____    ______ ____
ROOT
ATOM      1  C   UNL     1      47.271   3.784  16.369  0.00  0.00    +0.000 C 
ATOM      2  C   UNL     1      47.714   4.748  15.265  0.00  0.00    +0.000 C 
ENDROOT
BRANCH   2   3
ATOM      3  C   UNL     1      46.865   4.661  14.017  0.00  0.00    +0.000 A 
ATOM      4  C   UNL     1      46.506   5.768  13.241  0.00  0.00    +0.000 A 
ATOM      5  C   UNL     1      45.706   5.594  12.112  0.00  0.00    +0.000 A 
ATOM      6  C   UNL     1      45.287   4.314  11.796  0.00  0.00    +0.000 A 
ATOM      7  N   UNL     1      45.645   3.217  12.492  0.00  0.00    +0.000 NA
ATOM      8  C   UNL     1      46.426   3.414  13.577  0.00  0.00    +0.000 A 
BRANCH   6   9
ATOM      9  O   UNL     1      44.502   4.171  10.672  0.00  0.00    +0.000 OA
BRANCH   9  10
ATOM     10  C   UNL     1      44.480   2.815  10.212  0.00  0.00    +0.000 C 
BRANCH  10  11
ATOM     11  C   UNL     1      45.341   2.694   8.976  0.00  0.00    +0.000 A 
ATOM     12  C   UNL     1      45.564   3.813   8.173  0.00  0.00    +0.000 A 
ATOM     13  C   UNL     1      46.370   3.683   7.046  0.00  0.00    +0.000 A 
ATOM     14  C   UNL     1      46.933   2.449   6.750  0.00  0.00    +0.000 A 
ATOM     15  C   UNL     1      46.669   1.389   7.601  0.00  0.00    +0.000 A 
ATOM     16  N   UNL     1      45.891   1.483   8.701  0.00  0.00    +0.000 NA
ENDBRANCH  10  11
ENDBRANCH   9  10
ENDBRANCH   6   9
ENDBRANCH   2   3
BRANCH   2  17
ATOM     17  N   UNL     1      47.738   6.118  15.744  0.00  0.00    +0.000 N 
ATOM     18  C   UNL     1      48.910   6.796  15.967  0.00  0.00    +0.000 C 
ATOM     19  O   UNL     1      50.007   6.295  15.733  0.00  0.00    +0.000 OA
ATOM     20  H   UNL     1      46.863   6.509  16.079  0.00  0.00    +0.000 HD
BRANCH  18  21
ATOM     21  C   UNL     1      48.792   8.177  16.446  0.00  0.00    +0.000 A 
ATOM     22  C   UNL     1      49.264   9.220  15.658  0.00  0.00    +0.000 A 
ATOM     23  S   UNL     1      49.084  10.756  16.375  0.00  0.00    +0.000 S 
ATOM     24  C   UNL     1      48.402  10.080  17.775  0.00  0.00    +0.000 A 
ATOM     25  N   UNL     1      48.062  10.863  18.837  0.00  0.00    +0.000 NA
ATOM     26  C   UNL     1      47.586  10.214  19.849  0.00  0.00    +0.000 A 
ATOM     27  N   UNL     1      47.399   8.857  19.888  0.00  0.00    +0.000 N 
ATOM     28  C   UNL     1      47.669   8.033  18.820  0.00  0.00    +0.000 A 
ATOM     29  O   UNL     1      47.390   6.839  18.846  0.00  0.00    +0.000 OA
ATOM     30  C   UNL     1      48.265   8.705  17.680  0.00  0.00    +0.000 A 
ATOM     31  H   UNL     1      46.987   8.419  20.698  0.00  0.00    +0.000 HD
ENDBRANCH  18  21
ENDBRANCH   2  17
TORSDOF 6
ENDMDL
MODEL 4
REMARK VINA RESULT:    -7.960      2.356      2.804
REMARK INTER + INTRA:         -11.098
REMARK INTER:                 -10.176
REMARK INTRA:                  -0.922
REMARK UNBOUND:                -0.345
REMARK  Name = 
REMARK  7 active torsions:
REMARK  status: ('A' for Active; 'I' for Inactive)
REMARK    1  A    between atoms: C_1  and  C_2
REMARK    2  A    between atoms: C_2  and  N_3
REMARK    3  A    between atoms: C_2  and  C_16
REMARK    4  A    between atoms: C_4  and  C_6
REMARK    5  A    between atoms: C_19  and  O_20
REMARK    6  A    between atoms: O_20  and  C_21
REMARK    7  A    between atoms: C_21  and  C_22
REMARK                            x       y       z     vdW  Elec       q    Type
REMARK                         _______ _______ _______ _____ _____    ______ ____
ROOT
ATOM      1  C   UNL     1      48.770   8.218  14.464  0.00  0.00    +0.000 C 
ATOM      2  C   UNL     1      48.270   6.953  15.165  0.00  0.00    +0.000 C 
ENDROOT
BRANCH   2   3
ATOM      3  C   UNL     1      47.453   6.053  14.267  0.00  0.00    +0.000 A 
ATOM      4  C   UNL     1      47.015   6.419  12.989  0.00  0.00    +0.000 A 
ATOM      5  C   UNL     1      46.250   5.528  12.236  0.00  0.00    +0.000 A 
ATOM      6  C   UNL     1      45.945   4.296  12.787  0.00  0.00    +0.000 A 
ATOM      7  N   UNL     1      46.383   3.889  13.995  0.00  0.00    +0.000 NA
ATOM      8  C   UNL     1      47.127   4.770  14.701  0.00  0.00    +0.000 A 
BRANCH   6   9
ATOM      9  O   UNL     1      45.194   3.434  12.018  0.00  0.00    +0.000 OA
BRANCH   9  10
ATOM     10  C   UNL     1      44.612   4.102  10.893  0.00  0.00    +0.000 C 
BRANCH  10  11
ATOM     11  C   UNL     1      45.225   3.561   9.622  0.00  0.00    +0.000 A 
ATOM     12  C   UNL     1      45.710   4.443   8.655  0.00  0.00    +0.000 A 
ATOM     13  C   UNL     1      46.284   3.924   7.497  0.00  0.00    +0.000 A 
ATOM     14  C   UNL     1      46.360   2.548   7.334  0.00  0.00    +0.000 A 
ATOM     15  C   UNL     1      45.863   1.740   8.343  0.00  0.00    +0.000 A 
ATOM     16  N   UNL     1      45.302   2.213   9.477  0.00  0.00    +0.000 NA
ENDBRANCH  10  11
ENDBRANCH   9  10
ENDBRANCH   6   9
ENDBRANCH   2   3
BRANCH   2  17
ATOM     17  N   UNL     1      49.371   6.200  15.738  0.00  0.00    +0.000 N 
ATOM     18  C   UNL     1      49.398   5.832  17.060  0.00  0.00    +0.000 C 
ATOM     19  O   UNL     1      48.470   6.083  17.825  0.00  0.00    +0.000 OA
ATOM     20  H   UNL     1      50.210   6.101  15.175  0.00  0.00    +0.000 HD
BRANCH  18  21
ATOM     21  C   UNL     1      50.568   5.069  17.509  0.00  0.00    +0.000 A 
ATOM     22  C   UNL     1      51.661   5.740  18.043  0.00  0.00    +0.000 A 
ATOM     23  S   UNL     1      52.948   4.713  18.481  0.00  0.00    +0.000 S 
ATOM     24  C   UNL     1      52.105   3.341  17.942  0.00  0.00    +0.000 A 
ATOM     25  N   UNL     1      52.679   2.106  17.981  0.00  0.00    +0.000 NA
ATOM     26  C   UNL     1      51.940   1.157  17.508  0.00  0.00    +0.000 A 
ATOM     27  N   UNL     1      50.671   1.328  17.018  0.00  0.00    +0.000 N 
ATOM     28  C   UNL     1      50.026   2.543  17.015  0.00  0.00    +0.000 A 
ATOM     29  O   UNL     1      48.853   2.645  16.673  0.00  0.00    +0.000 OA
ATOM     30  C   UNL     1      50.838   3.653  17.479  0.00  0.00    +0.000 A 
ATOM     31  H   UNL     1      50.134   0.536  16.699  0.00  0.00    +0.000 HD
ENDBRANCH  18  21
ENDBRANCH   2  17
TORSDOF 6
ENDMDL
MODEL 5
REMARK VINA RESULT:    -7.663      2.706      4.038
REMARK INTER + INTRA:         -10.696
REMARK INTER:                  -9.806
REMARK INTRA:                  -0.890
REMARK UNBOUND:                -0.345
REMARK  Name = 
REMARK  7 active torsions:
REMARK  status: ('A' for Active; 'I' for Inactive)
REMARK    1  A    between atoms: C_1  and  C_2
REMARK    2  A    between atoms: C_2  and  N_3
REMARK    3  A    between atoms: C_2  and  C_16
REMARK    4  A    between atoms: C_4  and  C_6
REMARK    5  A    between atoms: C_19  and  O_20
REMARK    6  A    between atoms: O_20  and  C_21
REMARK    7  A    between atoms: C_21  and  C_22
REMARK                            x       y       z     vdW  Elec       q    Type
REMARK                         _______ _______ _______ _____ _____    ______ ____
ROOT
ATOM      1  C   UNL     1      47.586   3.270  15.991  0.00  0.00    +0.000 C 
ATOM      2  C   UNL     1      47.936   4.660  15.454  0.00  0.00    +0.000 C 
ENDROOT
BRANCH   2   3
ATOM      3  C   UNL     1      47.193   5.017  14.187  0.00  0.00    +0.000 A 
ATOM      4  C   UNL     1      47.307   6.253  13.540  0.00  0.00    +0.000 A 
ATOM      5  C   UNL     1      46.571   6.501  12.382  0.00  0.00    +0.000 A 
ATOM      6  C   UNL     1      45.739   5.502  11.907  0.00  0.00    +0.000 A 
ATOM      7  N   UNL     1      45.633   4.285  12.476  0.00  0.00    +0.000 NA
ATOM      8  C   UNL     1      46.362   4.070  13.593  0.00  0.00    +0.000 A 
BRANCH   6   9
ATOM      9  O   UNL     1      45.027   5.773  10.759  0.00  0.00    +0.000 OA
BRANCH   9  10
ATOM     10  C   UNL     1      44.272   4.636  10.326  0.00  0.00    +0.000 C 
BRANCH  10  11
ATOM     11  C   UNL     1      45.080   3.857   9.313  0.00  0.00    +0.000 A 
ATOM     12  C   UNL     1      45.106   2.464   9.368  0.00  0.00    +0.000 A 
ATOM     13  C   UNL     1      45.846   1.765   8.418  0.00  0.00    +0.000 A 
ATOM     14  C   UNL     1      46.536   2.470   7.441  0.00  0.00    +0.000 A 
ATOM     15  C   UNL     1      46.453   3.852   7.449  0.00  0.00    +0.000 A 
ATOM     16  N   UNL     1      45.744   4.558   8.357  0.00  0.00    +0.000 NA
ENDBRANCH  10  11
ENDBRANCH   9  10
ENDBRANCH   6   9
ENDBRANCH   2   3
BRANCH   2  17
ATOM     17  N   UNL     1      47.709   5.683  16.458  0.00  0.00    +0.000 N 
ATOM     18  C   UNL     1      48.726   6.205  17.216  0.00  0.00    +0.000 C 
ATOM     19  O   UNL     1      49.896   5.866  17.058  0.00  0.00    +0.000 OA
ATOM     20  H   UNL     1      46.745   5.881  16.711  0.00  0.00    +0.000 HD
BRANCH  18  21
ATOM     21  C   UNL     1      48.360   7.237  18.192  0.00  0.00    +0.000 A 
ATOM     22  C   UNL     1      48.133   6.880  19.515  0.00  0.00    +0.000 A 
ATOM     23  S   UNL     1      47.682   8.188  20.510  0.00  0.00    +0.000 S 
ATOM     24  C   UNL     1      47.741   9.270  19.203  0.00  0.00    +0.000 A 
ATOM     25  N   UNL     1      47.401  10.580  19.361  0.00  0.00    +0.000 NA
ATOM     26  C   UNL     1      47.457  11.282  18.278  0.00  0.00    +0.000 A 
ATOM     27  N   UNL     1      47.841  10.799  17.054  0.00  0.00    +0.000 N 
ATOM     28  C   UNL     1      48.251   9.501  16.857  0.00  0.00    +0.000 A 
ATOM     29  O   UNL     1      48.694   9.126  15.776  0.00  0.00    +0.000 OA
ATOM     30  C   UNL     1      48.147   8.654  18.031  0.00  0.00    +0.000 A 
ATOM     31  H   UNL     1      47.899  11.413  16.256  0.00  0.00    +0.000 HD
ENDBRANCH  18  21
ENDBRANCH   2  17
TORSDOF 6
ENDMDL
MODEL 6
REMARK VINA RESULT:    -7.221      3.705      8.193
REMARK INTER + INTRA:         -10.099
REMARK INTER:                  -9.163
REMARK INTRA:                  -0.937
REMARK UNBOUND:                -0.345
REMARK  Name = 
REMARK  7 active torsions:
REMARK  status: ('A' for Active; 'I' for Inactive)
REMARK    1  A    between atoms: C_1  and  C_2
REMARK    2  A    between atoms: C_2  and  N_3
REMARK    3  A    between atoms: C_2  and  C_16
REMARK    4  A    between atoms: C_4  and  C_6
REMARK    5  A    between atoms: C_19  and  O_20
REMARK    6  A    between atoms: O_20  and  C_21
REMARK    7  A    between atoms: C_21  and  C_22
REMARK                            x       y       z     vdW  Elec       q    Type
REMARK                         _______ _______ _______ _____ _____    ______ ____
ROOT
ATOM      1  C   UNL     1      48.561   8.973  16.383  0.00  0.00    +0.000 C 
ATOM      2  C   UNL     1      48.891   7.779  15.483  0.00  0.00    +0.000 C 
ENDROOT
BRANCH   2   3
ATOM      3  C   UNL     1      49.414   6.582  16.243  0.00  0.00    +0.000 A 
ATOM      4  C   UNL     1      48.594   5.653  16.894  0.00  0.00    +0.000 A 
ATOM      5  C   UNL     1      49.167   4.587  17.585  0.00  0.00    +0.000 A 
ATOM      6  C   UNL     1      50.547   4.483  17.606  0.00  0.00    +0.000 A 
ATOM      7  N   UNL     1      51.370   5.330  16.957  0.00  0.00    +0.000 NA
ATOM      8  C   UNL     1      50.787   6.352  16.290  0.00  0.00    +0.000 A 
BRANCH   6   9
ATOM      9  O   UNL     1      51.085   3.416  18.292  0.00  0.00    +0.000 OA
BRANCH   9  10
ATOM     10  C   UNL     1      52.436   3.672  18.692  0.00  0.00    +0.000 C 
BRANCH  10  11
ATOM     11  C   UNL     1      53.333   2.587  18.143  0.00  0.00    +0.000 A 
ATOM     12  C   UNL     1      54.491   2.930  17.445  0.00  0.00    +0.000 A 
ATOM     13  C   UNL     1      55.310   1.915  16.959  0.00  0.00    +0.000 A 
ATOM     14  C   UNL     1      54.957   0.591  17.180  0.00  0.00    +0.000 A 
ATOM     15  C   UNL     1      53.795   0.333  17.888  0.00  0.00    +0.000 A 
ATOM     16  N   UNL     1      52.980   1.295  18.372  0.00  0.00    +0.000 NA
ENDBRANCH  10  11
ENDBRANCH   9  10
ENDBRANCH   6   9
ENDBRANCH   2   3
BRANCH   2  17
ATOM     17  N   UNL     1      47.741   7.388  14.688  0.00  0.00    +0.000 N 
ATOM     18  C   UNL     1      47.867   6.724  13.494  0.00  0.00    +0.000 C 
ATOM     19  O   UNL     1      48.961   6.386  13.049  0.00  0.00    +0.000 OA
ATOM     20  H   UNL     1      46.839   7.773  14.952  0.00  0.00    +0.000 HD
BRANCH  18  21
ATOM     21  C   UNL     1      46.624   6.383  12.794  0.00  0.00    +0.000 A 
ATOM     22  C   UNL     1      45.878   7.389  12.192  0.00  0.00    +0.000 A 
ATOM     23  S   UNL     1      44.447   6.830  11.453  0.00  0.00    +0.000 S 
ATOM     24  C   UNL     1      44.756   5.234  11.940  0.00  0.00    +0.000 A 
ATOM     25  N   UNL     1      43.869   4.235  11.673  0.00  0.00    +0.000 NA
ATOM     26  C   UNL     1      44.214   3.076  12.131  0.00  0.00    +0.000 A 
ATOM     27  N   UNL     1      45.374   2.821  12.815  0.00  0.00    +0.000 N 
ATOM     28  C   UNL     1      46.328   3.783  13.055  0.00  0.00    +0.000 A 
ATOM     29  O   UNL     1      47.404   3.502  13.572  0.00  0.00    +0.000 OA
ATOM     30  C   UNL     1      45.960   5.116  12.615  0.00  0.00    +0.000 A 
ATOM     31  H   UNL     1      45.598   1.884  13.111  0.00  0.00    +0.000 HD
ENDBRANCH  18  21
ENDBRANCH   2  17
TORSDOF 6
ENDMDL
MODEL 7
REMARK VINA RESULT:    -6.970      2.178      2.823
REMARK INTER + INTRA:          -9.760
REMARK INTER:                  -8.889
REMARK INTRA:                  -0.872
REMARK UNBOUND:                -0.345
REMARK  Name = 
REMARK  7 active torsions:
REMARK  status: ('A' for Active; 'I' for Inactive)
REMARK    1  A    between atoms: C_1  and  C_2
REMARK    2  A    between atoms: C_2  and  N_3
REMARK    3  A    between atoms: C_2  and  C_16
REMARK    4  A    between atoms: C_4  and  C_6
REMARK    5  A    between atoms: C_19  and  O_20
REMARK    6  A    between atoms: O_20  and  C_21
REMARK    7  A    between atoms: C_21  and  C_22
REMARK                            x       y       z     vdW  Elec       q    Type
REMARK                         _______ _______ _______ _____ _____    ______ ____
ROOT
ATOM      1  C   UNL     1      49.941   8.164  13.959  0.00  0.00    +0.000 C 
ATOM      2  C   UNL     1      48.509   8.417  14.437  0.00  0.00    +0.000 C 
ENDROOT
BRANCH   2   3
ATOM      3  C   UNL     1      47.459   7.904  13.479  0.00  0.00    +0.000 A 
ATOM      4  C   UNL     1      46.287   8.600  13.162  0.00  0.00    +0.000 A 
ATOM      5  C   UNL     1      45.365   8.041  12.277  0.00  0.00    +0.000 A 
ATOM      6  C   UNL     1      45.644   6.798  11.737  0.00  0.00    +0.000 A 
ATOM      7  N   UNL     1      46.779   6.115  11.983  0.00  0.00    +0.000 NA
ATOM      8  C   UNL     1      47.658   6.683  12.839  0.00  0.00    +0.000 A 
BRANCH   6   9
ATOM      9  O   UNL     1      44.718   6.273  10.862  0.00  0.00    +0.000 OA
BRANCH   9  10
ATOM     10  C   UNL     1      44.497   4.878  11.102  0.00  0.00    +0.000 C 
BRANCH  10  11
ATOM     11  C   UNL     1      45.015   4.083   9.926  0.00  0.00    +0.000 A 
ATOM     12  C   UNL     1      44.903   2.693   9.924  0.00  0.00    +0.000 A 
ATOM     13  C   UNL     1      45.374   1.979   8.825  0.00  0.00    +0.000 A 
ATOM     14  C   UNL     1      45.940   2.667   7.760  0.00  0.00    +0.000 A 
ATOM     15  C   UNL     1      46.008   4.048   7.835  0.00  0.00    +0.000 A 
ATOM     16  N   UNL     1      45.560   4.768   8.886  0.00  0.00    +0.000 NA
ENDBRANCH  10  11
ENDBRANCH   9  10
ENDBRANCH   6   9
ENDBRANCH   2   3
BRANCH   2  17
ATOM     17  N   UNL     1      48.287   7.850  15.753  0.00  0.00    +0.000 N 
ATOM     18  C   UNL     1      48.630   8.513  16.905  0.00  0.00    +0.000 C 
ATOM     19  O   UNL     1      49.107   9.645  16.887  0.00  0.00    +0.000 OA
ATOM     20  H   UNL     1      48.030   6.869  15.800  0.00  0.00    +0.000 HD
BRANCH  18  21
ATOM     21  C   UNL     1      48.347   7.828  18.171  0.00  0.00    +0.000 A 
ATOM     22  C   UNL     1      47.799   8.541  19.230  0.00  0.00    +0.000 A 
ATOM     23  S   UNL     1      47.566   7.606  20.636  0.00  0.00    +0.000 S 
ATOM     24  C   UNL     1      48.219   6.228  19.892  0.00  0.00    +0.000 A 
ATOM     25  N   UNL     1      48.366   5.062  20.582  0.00  0.00    +0.000 NA
ATOM     26  C   UNL     1      48.909   4.104  19.904  0.00  0.00    +0.000 A 
ATOM     27  N   UNL     1      49.299   4.199  18.594  0.00  0.00    +0.000 N 
ATOM     28  C   UNL     1      49.115   5.334  17.838  0.00  0.00    +0.000 A 
ATOM     29  O   UNL     1      49.373   5.354  16.639  0.00  0.00    +0.000 OA
ATOM     30  C   UNL     1      48.566   6.460  18.571  0.00  0.00    +0.000 A 
ATOM     31  H   UNL     1      49.681   3.399  18.114  0.00  0.00    +0.000 HD
ENDBRANCH  18  21
ENDBRANCH   2  17
TORSDOF 6
ENDMDL
MODEL 8
REMARK VINA RESULT:    -6.908      3.090      7.464
REMARK INTER + INTRA:          -9.676
REMARK INTER:                  -9.583
REMARK INTRA:                  -0.093
REMARK UNBOUND:                -0.345
REMARK  Name = 
REMARK  7 active torsions:
REMARK  status: ('A' for Active; 'I' for Inactive)
REMARK    1  A    between atoms: C_1  and  C_2
REMARK    2  A    between atoms: C_2  and  N_3
REMARK    3  A    between atoms: C_2  and  C_16
REMARK    4  A    between atoms: C_4  and  C_6
REMARK    5  A    between atoms: C_19  and  O_20
REMARK    6  A    between atoms: O_20  and  C_21
REMARK    7  A    between atoms: C_21  and  C_22
REMARK                            x       y       z     vdW  Elec       q    Type
REMARK                         _______ _______ _______ _____ _____    ______ ____
ROOT
ATOM      1  C   UNL     1      47.210   9.548  12.041  0.00  0.00    +0.000 C 
ATOM      2  C   UNL     1      48.055   8.281  12.197  0.00  0.00    +0.000 C 
ENDROOT
BRANCH   2   3
ATOM      3  C   UNL     1      48.350   7.932  13.637  0.00  0.00    +0.000 A 
ATOM      4  C   UNL     1      48.257   8.843  14.695  0.00  0.00    +0.000 A 
ATOM      5  C   UNL     1      48.565   8.435  15.992  0.00  0.00    +0.000 A 
ATOM      6  C   UNL     1      48.959   7.124  16.192  0.00  0.00    +0.000 A 
ATOM      7  N   UNL     1      49.020   6.204  15.209  0.00  0.00    +0.000 NA
ATOM      8  C   UNL     1      48.711   6.626  13.962  0.00  0.00    +0.000 A 
BRANCH   6   9
ATOM      9  O   UNL     1      49.251   6.747  17.485  0.00  0.00    +0.000 OA
BRANCH   9  10
ATOM     10  C   UNL     1      48.478   5.613  17.892  0.00  0.00    +0.000 C 
BRANCH  10  11
ATOM     11  C   UNL     1      49.276   4.353  17.648  0.00  0.00    +0.000 A 
ATOM     12  C   UNL     1      48.649   3.226  17.116  0.00  0.00    +0.000 A 
ATOM     13  C   UNL     1      49.404   2.079  16.886  0.00  0.00    +0.000 A 
ATOM     14  C   UNL     1      50.759   2.086  17.190  0.00  0.00    +0.000 A 
ATOM     15  C   UNL     1      51.308   3.246  17.709  0.00  0.00    +0.000 A 
ATOM     16  N   UNL     1      50.602   4.374  17.942  0.00  0.00    +0.000 NA
ENDBRANCH  10  11
ENDBRANCH   9  10
ENDBRANCH   6   9
ENDBRANCH   2   3
BRANCH   2  17
ATOM     17  N   UNL     1      47.429   7.150  11.539  0.00  0.00    +0.000 N 
ATOM     18  C   UNL     1      46.088   6.884  11.654  0.00  0.00    +0.000 C 
ATOM     19  O   UNL     1      45.331   7.615  12.288  0.00  0.00    +0.000 OA
ATOM     20  H   UNL     1      48.043   6.452  11.128  0.00  0.00    +0.000 HD
BRANCH  18  21
ATOM     21  C   UNL     1      45.583   5.710  10.933  0.00  0.00    +0.000 A 
ATOM     22  C   UNL     1      45.749   5.626   9.556  0.00  0.00    +0.000 A 
ATOM     23  S   UNL     1      45.075   4.219   8.870  0.00  0.00    +0.000 S 
ATOM     24  C   UNL     1      44.510   3.690  10.381  0.00  0.00    +0.000 A 
ATOM     25  N   UNL     1      43.779   2.545  10.494  0.00  0.00    +0.000 NA
ATOM     26  C   UNL     1      43.383   2.280  11.696  0.00  0.00    +0.000 A 
ATOM     27  N   UNL     1      43.669   3.044  12.798  0.00  0.00    +0.000 N 
ATOM     28  C   UNL     1      44.453   4.172  12.744  0.00  0.00    +0.000 A 
ATOM     29  O   UNL     1      44.783   4.772  13.761  0.00  0.00    +0.000 OA
ATOM     30  C   UNL     1      44.871   4.548  11.406  0.00  0.00    +0.000 A 
ATOM     31  H   UNL     1      43.360   2.757  13.714  0.00  0.00    +0.000 HD
ENDBRANCH  18  21
ENDBRANCH   2  17
TORSDOF 6
ENDMDL
MODEL 9
REMARK VINA RESULT:    -6.573      3.161      5.035
REMARK INTER + INTRA:          -9.224
REMARK INTER:                  -8.195
REMARK INTRA:                  -1.029
REMARK UNBOUND:                -0.345
REMARK  Name = 
REMARK  7 active torsions:
REMARK  status: ('A' for Active; 'I' for Inactive)
REMARK    1  A    between atoms: C_1  and  C_2
REMARK    2  A    between atoms: C_2  and  N_3
REMARK    3  A    between atoms: C_2  and  C_16
REMARK    4  A    between atoms: C_4  and  C_6
REMARK    5  A    between atoms: C_19  and  O_20
REMARK    6  A    between atoms: O_20  and  C_21
REMARK    7  A    between atoms: C_21  and  C_22
REMARK                            x       y       z     vdW  Elec       q    Type
REMARK                         _______ _______ _______ _____ _____    ______ ____
ROOT
ATOM      1  C   UNL     1      52.176   8.777  15.610  0.00  0.00    +0.000 C 
ATOM      2  C   UNL     1      51.165   7.766  16.158  0.00  0.00    +0.000 C 
ENDROOT
BRANCH   2   3
ATOM      3  C   UNL     1      50.104   7.376  15.155  0.00  0.00    +0.000 A 
ATOM      4  C   UNL     1      48.954   6.647  15.480  0.00  0.00    +0.000 A 
ATOM      5  C   UNL     1      48.036   6.319  14.484  0.00  0.00    +0.000 A 
ATOM      6  C   UNL     1      48.298   6.728  13.189  0.00  0.00    +0.000 A 
ATOM      7  N   UNL     1      49.370   7.467  12.841  0.00  0.00    +0.000 NA
ATOM      8  C   UNL     1      50.241   7.776  13.827  0.00  0.00    +0.000 A 
BRANCH   6   9
ATOM      9  O   UNL     1      47.370   6.395  12.226  0.00  0.00    +0.000 OA
BRANCH   9  10
ATOM     10  C   UNL     1      46.073   6.914  12.540  0.00  0.00    +0.000 C 
BRANCH  10  11
ATOM     11  C   UNL     1      45.021   5.908  12.133  0.00  0.00    +0.000 A 
ATOM     12  C   UNL     1      45.151   5.216  10.929  0.00  0.00    +0.000 A 
ATOM     13  C   UNL     1      44.179   4.284  10.579  0.00  0.00    +0.000 A 
ATOM     14  C   UNL     1      43.107   4.065  11.434  0.00  0.00    +0.000 A 
ATOM     15  C   UNL     1      43.054   4.787  12.614  0.00  0.00    +0.000 A 
ATOM     16  N   UNL     1      43.982   5.697  12.982  0.00  0.00    +0.000 NA
ENDBRANCH  10  11
ENDBRANCH   9  10
ENDBRANCH   6   9
ENDBRANCH   2   3
BRANCH   2  17
ATOM     17  N   UNL     1      51.830   6.575  16.652  0.00  0.00    +0.000 N 
ATOM     18  C   UNL     1      51.536   6.025  17.875  0.00  0.00    +0.000 C 
ATOM     19  O   UNL     1      50.662   6.487  18.604  0.00  0.00    +0.000 OA
ATOM     20  H   UNL     1      52.649   6.253  16.145  0.00  0.00    +0.000 HD
BRANCH  18  21
ATOM     21  C   UNL     1      52.279   4.817  18.252  0.00  0.00    +0.000 A 
ATOM     22  C   UNL     1      53.479   4.937  18.942  0.00  0.00    +0.000 A 
ATOM     23  S   UNL     1      54.232   3.444  19.271  0.00  0.00    +0.000 S 
ATOM     24  C   UNL     1      53.000   2.588  18.475  0.00  0.00    +0.000 A 
ATOM     25  N   UNL     1      53.061   1.234  18.341  0.00  0.00    +0.000 NA
ATOM     26  C   UNL     1      52.076   0.716  17.683  0.00  0.00    +0.000 A 
ATOM     27  N   UNL     1      51.025   1.427  17.165  0.00  0.00    +0.000 N 
ATOM     28  C   UNL     1      50.887   2.786  17.328  0.00  0.00    +0.000 A 
ATOM     29  O   UNL     1      49.882   3.378  16.949  0.00  0.00    +0.000 OA
ATOM     30  C   UNL     1      52.000   3.424  18.006  0.00  0.00    +0.000 A 
ATOM     31  H   UNL     1      50.268   0.953  16.695  0.00  0.00    +0.000 HD
ENDBRANCH  18  21
ENDBRANCH   2  17
TORSDOF 6
ENDMDL
