MODEL 1
REMARK VINA RESULT:    -7.081      0.000      0.000
REMARK INTER + INTRA:         -11.243
REMARK INTER:                 -10.393
REMARK INTRA:                  -0.850
REMARK UNBOUND:                -0.850
REMARK  Name = 
REMARK  9 active torsions:
REMARK  status: ('A' for Active; 'I' for Inactive)
REMARK    1  A    between atoms: N_1  and  C_2
REMARK    2  A    between atoms: C_2  and  C_3
REMARK    3  A    between atoms: C_3  and  N_4
REMARK    4  A    between atoms: N_4  and  C_5
REMARK    5  A    between atoms: C_5  and  C_6
REMARK    6  A    between atoms: C_5  and  C_20
REMARK    7  A    between atoms: C_9  and  C_10
REMARK    8  A    between atoms: C_10  and  N_11
REMARK    9  A    between atoms: C_14  and  O_15
REMARK                            x       y       z     vdW  Elec       q    Type
REMARK                         _______ _______ _______ _____ _____    ______ ____
ROOT
ATOM      1  C   UNL     1      45.317   6.874  11.405  0.00  0.00    +0.000 C 
ENDROOT
BRANCH   1   2
ATOM      2  C   UNL     1      44.917   5.414  11.472  0.00  0.00    +0.000 A 
ATOM      3  C   UNL     1      44.255   4.805  12.531  0.00  0.00    +0.000 A 
ATOM      4  S   UNL     1      43.661   3.247  12.159  0.00  0.00    +0.000 S 
ATOM      5  C   UNL     1      44.265   3.334  10.573  0.00  0.00    +0.000 A 
ATOM      6  N   UNL     1      43.995   2.366   9.661  0.00  0.00    +0.000 NA
ATOM      7  C   UNL     1      44.496   2.586   8.489  0.00  0.00    +0.000 A 
ATOM      8  N   UNL     1      45.283   3.664   8.164  0.00  0.00    +0.000 N 
ATOM      9  C   UNL     1      45.624   4.649   9.065  0.00  0.00    +0.000 A 
ATOM     10  O   UNL     1      46.371   5.564   8.765  0.00  0.00    +0.000 OA
ATOM     11  C   UNL     1      44.994   4.490  10.364  0.00  0.00    +0.000 A 
ATOM     12  H   UNL     1      45.682   3.757   7.242  0.00  0.00    +0.000 HD
ENDBRANCH   1   2
BRANCH   1  13
ATOM     13  C   UNL     1      46.563   7.108  12.233  0.00  0.00    +0.000 A 
ATOM     14  C   UNL     1      46.528   8.066  13.255  0.00  0.00    +0.000 A 
ATOM     15  C   UNL     1      47.504   8.076  14.248  0.00  0.00    +0.000 A 
ATOM     16  C   UNL     1      48.534   7.142  14.192  0.00  0.00    +0.000 A 
ATOM     17  N   UNL     1      48.669   6.290  13.143  0.00  0.00    +0.000 NA
ATOM     18  C   UNL     1      47.687   6.289  12.199  0.00  0.00    +0.000 A 
BRANCH  16  19
ATOM     19  C   UNL     1      49.493   7.001  15.378  0.00  0.00    +0.000 C 
BRANCH  19  20
ATOM     20  N   UNL     1      49.264   5.885  16.326  0.00  0.00    +0.000 NA
ATOM     21  C   UNL     1      48.104   5.072  15.951  0.00  0.00    +0.000 C 
ATOM     22  C   UNL     1      47.743   3.993  16.967  0.00  0.00    +0.000 C 
ATOM     23  C   UNL     1      47.638   4.562  18.375  0.00  0.00    +0.000 C 
ATOM     24  C   UNL     1      48.923   5.295  18.736  0.00  0.00    +0.000 C 
ATOM     25  C   UNL     1      49.273   6.370  17.706  0.00  0.00    +0.000 C 
BRANCH  23  26
ATOM     26  O   UNL     1      46.495   5.410  18.492  0.00  0.00    +0.000 OA
ATOM     27  H   UNL     1      46.192   5.410  19.418  0.00  0.00    +0.000 HD
ENDBRANCH  23  26
ENDBRANCH  19  20
ENDBRANCH  16  19
ENDBRANCH   1  13
BRANCH   1  28
ATOM     28  N   UNL     1      44.150   7.674  11.825  0.00  0.00    +0.000 NA
ATOM     29  H   UNL     1      43.356   7.027  11.831  0.00  0.00    +0.000 HD
BRANCH  28  30
ATOM     30  C   UNL     1      43.778   8.755  10.903  0.00  0.00    +0.000 C 
BRANCH  30  31
ATOM     31  C   UNL     1      44.146  10.173  11.381  0.00  0.00    +0.000 C 
BRANCH  31  32
ATOM     32  N   UNL     1      43.036  10.814  12.096  0.00  0.00    +0.000 NA
ATOM     33  H   UNL     1      43.184  11.824  12.091  0.00  0.00    +0.000 HD
ATOM     34  H   UNL     1      43.072  10.537  13.078  0.00  0.00    +0.000 HD
ENDBRANCH  31  32
ENDBRANCH  30  31
ENDBRANCH  28  30
ENDBRANCH   1  28
TORSDOF 9
ENDMDL
MODEL 2
REMARK VINA RESULT:    -6.812      3.422      8.198
REMARK INTER + INTRA:         -10.848
REMARK INTER:                 -10.653
REMARK INTRA:                  -0.195
REMARK UNBOUND:                -0.850
REMARK  Name = 
REMARK  9 active torsions:
REMARK  status: ('A' for Active; 'I' for Inactive)
REMARK    1  A    between atoms: N_1  and  C_2
REMARK    2  A    between atoms: C_2  and  C_3
REMARK    3  A    between atoms: C_3  and  N_4
REMARK    4  A    between atoms: N_4  and  C_5
REMARK    5  A    between atoms: C_5  and  C_6
REMARK    6  A    between atoms: C_5  and  C_20
REMARK    7  A    between atoms: C_9  and  C_10
REMARK    8  A    between atoms: C_10  and  N_11
REMARK    9  A    between atoms: C_14  and  O_15
REMARK                            x       y       z     vdW  Elec       q    Type
REMARK                         _______ _______ _______ _____ _____    ______ ____
ROOT
ATOM      1  C   UNL     1      48.362   4.931  17.168  0.00  0.00    +0.000 C 
ENDROOT
BRANCH   1   2
ATOM      2  C   UNL     1      49.852   4.766  17.385  0.00  0.00    +0.000 A 
ATOM      3  C   UNL     1      50.712   5.748  17.862  0.00  0.00    +0.000 A 
ATOM      4  S   UNL     1      52.251   5.152  18.302  0.00  0.00    +0.000 S 
ATOM      5  C   UNL     1      51.821   3.565  17.872  0.00  0.00    +0.000 A 
ATOM      6  N   UNL     1      52.651   2.518  18.114  0.00  0.00    +0.000 NA
ATOM      7  C   UNL     1      52.174   1.369  17.761  0.00  0.00    +0.000 A 
ATOM      8  N   UNL     1      50.961   1.182  17.142  0.00  0.00    +0.000 N 
ATOM      9  C   UNL     1      50.104   2.215  16.833  0.00  0.00    +0.000 A 
ATOM     10  O   UNL     1      49.060   2.026  16.233  0.00  0.00    +0.000 OA
ATOM     11  C   UNL     1      50.561   3.510  17.309  0.00  0.00    +0.000 A 
ATOM     12  H   UNL     1      50.664   0.263  16.850  0.00  0.00    +0.000 HD
ENDBRANCH   1   2
BRANCH   1  13
ATOM     13  C   UNL     1      48.076   5.195  15.705  0.00  0.00    +0.000 A 
ATOM     14  C   UNL     1      47.191   4.349  15.023  0.00  0.00    +0.000 A 
ATOM     15  C   UNL     1      46.634   4.740  13.808  0.00  0.00    +0.000 A 
ATOM     16  C   UNL     1      46.997   5.969  13.263  0.00  0.00    +0.000 A 
ATOM     17  N   UNL     1      47.952   6.748  13.832  0.00  0.00    +0.000 NA
ATOM     18  C   UNL     1      48.462   6.349  15.031  0.00  0.00    +0.000 A 
BRANCH  16  19
ATOM     19  C   UNL     1      46.244   6.507  12.043  0.00  0.00    +0.000 C 
BRANCH  19  20
ATOM     20  N   UNL     1      44.976   5.841  11.660  0.00  0.00    +0.000 NA
ATOM     21  C   UNL     1      44.109   5.602  12.817  0.00  0.00    +0.000 C 
ATOM     22  C   UNL     1      42.852   4.798  12.499  0.00  0.00    +0.000 C 
ATOM     23  C   UNL     1      43.181   3.525  11.732  0.00  0.00    +0.000 C 
ATOM     24  C   UNL     1      43.986   3.865  10.484  0.00  0.00    +0.000 C 
ATOM     25  C   UNL     1      45.240   4.674  10.819  0.00  0.00    +0.000 C 
BRANCH  23  26
ATOM     26  O   UNL     1      43.870   2.595  12.568  0.00  0.00    +0.000 OA
ATOM     27  H   UNL     1      43.335   2.427  13.365  0.00  0.00    +0.000 HD
ENDBRANCH  23  26
ENDBRANCH  19  20
ENDBRANCH  16  19
ENDBRANCH   1  13
BRANCH   1  28
ATOM     28  N   UNL     1      47.895   5.993  18.080  0.00  0.00    +0.000 NA
ATOM     29  H   UNL     1      48.741   6.457  18.423  0.00  0.00    +0.000 HD
BRANCH  28  30
ATOM     30  C   UNL     1      47.188   5.515  19.275  0.00  0.00    +0.000 C 
BRANCH  30  31
ATOM     31  C   UNL     1      48.069   5.338  20.527  0.00  0.00    +0.000 C 
BRANCH  31  32
ATOM     32  N   UNL     1      48.468   3.940  20.721  0.00  0.00    +0.000 NA
ATOM     33  H   UNL     1      49.423   3.821  20.380  0.00  0.00    +0.000 HD
ATOM     34  H   UNL     1      47.890   3.346  20.124  0.00  0.00    +0.000 HD
ENDBRANCH  31  32
ENDBRANCH  30  31
ENDBRANCH  28  30
ENDBRANCH   1  28
TORSDOF 9
ENDMDL
MODEL 3
REMARK VINA RESULT:    -6.338      1.821      2.285
REMARK INTER + INTRA:         -10.152
REMARK INTER:                 -10.089
REMARK INTRA:                  -0.063
REMARK UNBOUND:                -0.850
REMARK  Name = 
REMARK  9 active torsions:
REMARK  status: ('A' for Active; 'I' for Inactive)
REMARK    1  A    between atoms: N_1  and  C_2
REMARK    2  A    between atoms: C_2  and  C_3
REMARK    3  A    between atoms: C_3  and  N_4
REMARK    4  A    between atoms: N_4  and  C_5
REMARK    5  A    between atoms: C_5  and  C_6
REMARK    6  A    between atoms: C_5  and  C_20
REMARK    7  A    between atoms: C_9  and  C_10
REMARK    8  A    between atoms: C_10  and  N_11
REMARK    9  A    between atoms: C_14  and  O_15
REMARK                            x       y       z     vdW  Elec       q    Type
REMARK                         _______ _______ _______ _____ _____    ______ ____
ROOT
ATOM      1  C   UNL     1      45.708   7.253  11.290  0.00  0.00    +0.000 C 
ENDROOT
BRANCH   1   2
ATOM      2  C   UNL     1      45.239   5.970  10.634  0.00  0.00    +0.000 A 
ATOM      3  C   UNL     1      45.625   5.518   9.378  0.00  0.00    +0.000 A 
ATOM      4  S   UNL     1      45.186   3.896   9.072  0.00  0.00    +0.000 S 
ATOM      5  C   UNL     1      44.468   3.743  10.605  0.00  0.00    +0.000 A 
ATOM      6  N   UNL     1      43.996   2.550  11.048  0.00  0.00    +0.000 NA
ATOM      7  C   UNL     1      43.508   2.583  12.245  0.00  0.00    +0.000 A 
ATOM      8  N   UNL     1      43.405   3.715  13.017  0.00  0.00    +0.000 N 
ATOM      9  C   UNL     1      43.826   4.957  12.596  0.00  0.00    +0.000 A 
ATOM     10  O   UNL     1      43.671   5.954  13.280  0.00  0.00    +0.000 OA
ATOM     11  C   UNL     1      44.476   4.939  11.297  0.00  0.00    +0.000 A 
ATOM     12  H   UNL     1      42.972   3.684  13.928  0.00  0.00    +0.000 HD
ENDBRANCH   1   2
BRANCH   1  13
ATOM     13  C   UNL     1      46.771   6.949  12.323  0.00  0.00    +0.000 A 
ATOM     14  C   UNL     1      47.321   8.006  13.062  0.00  0.00    +0.000 A 
ATOM     15  C   UNL     1      48.026   7.756  14.236  0.00  0.00    +0.000 A 
ATOM     16  C   UNL     1      48.207   6.438  14.648  0.00  0.00    +0.000 A 
ATOM     17  N   UNL     1      47.804   5.390  13.884  0.00  0.00    +0.000 NA
ATOM     18  C   UNL     1      47.097   5.667  12.753  0.00  0.00    +0.000 A 
BRANCH  16  19
ATOM     19  C   UNL     1      48.793   6.152  16.033  0.00  0.00    +0.000 C 
BRANCH  19  20
ATOM     20  N   UNL     1      48.806   4.747  16.505  0.00  0.00    +0.000 NA
ATOM     21  C   UNL     1      47.507   4.336  17.045  0.00  0.00    +0.000 C 
ATOM     22  C   UNL     1      47.503   2.944  17.669  0.00  0.00    +0.000 C 
ATOM     23  C   UNL     1      48.640   2.775  18.667  0.00  0.00    +0.000 C 
ATOM     24  C   UNL     1      49.968   3.111  18.002  0.00  0.00    +0.000 C 
ATOM     25  C   UNL     1      49.955   4.507  17.378  0.00  0.00    +0.000 C 
BRANCH  23  26
ATOM     26  O   UNL     1      48.414   3.572  19.830  0.00  0.00    +0.000 OA
ATOM     27  H   UNL     1      47.931   3.044  20.490  0.00  0.00    +0.000 HD
ENDBRANCH  23  26
ENDBRANCH  19  20
ENDBRANCH  16  19
ENDBRANCH   1  13
BRANCH   1  28
ATOM     28  N   UNL     1      44.516   7.937  11.828  0.00  0.00    +0.000 NA
ATOM     29  H   UNL     1      43.787   7.221  11.888  0.00  0.00    +0.000 HD
BRANCH  28  30
ATOM     30  C   UNL     1      43.969   8.994  10.966  0.00  0.00    +0.000 C 
BRANCH  30  31
ATOM     31  C   UNL     1      44.077  10.421  11.537  0.00  0.00    +0.000 C 
BRANCH  31  32
ATOM     32  N   UNL     1      42.819  10.863  12.147  0.00  0.00    +0.000 NA
ATOM     33  H   UNL     1      42.691  11.857  11.951  0.00  0.00    +0.000 HD
ATOM     34  H   UNL     1      42.902  10.794  13.163  0.00  0.00    +0.000 HD
ENDBRANCH  31  32
ENDBRANCH  30  31
ENDBRANCH  28  30
ENDBRANCH   1  28
TORSDOF 9
ENDMDL
MODEL 4
REMARK VINA RESULT:    -6.155      1.991      2.332
REMARK INTER + INTRA:          -9.884
REMARK INTER:                  -8.904
REMARK INTRA:                  -0.980
REMARK UNBOUND:                -0.850
REMARK  Name = 
REMARK  9 active torsions:
REMARK  status: ('A' for Active; 'I' for Inactive)
REMARK    1  A    between atoms: N_1  and  C_2
REMARK    2  A    between atoms: C_2  and  C_3
REMARK    3  A    between atoms: C_3  and  N_4
REMARK    4  A    between atoms: N_4  and  C_5
REMARK    5  A    between atoms: C_5  and  C_6
REMARK    6  A    between atoms: C_5  and  C_20
REMARK    7  A    between atoms: C_9  and  C_10
REMARK    8  A    between atoms: C_10  and  N_11
REMARK    9  A    between atoms: C_14  and  O_15
REMARK                            x       y       z     vdW  Elec       q    Type
REMARK                         _______ _______ _______ _____ _____    ______ ____
ROOT
ATOM      1  C   UNL     1      45.238   7.096  11.214  0.00  0.00    +0.000 C 
ENDROOT
BRANCH   1   2
ATOM      2  C   UNL     1      44.847   5.652  11.455  0.00  0.00    +0.000 A 
ATOM      3  C   UNL     1      44.187   5.170  12.578  0.00  0.00    +0.000 A 
ATOM      4  S   UNL     1      43.605   3.575  12.396  0.00  0.00    +0.000 S 
ATOM      5  C   UNL     1      44.213   3.475  10.812  0.00  0.00    +0.000 A 
ATOM      6  N   UNL     1      43.953   2.401  10.022  0.00  0.00    +0.000 NA
ATOM      7  C   UNL     1      44.456   2.483   8.834  0.00  0.00    +0.000 A 
ATOM      8  N   UNL     1      45.236   3.520   8.383  0.00  0.00    +0.000 N 
ATOM      9  C   UNL     1      45.567   4.608   9.159  0.00  0.00    +0.000 A 
ATOM     10  O   UNL     1      46.308   5.486   8.753  0.00  0.00    +0.000 OA
ATOM     11  C   UNL     1      44.934   4.602  10.467  0.00  0.00    +0.000 A 
ATOM     12  H   UNL     1      45.637   3.503   7.457  0.00  0.00    +0.000 HD
ENDBRANCH   1   2
BRANCH   1  13
ATOM     13  C   UNL     1      46.443   7.455  12.057  0.00  0.00    +0.000 A 
ATOM     14  C   UNL     1      47.725   7.222  11.540  0.00  0.00    +0.000 A 
ATOM     15  C   UNL     1      48.838   7.838  12.106  0.00  0.00    +0.000 A 
ATOM     16  C   UNL     1      48.663   8.663  13.214  0.00  0.00    +0.000 A 
ATOM     17  N   UNL     1      47.454   8.800  13.818  0.00  0.00    +0.000 NA
ATOM     18  C   UNL     1      46.381   8.203  13.228  0.00  0.00    +0.000 A 
BRANCH  16  19
ATOM     19  C   UNL     1      49.834   9.509  13.720  0.00  0.00    +0.000 C 
BRANCH  19  20
ATOM     20  N   UNL     1      50.533   9.064  14.949  0.00  0.00    +0.000 NA
ATOM     21  C   UNL     1      50.628   7.604  15.030  0.00  0.00    +0.000 C 
ATOM     22  C   UNL     1      51.217   7.089  16.340  0.00  0.00    +0.000 C 
ATOM     23  C   UNL     1      50.524   7.706  17.546  0.00  0.00    +0.000 C 
ATOM     24  C   UNL     1      50.566   9.225  17.447  0.00  0.00    +0.000 C 
ATOM     25  C   UNL     1      49.976   9.726  16.127  0.00  0.00    +0.000 C 
BRANCH  23  26
ATOM     26  O   UNL     1      49.187   7.221  17.664  0.00  0.00    +0.000 OA
ATOM     27  H   UNL     1      48.822   7.071  16.773  0.00  0.00    +0.000 HD
ENDBRANCH  23  26
ENDBRANCH  19  20
ENDBRANCH  16  19
ENDBRANCH   1  13
BRANCH   1  28
ATOM     28  N   UNL     1      44.045   7.927  11.474  0.00  0.00    +0.000 NA
ATOM     29  H   UNL     1      43.254   7.408  11.084  0.00  0.00    +0.000 HD
BRANCH  28  30
ATOM     30  C   UNL     1      44.042   9.231  10.797  0.00  0.00    +0.000 C 
BRANCH  30  31
ATOM     31  C   UNL     1      43.722  10.435  11.704  0.00  0.00    +0.000 C 
BRANCH  31  32
ATOM     32  N   UNL     1      44.925  11.207  12.032  0.00  0.00    +0.000 NA
ATOM     33  H   UNL     1      45.170  11.032  13.007  0.00  0.00    +0.000 HD
ATOM     34  H   UNL     1      44.702  12.202  11.981  0.00  0.00    +0.000 HD
ENDBRANCH  31  32
ENDBRANCH  30  31
ENDBRANCH  28  30
ENDBRANCH   1  28
TORSDOF 9
ENDMDL
MODEL 5
REMARK VINA RESULT:    -6.102      2.111      2.646
REMARK INTER + INTRA:          -9.806
REMARK INTER:                  -8.947
REMARK INTRA:                  -0.859
REMARK UNBOUND:                -0.850
REMARK  Name = 
REMARK  9 active torsions:
REMARK  status: ('A' for Active; 'I' for Inactive)
REMARK    1  A    between atoms: N_1  and  C_2
REMARK    2  A    between atoms: C_2  and  C_3
REMARK    3  A    between atoms: C_3  and  N_4
REMARK    4  A    between atoms: N_4  and  C_5
REMARK    5  A    between atoms: C_5  and  C_6
REMARK    6  A    between atoms: C_5  and  C_20
REMARK    7  A    between atoms: C_9  and  C_10
REMARK    8  A    between atoms: C_10  and  N_11
REMARK    9  A    between atoms: C_14  and  O_15
REMARK                            x       y       z     vdW  Elec       q    Type
REMARK                         _______ _______ _______ _____ _____    ______ ____
ROOT
ATOM      1  C   UNL     1      45.614   7.267  11.692  0.00  0.00    +0.000 C 
ENDROOT
BRANCH   1   2
ATOM      2  C   UNL     1      45.063   5.861  11.819  0.00  0.00    +0.000 A 
ATOM      3  C   UNL     1      44.362   5.363  12.910  0.00  0.00    +0.000 A 
ATOM      4  S   UNL     1      43.599   3.865  12.606  0.00  0.00    +0.000 S 
ATOM      5  C   UNL     1      44.177   3.833  11.008  0.00  0.00    +0.000 A 
ATOM      6  N   UNL     1      43.787   2.867  10.136  0.00  0.00    +0.000 NA
ATOM      7  C   UNL     1      44.284   2.992   8.949  0.00  0.00    +0.000 A 
ATOM      8  N   UNL     1      45.175   3.968   8.572  0.00  0.00    +0.000 N 
ATOM      9  C   UNL     1      45.636   4.942   9.430  0.00  0.00    +0.000 A 
ATOM     10  O   UNL     1      46.469   5.762   9.084  0.00  0.00    +0.000 OA
ATOM     11  C   UNL     1      45.019   4.896  10.745  0.00  0.00    +0.000 A 
ATOM     12  H   UNL     1      45.561   3.986   7.640  0.00  0.00    +0.000 HD
ENDBRANCH   1   2
BRANCH   1  13
ATOM     13  C   UNL     1      46.840   7.424  12.566  0.00  0.00    +0.000 A 
ATOM     14  C   UNL     1      46.942   8.550  13.395  0.00  0.00    +0.000 A 
ATOM     15  C   UNL     1      47.851   8.572  14.449  0.00  0.00    +0.000 A 
ATOM     16  C   UNL     1      48.682   7.472  14.647  0.00  0.00    +0.000 A 
ATOM     17  N   UNL     1      48.700   6.426  13.782  0.00  0.00    +0.000 NA
ATOM     18  C   UNL     1      47.784   6.423  12.773  0.00  0.00    +0.000 A 
BRANCH  16  19
ATOM     19  C   UNL     1      49.535   7.389  15.915  0.00  0.00    +0.000 C 
BRANCH  19  20
ATOM     20  N   UNL     1      50.876   6.765  15.810  0.00  0.00    +0.000 NA
ATOM     21  C   UNL     1      51.246   6.048  17.034  0.00  0.00    +0.000 C 
ATOM     22  C   UNL     1      52.671   5.502  17.030  0.00  0.00    +0.000 C 
ATOM     23  C   UNL     1      53.680   6.574  16.642  0.00  0.00    +0.000 C 
ATOM     24  C   UNL     1      53.291   7.194  15.307  0.00  0.00    +0.000 C 
ATOM     25  C   UNL     1      51.859   7.732  15.325  0.00  0.00    +0.000 C 
BRANCH  23  26
ATOM     26  O   UNL     1      53.791   7.559  17.670  0.00  0.00    +0.000 OA
ATOM     27  H   UNL     1      53.148   7.359  18.374  0.00  0.00    +0.000 HD
ENDBRANCH  23  26
ENDBRANCH  19  20
ENDBRANCH  16  19
ENDBRANCH   1  13
BRANCH   1  28
ATOM     28  N   UNL     1      44.518   8.203  12.008  0.00  0.00    +0.000 NA
ATOM     29  H   UNL     1      43.655   7.654  11.946  0.00  0.00    +0.000 HD
BRANCH  28  30
ATOM     30  C   UNL     1      44.357   9.311  11.057  0.00  0.00    +0.000 C 
BRANCH  30  31
ATOM     31  C   UNL     1      42.910   9.806  10.872  0.00  0.00    +0.000 C 
BRANCH  31  32
ATOM     32  N   UNL     1      42.527  10.773  11.907  0.00  0.00    +0.000 NA
ATOM     33  H   UNL     1      41.649  11.216  11.632  0.00  0.00    +0.000 HD
ATOM     34  H   UNL     1      43.217  11.525  11.928  0.00  0.00    +0.000 HD
ENDBRANCH  31  32
ENDBRANCH  30  31
ENDBRANCH  28  30
ENDBRANCH   1  28
TORSDOF 9
ENDMDL
MODEL 6
REMARK VINA RESULT:    -5.855      2.985      7.879
REMARK INTER + INTRA:          -9.443
REMARK INTER:                  -8.396
REMARK INTRA:                  -1.046
REMARK UNBOUND:                -0.850
REMARK  Name = 
REMARK  9 active torsions:
REMARK  status: ('A' for Active; 'I' for Inactive)
REMARK    1  A    between atoms: N_1  and  C_2
REMARK    2  A    between atoms: C_2  and  C_3
REMARK    3  A    between atoms: C_3  and  N_4
REMARK    4  A    between atoms: N_4  and  C_5
REMARK    5  A    between atoms: C_5  and  C_6
REMARK    6  A    between atoms: C_5  and  C_20
REMARK    7  A    between atoms: C_9  and  C_10
REMARK    8  A    between atoms: C_10  and  N_11
REMARK    9  A    between atoms: C_14  and  O_15
REMARK                            x       y       z     vdW  Elec       q    Type
REMARK                         _______ _______ _______ _____ _____    ______ ____
ROOT
ATOM      1  C   UNL     1      49.647   8.010  15.077  0.00  0.00    +0.000 C 
ENDROOT
BRANCH   1   2
ATOM      2  C   UNL     1      49.304   8.296  16.525  0.00  0.00    +0.000 A 
ATOM      3  C   UNL     1      49.278   9.553  17.116  0.00  0.00    +0.000 A 
ATOM      4  S   UNL     1      48.539   9.568  18.656  0.00  0.00    +0.000 S 
ATOM      5  C   UNL     1      48.227   7.899  18.585  0.00  0.00    +0.000 A 
ATOM      6  N   UNL     1      47.496   7.276  19.544  0.00  0.00    +0.000 NA
ATOM      7  C   UNL     1      47.316   6.012  19.337  0.00  0.00    +0.000 A 
ATOM      8  N   UNL     1      47.844   5.309  18.281  0.00  0.00    +0.000 N 
ATOM      9  C   UNL     1      48.629   5.885  17.308  0.00  0.00    +0.000 A 
ATOM     10  O   UNL     1      49.132   5.226  16.414  0.00  0.00    +0.000 OA
ATOM     11  C   UNL     1      48.767   7.324  17.450  0.00  0.00    +0.000 A 
ATOM     12  H   UNL     1      47.704   4.313  18.199  0.00  0.00    +0.000 HD
ENDBRANCH   1   2
BRANCH   1  13
ATOM     13  C   UNL     1      48.406   7.577  14.326  0.00  0.00    +0.000 A 
ATOM     14  C   UNL     1      47.354   8.490  14.172  0.00  0.00    +0.000 A 
ATOM     15  C   UNL     1      46.363   8.273  13.218  0.00  0.00    +0.000 A 
ATOM     16  C   UNL     1      46.415   7.118  12.441  0.00  0.00    +0.000 A 
ATOM     17  N   UNL     1      47.344   6.152  12.660  0.00  0.00    +0.000 NA
ATOM     18  C   UNL     1      48.312   6.403  13.585  0.00  0.00    +0.000 A 
BRANCH  16  19
ATOM     19  C   UNL     1      45.463   6.963  11.253  0.00  0.00    +0.000 C 
BRANCH  19  20
ATOM     20  N   UNL     1      44.420   5.912  11.330  0.00  0.00    +0.000 NA
ATOM     21  C   UNL     1      44.105   5.551  12.715  0.00  0.00    +0.000 C 
ATOM     22  C   UNL     1      43.137   4.380  12.850  0.00  0.00    +0.000 C 
ATOM     23  C   UNL     1      43.581   3.188  12.013  0.00  0.00    +0.000 C 
ATOM     24  C   UNL     1      43.779   3.616  10.565  0.00  0.00    +0.000 C 
ATOM     25  C   UNL     1      44.748   4.794  10.447  0.00  0.00    +0.000 C 
BRANCH  23  26
ATOM     26  O   UNL     1      44.763   2.601  12.557  0.00  0.00    +0.000 OA
ATOM     27  H   UNL     1      44.565   1.691  12.842  0.00  0.00    +0.000 HD
ENDBRANCH  23  26
ENDBRANCH  19  20
ENDBRANCH  16  19
ENDBRANCH   1  13
BRANCH   1  28
ATOM     28  N   UNL     1      50.740   7.018  15.068  0.00  0.00    +0.000 NA
ATOM     29  H   UNL     1      50.477   6.307  15.757  0.00  0.00    +0.000 HD
BRANCH  28  30
ATOM     30  C   UNL     1      52.045   7.533  15.501  0.00  0.00    +0.000 C 
BRANCH  30  31
ATOM     31  C   UNL     1      52.618   6.873  16.770  0.00  0.00    +0.000 C 
BRANCH  31  32
ATOM     32  N   UNL     1      52.091   5.518  16.966  0.00  0.00    +0.000 NA
ATOM     33  H   UNL     1      52.665   4.864  16.432  0.00  0.00    +0.000 HD
ATOM     34  H   UNL     1      51.159   5.463  16.553  0.00  0.00    +0.000 HD
ENDBRANCH  31  32
ENDBRANCH  30  31
ENDBRANCH  28  30
ENDBRANCH   1  28
TORSDOF 9
ENDMDL
MODEL 7
REMARK VINA RESULT:    -5.729      3.280      4.425
REMARK INTER + INTRA:          -9.257
REMARK INTER:                  -8.156
REMARK INTRA:                  -1.101
REMARK UNBOUND:                -0.850
REMARK  Name = 
REMARK  9 active torsions:
REMARK  status: ('A' for Active; 'I' for Inactive)
REMARK    1  A    between atoms: N_1  and  C_2
REMARK    2  A    between atoms: C_2  and  C_3
REMARK    3  A    between atoms: C_3  and  N_4
REMARK    4  A    between atoms: N_4  and  C_5
REMARK    5  A    between atoms: C_5  and  C_6
REMARK    6  A    between atoms: C_5  and  C_20
REMARK    7  A    between atoms: C_9  and  C_10
REMARK    8  A    between atoms: C_10  and  N_11
REMARK    9  A    between atoms: C_14  and  O_15
REMARK                            x       y       z     vdW  Elec       q    Type
REMARK                         _______ _______ _______ _____ _____    ______ ____
ROOT
ATOM      1  C   UNL     1      45.364   7.026  11.364  0.00  0.00    +0.000 C 
ENDROOT
BRANCH   1   2
ATOM      2  C   UNL     1      44.973   5.577  11.572  0.00  0.00    +0.000 A 
ATOM      3  C   UNL     1      44.373   5.059  12.713  0.00  0.00    +0.000 A 
ATOM      4  S   UNL     1      43.765   3.476  12.506  0.00  0.00    +0.000 S 
ATOM      5  C   UNL     1      44.281   3.431  10.887  0.00  0.00    +0.000 A 
ATOM      6  N   UNL     1      43.965   2.391  10.074  0.00  0.00    +0.000 NA
ATOM      7  C   UNL     1      44.399   2.512   8.862  0.00  0.00    +0.000 A 
ATOM      8  N   UNL     1      45.163   3.559   8.406  0.00  0.00    +0.000 N 
ATOM      9  C   UNL     1      45.549   4.615   9.202  0.00  0.00    +0.000 A 
ATOM     10  O   UNL     1      46.275   5.502   8.786  0.00  0.00    +0.000 OA
ATOM     11  C   UNL     1      44.992   4.564  10.543  0.00  0.00    +0.000 A 
ATOM     12  H   UNL     1      45.510   3.574   7.459  0.00  0.00    +0.000 HD
ENDBRANCH   1   2
BRANCH   1  13
ATOM     13  C   UNL     1      46.634   7.336  12.126  0.00  0.00    +0.000 A 
ATOM     14  C   UNL     1      47.870   7.137  11.495  0.00  0.00    +0.000 A 
ATOM     15  C   UNL     1      49.027   7.719  12.006  0.00  0.00    +0.000 A 
ATOM     16  C   UNL     1      48.944   8.476  13.172  0.00  0.00    +0.000 A 
ATOM     17  N   UNL     1      47.788   8.575  13.878  0.00  0.00    +0.000 NA
ATOM     18  C   UNL     1      46.669   8.013  13.341  0.00  0.00    +0.000 A 
BRANCH  16  19
ATOM     19  C   UNL     1      50.155   9.292  13.631  0.00  0.00    +0.000 C 
BRANCH  19  20
ATOM     20  N   UNL     1      51.373   9.262  12.787  0.00  0.00    +0.000 NA
ATOM     21  C   UNL     1      52.482   8.567  13.446  0.00  0.00    +0.000 C 
ATOM     22  C   UNL     1      53.800   8.626  12.679  0.00  0.00    +0.000 C 
ATOM     23  C   UNL     1      54.149  10.051  12.276  0.00  0.00    +0.000 C 
ATOM     24  C   UNL     1      52.995  10.668  11.498  0.00  0.00    +0.000 C 
ATOM     25  C   UNL     1      51.681  10.598  12.278  0.00  0.00    +0.000 C 
BRANCH  23  26
ATOM     26  O   UNL     1      54.491  10.831  13.422  0.00  0.00    +0.000 OA
ATOM     27  H   UNL     1      55.405  10.622  13.689  0.00  0.00    +0.000 HD
ENDBRANCH  23  26
ENDBRANCH  19  20
ENDBRANCH  16  19
ENDBRANCH   1  13
BRANCH   1  28
ATOM     28  N   UNL     1      44.206   7.858  11.747  0.00  0.00    +0.000 NA
ATOM     29  H   UNL     1      43.377   7.299  11.529  0.00  0.00    +0.000 HD
BRANCH  28  30
ATOM     30  C   UNL     1      44.062   9.105  10.985  0.00  0.00    +0.000 C 
BRANCH  30  31
ATOM     31  C   UNL     1      44.437  10.386  11.754  0.00  0.00    +0.000 C 
BRANCH  31  32
ATOM     32  N   UNL     1      45.504  11.135  11.081  0.00  0.00    +0.000 NA
ATOM     33  H   UNL     1      46.367  11.026  11.614  0.00  0.00    +0.000 HD
ATOM     34  H   UNL     1      45.283  12.131  11.119  0.00  0.00    +0.000 HD
ENDBRANCH  31  32
ENDBRANCH  30  31
ENDBRANCH  28  30
ENDBRANCH   1  28
TORSDOF 9
ENDMDL
MODEL 8
REMARK VINA RESULT:    -5.595      2.755      4.542
REMARK INTER + INTRA:          -9.062
REMARK INTER:                  -8.096
REMARK INTRA:                  -0.965
REMARK UNBOUND:                -0.850
REMARK  Name = 
REMARK  9 active torsions:
REMARK  status: ('A' for Active; 'I' for Inactive)
REMARK    1  A    between atoms: N_1  and  C_2
REMARK    2  A    between atoms: C_2  and  C_3
REMARK    3  A    between atoms: C_3  and  N_4
REMARK    4  A    between atoms: N_4  and  C_5
REMARK    5  A    between atoms: C_5  and  C_6
REMARK    6  A    between atoms: C_5  and  C_20
REMARK    7  A    between atoms: C_9  and  C_10
REMARK    8  A    between atoms: C_10  and  N_11
REMARK    9  A    between atoms: C_14  and  O_15
REMARK                            x       y       z     vdW  Elec       q    Type
REMARK                         _______ _______ _______ _____ _____    ______ ____
ROOT
ATOM      1  C   UNL     1      48.975   8.416  12.869  0.00  0.00    +0.000 C 
ENDROOT
BRANCH   1   2
ATOM      2  C   UNL     1      47.472   8.464  12.681  0.00  0.00    +0.000 A 
ATOM      3  C   UNL     1      46.729   9.602  12.393  0.00  0.00    +0.000 A 
ATOM      4  S   UNL     1      45.123   9.268  11.919  0.00  0.00    +0.000 S 
ATOM      5  C   UNL     1      45.365   7.593  12.079  0.00  0.00    +0.000 A 
ATOM      6  N   UNL     1      44.412   6.703  11.704  0.00  0.00    +0.000 NA
ATOM      7  C   UNL     1      44.753   5.464  11.855  0.00  0.00    +0.000 A 
ATOM      8  N   UNL     1      45.943   5.041  12.394  0.00  0.00    +0.000 N 
ATOM      9  C   UNL     1      46.923   5.903  12.832  0.00  0.00    +0.000 A 
ATOM     10  O   UNL     1      47.946   5.501  13.359  0.00  0.00    +0.000 OA
ATOM     11  C   UNL     1      46.619   7.302  12.582  0.00  0.00    +0.000 A 
ATOM     12  H   UNL     1      46.132   4.058  12.527  0.00  0.00    +0.000 HD
ENDBRANCH   1   2
BRANCH   1  13
ATOM     13  C   UNL     1      49.307   8.150  14.321  0.00  0.00    +0.000 A 
ATOM     14  C   UNL     1      48.370   8.493  15.305  0.00  0.00    +0.000 A 
ATOM     15  C   UNL     1      48.469   7.965  16.590  0.00  0.00    +0.000 A 
ATOM     16  C   UNL     1      49.532   7.119  16.893  0.00  0.00    +0.000 A 
ATOM     17  N   UNL     1      50.528   6.877  16.001  0.00  0.00    +0.000 NA
ATOM     18  C   UNL     1      50.391   7.389  14.746  0.00  0.00    +0.000 A 
BRANCH  16  19
ATOM     19  C   UNL     1      49.545   6.368  18.227  0.00  0.00    +0.000 C 
BRANCH  19  20
ATOM     20  N   UNL     1      49.134   4.944  18.225  0.00  0.00    +0.000 NA
ATOM     21  C   UNL     1      50.103   4.092  17.530  0.00  0.00    +0.000 C 
ATOM     22  C   UNL     1      49.662   2.639  17.381  0.00  0.00    +0.000 C 
ATOM     23  C   UNL     1      48.259   2.536  16.801  0.00  0.00    +0.000 C 
ATOM     24  C   UNL     1      47.288   3.355  17.642  0.00  0.00    +0.000 C 
ATOM     25  C   UNL     1      47.746   4.808  17.786  0.00  0.00    +0.000 C 
BRANCH  23  26
ATOM     26  O   UNL     1      48.246   2.944  15.433  0.00  0.00    +0.000 OA
ATOM     27  H   UNL     1      49.135   2.818  15.055  0.00  0.00    +0.000 HD
ENDBRANCH  23  26
ENDBRANCH  19  20
ENDBRANCH  16  19
ENDBRANCH   1  13
BRANCH   1  28
ATOM     28  N   UNL     1      49.528   9.678  12.340  0.00  0.00    +0.000 NA
ATOM     29  H   UNL     1      48.751  10.146  11.865  0.00  0.00    +0.000 HD
BRANCH  28  30
ATOM     30  C   UNL     1      50.577   9.515  11.325  0.00  0.00    +0.000 C 
BRANCH  30  31
ATOM     31  C   UNL     1      51.012   8.060  11.066  0.00  0.00    +0.000 C 
BRANCH  31  32
ATOM     32  N   UNL     1      52.335   7.776  11.634  0.00  0.00    +0.000 NA
ATOM     33  H   UNL     1      52.435   6.765  11.739  0.00  0.00    +0.000 HD
ATOM     34  H   UNL     1      52.375   8.154  12.581  0.00  0.00    +0.000 HD
ENDBRANCH  31  32
ENDBRANCH  30  31
ENDBRANCH  28  30
ENDBRANCH   1  28
TORSDOF 9
ENDMDL
MODEL 9
REMARK VINA RESULT:    -5.234      2.100      2.485
REMARK INTER + INTRA:          -8.532
REMARK INTER:                  -7.729
REMARK INTRA:                  -0.803
REMARK UNBOUND:                -0.850
REMARK  Name = 
REMARK  9 active torsions:
REMARK  status: ('A' for Active; 'I' for Inactive)
REMARK    1  A    between atoms: N_1  and  C_2
REMARK    2  A    between atoms: C_2  and  C_3
REMARK    3  A    between atoms: C_3  and  N_4
REMARK    4  A    between atoms: N_4  and  C_5
REMARK    5  A    between atoms: C_5  and  C_6
REMARK    6  A    between atoms: C_5  and  C_20
REMARK    7  A    between atoms: C_9  and  C_10
REMARK    8  A    between atoms: C_10  and  N_11
REMARK    9  A    between atoms: C_14  and  O_15
REMARK                            x       y       z     vdW  Elec       q    Type
REMARK                         _______ _______ _______ _____ _____    ______ ____
ROOT
ATOM      1  C   UNL     1      46.228   7.374  11.848  0.00  0.00    +0.000 C 
ENDROOT
BRANCH   1   2
ATOM      2  C   UNL     1      46.237   5.950  12.365  0.00  0.00    +0.000 A 
ATOM      3  C   UNL     1      47.015   5.477  13.415  0.00  0.00    +0.000 A 
ATOM      4  S   UNL     1      46.554   3.925  13.961  0.00  0.00    +0.000 S 
ATOM      5  C   UNL     1      45.300   3.834  12.817  0.00  0.00    +0.000 A 
ATOM      6  N   UNL     1      44.419   2.802  12.816  0.00  0.00    +0.000 NA
ATOM      7  C   UNL     1      43.503   2.887  11.907  0.00  0.00    +0.000 A 
ATOM      8  N   UNL     1      43.421   3.887  10.969  0.00  0.00    +0.000 N 
ATOM      9  C   UNL     1      44.317   4.930  10.898  0.00  0.00    +0.000 A 
ATOM     10  O   UNL     1      44.254   5.773  10.020  0.00  0.00    +0.000 OA
ATOM     11  C   UNL     1      45.300   4.925  11.968  0.00  0.00    +0.000 A 
ATOM     12  H   UNL     1      42.707   3.873  10.256  0.00  0.00    +0.000 HD
ENDBRANCH   1   2
BRANCH   1  13
ATOM     13  C   UNL     1      47.406   8.138  12.411  0.00  0.00    +0.000 A 
ATOM     14  C   UNL     1      47.242   8.854  13.605  0.00  0.00    +0.000 A 
ATOM     15  C   UNL     1      48.351   9.275  14.335  0.00  0.00    +0.000 A 
ATOM     16  C   UNL     1      49.625   9.004  13.845  0.00  0.00    +0.000 A 
ATOM     17  N   UNL     1      49.815   8.433  12.627  0.00  0.00    +0.000 NA
ATOM     18  C   UNL     1      48.712   8.012  11.947  0.00  0.00    +0.000 A 
BRANCH  16  19
ATOM     19  C   UNL     1      50.847   9.270  14.727  0.00  0.00    +0.000 C 
BRANCH  19  20
ATOM     20  N   UNL     1      51.035   8.422  15.928  0.00  0.00    +0.000 NA
ATOM     21  C   UNL     1      50.645   7.031  15.685  0.00  0.00    +0.000 C 
ATOM     22  C   UNL     1      50.690   6.144  16.926  0.00  0.00    +0.000 C 
ATOM     23  C   UNL     1      49.941   6.775  18.091  0.00  0.00    +0.000 C 
ATOM     24  C   UNL     1      50.479   8.175  18.356  0.00  0.00    +0.000 C 
ATOM     25  C   UNL     1      50.431   9.050  17.102  0.00  0.00    +0.000 C 
BRANCH  23  26
ATOM     26  O   UNL     1      48.536   6.787  17.842  0.00  0.00    +0.000 OA
ATOM     27  H   UNL     1      48.173   5.900  18.018  0.00  0.00    +0.000 HD
ENDBRANCH  23  26
ENDBRANCH  19  20
ENDBRANCH  16  19
ENDBRANCH   1  13
BRANCH   1  28
ATOM     28  N   UNL     1      44.912   7.957  12.177  0.00  0.00    +0.000 NA
ATOM     29  H   UNL     1      44.246   7.180  12.141  0.00  0.00    +0.000 HD
BRANCH  28  30
ATOM     30  C   UNL     1      44.419   8.952  11.215  0.00  0.00    +0.000 C 
BRANCH  30  31
ATOM     31  C   UNL     1      44.347  10.395  11.751  0.00  0.00    +0.000 C 
BRANCH  31  32
ATOM     32  N   UNL     1      42.989  10.753  12.176  0.00  0.00    +0.000 NA
ATOM     33  H   UNL     1      43.023  11.066  13.147  0.00  0.00    +0.000 HD
ATOM     34  H   UNL     1      42.412   9.910  12.181  0.00  0.00    +0.000 HD
ENDBRANCH  31  32
ENDBRANCH  30  31
ENDBRANCH  28  30
ENDBRANCH   1  28
TORSDOF 9
ENDMDL
