MODEL 1
REMARK VINA RESULT:    -7.956      0.000      0.000
REMARK INTER + INTRA:         -13.693
REMARK INTER:                 -12.375
REMARK INTRA:                  -1.319
REMARK UNBOUND:                -1.319
REMARK  Name = 
REMARK  10 active torsions:
REMARK  status: ('A' for Active; 'I' for Inactive)
REMARK    1  A    between atoms: C_2  and  C_23
REMARK    2  A    between atoms: N_3  and  C_4
REMARK    3  A    between atoms: C_4  and  C_5
REMARK    4  A    between atoms: C_8  and  C_9
REMARK    5  A    between atoms: C_9  and  CA_10
REMARK    6  A    between atoms: CA_10  and  C_11
REMARK    7  A    between atoms: CA_10  and  N_13
REMARK    8  A    between atoms: C_11  and  O_12
REMARK    9  A    between atoms: N_13  and  C_14
REMARK   10  A    between atoms: C_14  and  C_15
REMARK                            x       y       z     vdW  Elec       q    Type
REMARK                         _______ _______ _______ _____ _____    ______ ____
ROOT
ATOM      1  C   UNL     1      46.577   7.556  12.810  0.00  0.00    +0.000 A 
ATOM      2  C   UNL     1      46.983   6.275  12.445  0.00  0.00    +0.000 A 
ATOM      3  C   UNL     1      46.114   5.483  11.700  0.00  0.00    +0.000 A 
ATOM      4  C   UNL     1      44.851   5.973  11.362  0.00  0.00    +0.000 A 
ATOM      5  C   UNL     1      44.534   7.263  11.765  0.00  0.00    +0.000 A 
ATOM      6  N   UNL     1      45.360   8.055  12.479  0.00  0.00    +0.000 NA
ENDROOT
BRANCH   1   7
ATOM      7  C   UNL     1      47.464   8.419  13.672  0.00  0.00    +0.000 C 
BRANCH   7  10
ATOM      8  O   UNL     1      49.997   7.458  14.211  0.00  0.00    +0.000 OA
ATOM      9  C   UNL     1      49.147   7.361  15.093  0.00  0.00    +0.000 C 
ATOM     10  N   UNL     1      47.845   7.734  14.886  0.00  0.00    +0.000 N 
ATOM     11  H   UNL     1      47.246   7.900  15.691  0.00  0.00    +0.000 HD
BRANCH   9  12
ATOM     12  C   UNL     1      49.469   6.787  16.405  0.00  0.00    +0.000 A 
ATOM     13  C   UNL     1      50.310   7.477  17.267  0.00  0.00    +0.000 A 
ATOM     14  S   UNL     1      50.604   6.662  18.735  0.00  0.00    +0.000 S 
ATOM     15  C   UNL     1      49.579   5.379  18.294  0.00  0.00    +0.000 A 
ATOM     16  N   UNL     1      49.356   4.338  19.138  0.00  0.00    +0.000 NA
ATOM     17  C   UNL     1      48.530   3.452  18.690  0.00  0.00    +0.000 A 
ATOM     18  N   UNL     1      47.914   3.509  17.466  0.00  0.00    +0.000 N 
ATOM     19  C   UNL     1      48.137   4.519  16.567  0.00  0.00    +0.000 A 
ATOM     20  O   UNL     1      47.618   4.512  15.454  0.00  0.00    +0.000 OA
ATOM     21  C   UNL     1      49.039   5.561  17.035  0.00  0.00    +0.000 A 
ATOM     22  H   UNL     1      47.285   2.779  17.167  0.00  0.00    +0.000 HD
ENDBRANCH   9  12
ENDBRANCH   7  10
ENDBRANCH   1   7
BRANCH   4  23
ATOM     23  C   UNL     1      43.874   5.154  10.566  0.00  0.00    +0.000 C 
BRANCH  23  24
ATOM     24  CA  UNL     1      44.152   3.630  10.559  0.00  0.00    +0.000 C 
BRANCH  24  25
ATOM     25  N   UNL     1      43.937   3.019   9.216  0.00  0.00    +0.000 NA
ATOM     26  H   UNL     1      44.209   3.684   8.488  0.00  0.00    +0.000 HD
BRANCH  25  27
ATOM     27  C   UNL     1      44.760   1.808   9.038  0.00  0.00    +0.000 C 
BRANCH  27  28
ATOM     28  C   UNL     1      45.918   1.998   8.089  0.00  0.00    +0.000 A 
ATOM     29  C   UNL     1      46.733   0.929   7.736  0.00  0.00    +0.000 A 
ATOM     30  N   UNL     1      47.836   1.072   6.962  0.00  0.00    +0.000 NA
ATOM     31  C   UNL     1      48.088   2.332   6.544  0.00  0.00    +0.000 A 
ATOM     32  C   UNL     1      47.273   3.401   6.873  0.00  0.00    +0.000 A 
ATOM     33  N   UNL     1      46.170   3.259   7.643  0.00  0.00    +0.000 NA
ENDBRANCH  27  28
ENDBRANCH  25  27
ENDBRANCH  24  25
BRANCH  24  34
ATOM     34  C   UNL     1      43.252   2.919  11.605  0.00  0.00    +0.000 C 
BRANCH  34  35
ATOM     35  O   UNL     1      44.010   2.458  12.722  0.00  0.00    +0.000 OA
ATOM     36  H   UNL     1      43.544   2.790  13.510  0.00  0.00    +0.000 HD
ENDBRANCH  34  35
ENDBRANCH  24  34
ENDBRANCH  23  24
ENDBRANCH   4  23
TORSDOF 10
ENDMDL
MODEL 2
REMARK VINA RESULT:    -7.949      1.450      1.707
REMARK INTER + INTRA:         -13.683
REMARK INTER:                 -12.252
REMARK INTRA:                  -1.431
REMARK UNBOUND:                -1.319
REMARK  Name = 
REMARK  10 active torsions:
REMARK  status: ('A' for Active; 'I' for Inactive)
REMARK    1  A    between atoms: C_2  and  C_23
REMARK    2  A    between atoms: N_3  and  C_4
REMARK    3  A    between atoms: C_4  and  C_5
REMARK    4  A    between atoms: C_8  and  C_9
REMARK    5  A    between atoms: C_9  and  CA_10
REMARK    6  A    between atoms: CA_10  and  C_11
REMARK    7  A    between atoms: CA_10  and  N_13
REMARK    8  A    between atoms: C_11  and  O_12
REMARK    9  A    between atoms: N_13  and  C_14
REMARK   10  A    between atoms: C_14  and  C_15
REMARK                            x       y       z     vdW  Elec       q    Type
REMARK                         _______ _______ _______ _____ _____    ______ ____
ROOT
ATOM      1  C   UNL     1      47.961   8.008  13.066  0.00  0.00    +0.000 A 
ATOM      2  C   UNL     1      47.939   6.979  12.128  0.00  0.00    +0.000 A 
ATOM      3  C   UNL     1      46.741   6.682  11.486  0.00  0.00    +0.000 A 
ATOM      4  C   UNL     1      45.586   7.395  11.813  0.00  0.00    +0.000 A 
ATOM      5  C   UNL     1      45.703   8.407  12.757  0.00  0.00    +0.000 A 
ATOM      6  N   UNL     1      46.853   8.722  13.387  0.00  0.00    +0.000 NA
ENDROOT
BRANCH   1   7
ATOM      7  C   UNL     1      49.224   8.316  13.830  0.00  0.00    +0.000 C 
BRANCH   7  10
ATOM      8  O   UNL     1      48.425   8.717  16.444  0.00  0.00    +0.000 OA
ATOM      9  C   UNL     1      48.928   7.633  16.157  0.00  0.00    +0.000 C 
ATOM     10  N   UNL     1      49.428   7.376  14.908  0.00  0.00    +0.000 N 
ATOM     11  H   UNL     1      49.578   6.410  14.627  0.00  0.00    +0.000 HD
BRANCH   9  12
ATOM     12  C   UNL     1      49.069   6.568  17.158  0.00  0.00    +0.000 A 
ATOM     13  C   UNL     1      49.813   6.801  18.305  0.00  0.00    +0.000 A 
ATOM     14  S   UNL     1      49.900   5.455  19.350  0.00  0.00    +0.000 S 
ATOM     15  C   UNL     1      48.905   4.528  18.330  0.00  0.00    +0.000 A 
ATOM     16  N   UNL     1      48.550   3.260  18.662  0.00  0.00    +0.000 NA
ATOM     17  C   UNL     1      47.762   2.683  17.814  0.00  0.00    +0.000 A 
ATOM     18  N   UNL     1      47.307   3.261  16.658  0.00  0.00    +0.000 N 
ATOM     19  C   UNL     1      47.667   4.523  16.264  0.00  0.00    +0.000 A 
ATOM     20  O   UNL     1      47.291   4.991  15.193  0.00  0.00    +0.000 OA
ATOM     21  C   UNL     1      48.531   5.229  17.199  0.00  0.00    +0.000 A 
ATOM     22  H   UNL     1      46.700   2.755  16.029  0.00  0.00    +0.000 HD
ENDBRANCH   9  12
ENDBRANCH   7  10
ENDBRANCH   1   7
BRANCH   4  23
ATOM     23  C   UNL     1      44.267   7.107  11.154  0.00  0.00    +0.000 C 
BRANCH  23  24
ATOM     24  CA  UNL     1      43.813   5.627  11.220  0.00  0.00    +0.000 C 
BRANCH  24  25
ATOM     25  N   UNL     1      43.701   5.006   9.869  0.00  0.00    +0.000 NA
ATOM     26  H   UNL     1      44.342   5.472   9.222  0.00  0.00    +0.000 HD
BRANCH  25  27
ATOM     27  C   UNL     1      44.067   3.577   9.901  0.00  0.00    +0.000 C 
BRANCH  27  28
ATOM     28  C   UNL     1      45.102   3.195   8.871  0.00  0.00    +0.000 A 
ATOM     29  C   UNL     1      45.558   1.886   8.770  0.00  0.00    +0.000 A 
ATOM     30  N   UNL     1      46.551   1.518   7.925  0.00  0.00    +0.000 NA
ATOM     31  C   UNL     1      47.067   2.515   7.173  0.00  0.00    +0.000 A 
ATOM     32  C   UNL     1      46.608   3.818   7.251  0.00  0.00    +0.000 A 
ATOM     33  N   UNL     1      45.615   4.187   8.092  0.00  0.00    +0.000 NA
ENDBRANCH  27  28
ENDBRANCH  25  27
ENDBRANCH  24  25
BRANCH  24  34
ATOM     34  C   UNL     1      42.451   5.518  11.958  0.00  0.00    +0.000 C 
BRANCH  34  35
ATOM     35  O   UNL     1      42.621   5.533  13.374  0.00  0.00    +0.000 OA
ATOM     36  H   UNL     1      42.978   6.414  13.586  0.00  0.00    +0.000 HD
ENDBRANCH  34  35
ENDBRANCH  24  34
ENDBRANCH  23  24
ENDBRANCH   4  23
TORSDOF 10
ENDMDL
MODEL 3
REMARK VINA RESULT:    -7.775      2.875      3.732
REMARK INTER + INTRA:         -13.412
REMARK INTER:                 -12.148
REMARK INTRA:                  -1.265
REMARK UNBOUND:                -1.319
REMARK  Name = 
REMARK  10 active torsions:
REMARK  status: ('A' for Active; 'I' for Inactive)
REMARK    1  A    between atoms: C_2  and  C_23
REMARK    2  A    between atoms: N_3  and  C_4
REMARK    3  A    between atoms: C_4  and  C_5
REMARK    4  A    between atoms: C_8  and  C_9
REMARK    5  A    between atoms: C_9  and  CA_10
REMARK    6  A    between atoms: CA_10  and  C_11
REMARK    7  A    between atoms: CA_10  and  N_13
REMARK    8  A    between atoms: C_11  and  O_12
REMARK    9  A    between atoms: N_13  and  C_14
REMARK   10  A    between atoms: C_14  and  C_15
REMARK                            x       y       z     vdW  Elec       q    Type
REMARK                         _______ _______ _______ _____ _____    ______ ____
ROOT
ATOM      1  C   UNL     1      48.293   5.718  15.992  0.00  0.00    +0.000 A 
ATOM      2  C   UNL     1      47.487   4.582  15.975  0.00  0.00    +0.000 A 
ATOM      3  C   UNL     1      46.762   4.292  14.824  0.00  0.00    +0.000 A 
ATOM      4  C   UNL     1      46.831   5.152  13.727  0.00  0.00    +0.000 A 
ATOM      5  C   UNL     1      47.665   6.258  13.832  0.00  0.00    +0.000 A 
ATOM      6  N   UNL     1      48.386   6.559  14.931  0.00  0.00    +0.000 NA
ENDROOT
BRANCH   1   7
ATOM      7  C   UNL     1      49.043   6.102  17.242  0.00  0.00    +0.000 C 
BRANCH   7  10
ATOM      8  O   UNL     1      51.713   6.229  16.544  0.00  0.00    +0.000 OA
ATOM      9  C   UNL     1      51.351   5.298  17.260  0.00  0.00    +0.000 C 
ATOM     10  N   UNL     1      50.034   5.108  17.586  0.00  0.00    +0.000 N 
ATOM     11  H   UNL     1      49.804   4.514  18.380  0.00  0.00    +0.000 HD
BRANCH   9  12
ATOM     12  C   UNL     1      52.306   4.302  17.760  0.00  0.00    +0.000 A 
ATOM     13  C   UNL     1      53.502   4.723  18.324  0.00  0.00    +0.000 A 
ATOM     14  S   UNL     1      54.509   3.443  18.829  0.00  0.00    +0.000 S 
ATOM     15  C   UNL     1      53.363   2.280  18.357  0.00  0.00    +0.000 A 
ATOM     16  N   UNL     1      53.591   0.954  18.547  0.00  0.00    +0.000 NA
ATOM     17  C   UNL     1      52.622   0.184  18.174  0.00  0.00    +0.000 A 
ATOM     18  N   UNL     1      51.449   0.623  17.618  0.00  0.00    +0.000 N 
ATOM     19  C   UNL     1      51.190   1.946  17.373  0.00  0.00    +0.000 A 
ATOM     20  O   UNL     1      50.155   2.304  16.818  0.00  0.00    +0.000 OA
ATOM     21  C   UNL     1      52.239   2.860  17.802  0.00  0.00    +0.000 A 
ATOM     22  H   UNL     1      50.732  -0.029  17.337  0.00  0.00    +0.000 HD
ENDBRANCH   9  12
ENDBRANCH   7  10
ENDBRANCH   1   7
BRANCH   4  23
ATOM     23  C   UNL     1      46.062   4.886  12.464  0.00  0.00    +0.000 C 
BRANCH  23  24
ATOM     24  CA  UNL     1      44.761   4.065  12.653  0.00  0.00    +0.000 C 
BRANCH  24  25
ATOM     25  N   UNL     1      44.757   2.813  11.843  0.00  0.00    +0.000 NA
ATOM     26  H   UNL     1      44.242   2.082  12.341  0.00  0.00    +0.000 HD
BRANCH  25  27
ATOM     27  C   UNL     1      44.090   3.015  10.543  0.00  0.00    +0.000 C 
BRANCH  27  28
ATOM     28  C   UNL     1      45.044   3.075   9.376  0.00  0.00    +0.000 A 
ATOM     29  C   UNL     1      45.353   4.286   8.769  0.00  0.00    +0.000 A 
ATOM     30  N   UNL     1      46.130   4.376   7.663  0.00  0.00    +0.000 NA
ATOM     31  C   UNL     1      46.598   3.199   7.190  0.00  0.00    +0.000 A 
ATOM     32  C   UNL     1      46.314   1.989   7.798  0.00  0.00    +0.000 A 
ATOM     33  N   UNL     1      45.540   1.898   8.904  0.00  0.00    +0.000 NA
ENDBRANCH  27  28
ENDBRANCH  25  27
ENDBRANCH  24  25
BRANCH  24  34
ATOM     34  C   UNL     1      43.525   4.929  12.283  0.00  0.00    +0.000 C 
BRANCH  34  35
ATOM     35  O   UNL     1      43.218   5.870  13.310  0.00  0.00    +0.000 OA
ATOM     36  H   UNL     1      43.180   5.353  14.135  0.00  0.00    +0.000 HD
ENDBRANCH  34  35
ENDBRANCH  24  34
ENDBRANCH  23  24
ENDBRANCH   4  23
TORSDOF 10
ENDMDL
MODEL 4
REMARK VINA RESULT:    -7.035      1.766      2.434
REMARK INTER + INTRA:         -12.261
REMARK INTER:                 -11.129
REMARK INTRA:                  -1.132
REMARK UNBOUND:                -1.319
REMARK  Name = 
REMARK  10 active torsions:
REMARK  status: ('A' for Active; 'I' for Inactive)
REMARK    1  A    between atoms: C_2  and  C_23
REMARK    2  A    between atoms: N_3  and  C_4
REMARK    3  A    between atoms: C_4  and  C_5
REMARK    4  A    between atoms: C_8  and  C_9
REMARK    5  A    between atoms: C_9  and  CA_10
REMARK    6  A    between atoms: CA_10  and  C_11
REMARK    7  A    between atoms: CA_10  and  N_13
REMARK    8  A    between atoms: C_11  and  O_12
REMARK    9  A    between atoms: N_13  and  C_14
REMARK   10  A    between atoms: C_14  and  C_15
REMARK                            x       y       z     vdW  Elec       q    Type
REMARK                         _______ _______ _______ _____ _____    ______ ____
ROOT
ATOM      1  C   UNL     1      47.351   7.338  13.216  0.00  0.00    +0.000 A 
ATOM      2  C   UNL     1      46.290   8.162  12.846  0.00  0.00    +0.000 A 
ATOM      3  C   UNL     1      45.224   7.607  12.146  0.00  0.00    +0.000 A 
ATOM      4  C   UNL     1      45.250   6.254  11.804  0.00  0.00    +0.000 A 
ATOM      5  C   UNL     1      46.345   5.509  12.219  0.00  0.00    +0.000 A 
ATOM      6  N   UNL     1      47.388   6.018  12.907  0.00  0.00    +0.000 NA
ENDROOT
BRANCH   1   7
ATOM      7  C   UNL     1      48.554   7.915  13.919  0.00  0.00    +0.000 C 
BRANCH   7  10
ATOM      8  O   UNL     1      48.477   8.237  16.661  0.00  0.00    +0.000 OA
ATOM      9  C   UNL     1      48.947   7.191  16.219  0.00  0.00    +0.000 C 
ATOM     10  N   UNL     1      49.102   6.980  14.874  0.00  0.00    +0.000 N 
ATOM     11  H   UNL     1      49.228   6.029  14.537  0.00  0.00    +0.000 HD
BRANCH   9  12
ATOM     12  C   UNL     1      49.421   6.129  17.114  0.00  0.00    +0.000 A 
ATOM     13  C   UNL     1      48.510   5.439  17.901  0.00  0.00    +0.000 A 
ATOM     14  S   UNL     1      49.226   4.258  18.902  0.00  0.00    +0.000 S 
ATOM     15  C   UNL     1      50.774   4.591  18.284  0.00  0.00    +0.000 A 
ATOM     16  N   UNL     1      51.862   3.893  18.703  0.00  0.00    +0.000 NA
ATOM     17  C   UNL     1      52.969   4.226  18.125  0.00  0.00    +0.000 A 
ATOM     18  N   UNL     1      53.086   5.203  17.172  0.00  0.00    +0.000 N 
ATOM     19  C   UNL     1      52.025   5.959  16.745  0.00  0.00    +0.000 A 
ATOM     20  O   UNL     1      52.172   6.869  15.934  0.00  0.00    +0.000 OA
ATOM     21  C   UNL     1      50.747   5.604  17.344  0.00  0.00    +0.000 A 
ATOM     22  H   UNL     1      53.982   5.425  16.764  0.00  0.00    +0.000 HD
ENDBRANCH   9  12
ENDBRANCH   7  10
ENDBRANCH   1   7
BRANCH   4  23
ATOM     23  C   UNL     1      44.126   5.610  11.042  0.00  0.00    +0.000 C 
BRANCH  23  24
ATOM     24  CA  UNL     1      44.166   4.061  11.005  0.00  0.00    +0.000 C 
BRANCH  24  25
ATOM     25  N   UNL     1      43.803   3.515   9.666  0.00  0.00    +0.000 NA
ATOM     26  H   UNL     1      44.068   4.184   8.938  0.00  0.00    +0.000 HD
BRANCH  25  27
ATOM     27  C   UNL     1      44.515   2.254   9.386  0.00  0.00    +0.000 C 
BRANCH  27  28
ATOM     28  C   UNL     1      45.611   2.393   8.358  0.00  0.00    +0.000 A 
ATOM     29  C   UNL     1      45.746   3.558   7.613  0.00  0.00    +0.000 A 
ATOM     30  N   UNL     1      46.655   3.692   6.617  0.00  0.00    +0.000 NA
ATOM     31  C   UNL     1      47.436   2.610   6.401  0.00  0.00    +0.000 A 
ATOM     32  C   UNL     1      47.325   1.452   7.150  0.00  0.00    +0.000 A 
ATOM     33  N   UNL     1      46.419   1.318   8.147  0.00  0.00    +0.000 NA
ENDBRANCH  27  28
ENDBRANCH  25  27
ENDBRANCH  24  25
BRANCH  24  34
ATOM     34  C   UNL     1      43.213   3.476  12.082  0.00  0.00    +0.000 C 
BRANCH  34  35
ATOM     35  O   UNL     1      43.786   2.339  12.725  0.00  0.00    +0.000 OA
ATOM     36  H   UNL     1      44.161   2.672  13.561  0.00  0.00    +0.000 HD
ENDBRANCH  34  35
ENDBRANCH  24  34
ENDBRANCH  23  24
ENDBRANCH   4  23
TORSDOF 10
ENDMDL
MODEL 5
REMARK VINA RESULT:    -6.851      3.315      8.087
REMARK INTER + INTRA:         -11.974
REMARK INTER:                 -10.716
REMARK INTRA:                  -1.258
REMARK UNBOUND:                -1.319
REMARK  Name = 
REMARK  10 active torsions:
REMARK  status: ('A' for Active; 'I' for Inactive)
REMARK    1  A    between atoms: C_2  and  C_23
REMARK    2  A    between atoms: N_3  and  C_4
REMARK    3  A    between atoms: C_4  and  C_5
REMARK    4  A    between atoms: C_8  and  C_9
REMARK    5  A    between atoms: C_9  and  CA_10
REMARK    6  A    between atoms: CA_10  and  C_11
REMARK    7  A    between atoms: CA_10  and  N_13
REMARK    8  A    between atoms: C_11  and  O_12
REMARK    9  A    between atoms: N_13  and  C_14
REMARK   10  A    between atoms: C_14  and  C_15
REMARK                            x       y       z     vdW  Elec       q    Type
REMARK                         _______ _______ _______ _____ _____    ______ ____
ROOT
ATOM      1  C   UNL     1      48.594   8.091  13.460  0.00  0.00    +0.000 A 
ATOM      2  C   UNL     1      48.091   9.029  14.359  0.00  0.00    +0.000 A 
ATOM      3  C   UNL     1      48.370   8.876  15.713  0.00  0.00    +0.000 A 
ATOM      4  C   UNL     1      49.116   7.779  16.146  0.00  0.00    +0.000 A 
ATOM      5  C   UNL     1      49.580   6.897  15.179  0.00  0.00    +0.000 A 
ATOM      6  N   UNL     1      49.333   7.026  13.859  0.00  0.00    +0.000 NA
ENDROOT
BRANCH   1   7
ATOM      7  C   UNL     1      48.259   8.186  11.993  0.00  0.00    +0.000 C 
BRANCH   7  10
ATOM      8  O   UNL     1      45.518   7.908  11.792  0.00  0.00    +0.000 OA
ATOM      9  C   UNL     1      46.220   6.981  11.393  0.00  0.00    +0.000 C 
ATOM     10  N   UNL     1      47.583   6.996  11.530  0.00  0.00    +0.000 N 
ATOM     11  H   UNL     1      48.142   6.366  10.960  0.00  0.00    +0.000 HD
BRANCH   9  12
ATOM     12  C   UNL     1      45.628   5.778  10.796  0.00  0.00    +0.000 A 
ATOM     13  C   UNL     1      45.839   5.506   9.452  0.00  0.00    +0.000 A 
ATOM     14  S   UNL     1      45.062   4.088   8.911  0.00  0.00    +0.000 S 
ATOM     15  C   UNL     1      44.456   3.758  10.464  0.00  0.00    +0.000 A 
ATOM     16  N   UNL     1      43.717   2.645  10.707  0.00  0.00    +0.000 NA
ATOM     17  C   UNL     1      43.351   2.501  11.938  0.00  0.00    +0.000 A 
ATOM     18  N   UNL     1      43.651   3.379  12.947  0.00  0.00    +0.000 N 
ATOM     19  C   UNL     1      44.362   4.533  12.743  0.00  0.00    +0.000 A 
ATOM     20  O   UNL     1      44.563   5.330  13.655  0.00  0.00    +0.000 OA
ATOM     21  C   UNL     1      44.824   4.729  11.377  0.00  0.00    +0.000 A 
ATOM     22  H   UNL     1      43.328   3.217  13.889  0.00  0.00    +0.000 HD
ENDBRANCH   9  12
ENDBRANCH   7  10
ENDBRANCH   1   7
BRANCH   4  23
ATOM     23  C   UNL     1      49.438   7.565  17.599  0.00  0.00    +0.000 C 
BRANCH  23  24
ATOM     24  CA  UNL     1      48.334   6.841  18.411  0.00  0.00    +0.000 C 
BRANCH  24  25
ATOM     25  N   UNL     1      47.531   5.906  17.571  0.00  0.00    +0.000 NA
ATOM     26  H   UNL     1      47.944   5.843  16.637  0.00  0.00    +0.000 HD
BRANCH  25  27
ATOM     27  C   UNL     1      47.518   4.546  18.141  0.00  0.00    +0.000 C 
BRANCH  27  28
ATOM     28  C   UNL     1      48.624   3.661  17.621  0.00  0.00    +0.000 A 
ATOM     29  C   UNL     1      48.371   2.700  16.650  0.00  0.00    +0.000 A 
ATOM     30  N   UNL     1      49.312   1.824  16.221  0.00  0.00    +0.000 NA
ATOM     31  C   UNL     1      50.526   1.954  16.800  0.00  0.00    +0.000 A 
ATOM     32  C   UNL     1      50.796   2.920  17.753  0.00  0.00    +0.000 A 
ATOM     33  N   UNL     1      49.858   3.797  18.180  0.00  0.00    +0.000 NA
ENDBRANCH  27  28
ENDBRANCH  25  27
ENDBRANCH  24  25
BRANCH  24  34
ATOM     34  C   UNL     1      47.394   7.880  19.079  0.00  0.00    +0.000 C 
BRANCH  34  35
ATOM     35  O   UNL     1      48.133   8.907  19.738  0.00  0.00    +0.000 OA
ATOM     36  H   UNL     1      48.520   8.486  20.527  0.00  0.00    +0.000 HD
ENDBRANCH  34  35
ENDBRANCH  24  34
ENDBRANCH  23  24
ENDBRANCH   4  23
TORSDOF 10
ENDMDL
MODEL 6
REMARK VINA RESULT:    -6.675      1.865      2.234
REMARK INTER + INTRA:         -11.701
REMARK INTER:                 -11.197
REMARK INTRA:                  -0.503
REMARK UNBOUND:                -1.319
REMARK  Name = 
REMARK  10 active torsions:
REMARK  status: ('A' for Active; 'I' for Inactive)
REMARK    1  A    between atoms: C_2  and  C_23
REMARK    2  A    between atoms: N_3  and  C_4
REMARK    3  A    between atoms: C_4  and  C_5
REMARK    4  A    between atoms: C_8  and  C_9
REMARK    5  A    between atoms: C_9  and  CA_10
REMARK    6  A    between atoms: CA_10  and  C_11
REMARK    7  A    between atoms: CA_10  and  N_13
REMARK    8  A    between atoms: C_11  and  O_12
REMARK    9  A    between atoms: N_13  and  C_14
REMARK   10  A    between atoms: C_14  and  C_15
REMARK                            x       y       z     vdW  Elec       q    Type
REMARK                         _______ _______ _______ _____ _____    ______ ____
ROOT
ATOM      1  C   UNL     1      47.336   6.853  12.829  0.00  0.00    +0.000 A 
ATOM      2  C   UNL     1      47.494   5.479  13.000  0.00  0.00    +0.000 A 
ATOM      3  C   UNL     1      46.359   4.680  13.089  0.00  0.00    +0.000 A 
ATOM      4  C   UNL     1      45.094   5.267  13.037  0.00  0.00    +0.000 A 
ATOM      5  C   UNL     1      45.032   6.643  12.861  0.00  0.00    +0.000 A 
ATOM      6  N   UNL     1      46.115   7.441  12.761  0.00  0.00    +0.000 NA
ENDROOT
BRANCH   1   7
ATOM      7  C   UNL     1      48.540   7.760  12.793  0.00  0.00    +0.000 C 
BRANCH   7  10
ATOM      8  O   UNL     1      48.948   8.501  15.422  0.00  0.00    +0.000 OA
ATOM      9  C   UNL     1      49.675   7.629  14.953  0.00  0.00    +0.000 C 
ATOM     10  N   UNL     1      49.601   7.258  13.636  0.00  0.00    +0.000 N 
ATOM     11  H   UNL     1      50.006   6.369  13.352  0.00  0.00    +0.000 HD
BRANCH   9  12
ATOM     12  C   UNL     1      50.705   6.973  15.768  0.00  0.00    +0.000 A 
ATOM     13  C   UNL     1      52.018   7.413  15.697  0.00  0.00    +0.000 A 
ATOM     14  S   UNL     1      53.092   6.529  16.684  0.00  0.00    +0.000 S 
ATOM     15  C   UNL     1      51.831   5.557  17.280  0.00  0.00    +0.000 A 
ATOM     16  N   UNL     1      52.068   4.595  18.211  0.00  0.00    +0.000 NA
ATOM     17  C   UNL     1      51.015   3.955  18.601  0.00  0.00    +0.000 A 
ATOM     18  N   UNL     1      49.747   4.185  18.135  0.00  0.00    +0.000 N 
ATOM     19  C   UNL     1      49.466   5.118  17.171  0.00  0.00    +0.000 A 
ATOM     20  O   UNL     1      48.329   5.259  16.730  0.00  0.00    +0.000 OA
ATOM     21  C   UNL     1      50.614   5.888  16.717  0.00  0.00    +0.000 A 
ATOM     22  H   UNL     1      48.965   3.644  18.472  0.00  0.00    +0.000 HD
ENDBRANCH   9  12
ENDBRANCH   7  10
ENDBRANCH   1   7
BRANCH   4  23
ATOM     23  C   UNL     1      43.838   4.448  13.136  0.00  0.00    +0.000 C 
BRANCH  23  24
ATOM     24  CA  UNL     1      42.977   4.415  11.848  0.00  0.00    +0.000 C 
BRANCH  24  25
ATOM     25  N   UNL     1      43.535   3.494  10.816  0.00  0.00    +0.000 NA
ATOM     26  H   UNL     1      42.784   2.921  10.423  0.00  0.00    +0.000 HD
BRANCH  25  27
ATOM     27  C   UNL     1      44.147   4.243   9.701  0.00  0.00    +0.000 C 
BRANCH  27  28
ATOM     28  C   UNL     1      45.148   3.438   8.909  0.00  0.00    +0.000 A 
ATOM     29  C   UNL     1      45.967   4.047   7.966  0.00  0.00    +0.000 A 
ATOM     30  N   UNL     1      46.813   3.351   7.169  0.00  0.00    +0.000 NA
ATOM     31  C   UNL     1      46.814   2.013   7.359  0.00  0.00    +0.000 A 
ATOM     32  C   UNL     1      46.018   1.397   8.309  0.00  0.00    +0.000 A 
ATOM     33  N   UNL     1      45.175   2.091   9.107  0.00  0.00    +0.000 NA
ENDBRANCH  27  28
ENDBRANCH  25  27
ENDBRANCH  24  25
BRANCH  24  34
ATOM     34  C   UNL     1      42.847   5.844  11.255  0.00  0.00    +0.000 C 
BRANCH  34  35
ATOM     35  O   UNL     1      41.711   6.526  11.782  0.00  0.00    +0.000 OA
ATOM     36  H   UNL     1      41.984   7.457  11.876  0.00  0.00    +0.000 HD
ENDBRANCH  34  35
ENDBRANCH  24  34
ENDBRANCH  23  24
ENDBRANCH   4  23
TORSDOF 10
ENDMDL
MODEL 7
REMARK VINA RESULT:    -6.571      2.953      8.641
REMARK INTER + INTRA:         -11.539
REMARK INTER:                  -9.936
REMARK INTRA:                  -1.603
REMARK UNBOUND:                -1.319
REMARK  Name = 
REMARK  10 active torsions:
REMARK  status: ('A' for Active; 'I' for Inactive)
REMARK    1  A    between atoms: C_2  and  C_23
REMARK    2  A    between atoms: N_3  and  C_4
REMARK    3  A    between atoms: C_4  and  C_5
REMARK    4  A    between atoms: C_8  and  C_9
REMARK    5  A    between atoms: C_9  and  CA_10
REMARK    6  A    between atoms: CA_10  and  C_11
REMARK    7  A    between atoms: CA_10  and  N_13
REMARK    8  A    between atoms: C_11  and  O_12
REMARK    9  A    between atoms: N_13  and  C_14
REMARK   10  A    between atoms: C_14  and  C_15
REMARK                            x       y       z     vdW  Elec       q    Type
REMARK                         _______ _______ _______ _____ _____    ______ ____
ROOT
ATOM      1  C   UNL     1      47.969   7.850  13.343  0.00  0.00    +0.000 A 
ATOM      2  C   UNL     1      48.885   6.924  13.838  0.00  0.00    +0.000 A 
ATOM      3  C   UNL     1      49.386   7.099  15.124  0.00  0.00    +0.000 A 
ATOM      4  C   UNL     1      48.989   8.206  15.876  0.00  0.00    +0.000 A 
ATOM      5  C   UNL     1      48.068   9.074  15.304  0.00  0.00    +0.000 A 
ATOM      6  N   UNL     1      47.559   8.923  14.064  0.00  0.00    +0.000 NA
ENDROOT
BRANCH   1   7
ATOM      7  C   UNL     1      47.453   7.731  11.931  0.00  0.00    +0.000 C 
BRANCH   7  10
ATOM      8  O   UNL     1      44.739   7.292  12.190  0.00  0.00    +0.000 OA
ATOM      9  C   UNL     1      45.435   6.359  11.795  0.00  0.00    +0.000 C 
ATOM     10  N   UNL     1      46.799   6.460  11.716  0.00  0.00    +0.000 N 
ATOM     11  H   UNL     1      47.310   5.794  11.141  0.00  0.00    +0.000 HD
BRANCH   9  12
ATOM     12  C   UNL     1      44.846   5.064  11.437  0.00  0.00    +0.000 A 
ATOM     13  C   UNL     1      44.041   4.401  12.351  0.00  0.00    +0.000 A 
ATOM     14  S   UNL     1      43.459   2.899  11.790  0.00  0.00    +0.000 S 
ATOM     15  C   UNL     1      44.221   3.103  10.284  0.00  0.00    +0.000 A 
ATOM     16  N   UNL     1      44.095   2.172   9.303  0.00  0.00    +0.000 NA
ATOM     17  C   UNL     1      44.698   2.470   8.199  0.00  0.00    +0.000 A 
ATOM     18  N   UNL     1      45.425   3.614   7.994  0.00  0.00    +0.000 N 
ATOM     19  C   UNL     1      45.611   4.563   8.965  0.00  0.00    +0.000 A 
ATOM     20  O   UNL     1      46.318   5.547   8.771  0.00  0.00    +0.000 OA
ATOM     21  C   UNL     1      44.928   4.289  10.221  0.00  0.00    +0.000 A 
ATOM     22  H   UNL     1      45.882   3.786   7.111  0.00  0.00    +0.000 HD
ENDBRANCH   9  12
ENDBRANCH   7  10
ENDBRANCH   1   7
BRANCH   4  23
ATOM     23  C   UNL     1      49.507   8.443  17.267  0.00  0.00    +0.000 C 
BRANCH  23  24
ATOM     24  CA  UNL     1      49.053   7.399  18.319  0.00  0.00    +0.000 C 
BRANCH  24  25
ATOM     25  N   UNL     1      47.569   7.319  18.436  0.00  0.00    +0.000 NA
ATOM     26  H   UNL     1      47.145   7.423  17.511  0.00  0.00    +0.000 HD
BRANCH  25  27
ATOM     27  C   UNL     1      47.141   6.014  18.974  0.00  0.00    +0.000 C 
BRANCH  27  28
ATOM     28  C   UNL     1      47.695   4.835  18.212  0.00  0.00    +0.000 A 
ATOM     29  C   UNL     1      47.125   4.430  17.012  0.00  0.00    +0.000 A 
ATOM     30  N   UNL     1      47.531   3.323  16.343  0.00  0.00    +0.000 NA
ATOM     31  C   UNL     1      48.542   2.639  16.921  0.00  0.00    +0.000 A 
ATOM     32  C   UNL     1      49.132   3.044  18.106  0.00  0.00    +0.000 A 
ATOM     33  N   UNL     1      48.729   4.150  18.774  0.00  0.00    +0.000 NA
ENDBRANCH  27  28
ENDBRANCH  25  27
ENDBRANCH  24  25
BRANCH  24  34
ATOM     34  C   UNL     1      49.667   7.737  19.705  0.00  0.00    +0.000 C 
BRANCH  34  35
ATOM     35  O   UNL     1      50.235   6.583  20.320  0.00  0.00    +0.000 OA
ATOM     36  H   UNL     1      51.097   6.870  20.672  0.00  0.00    +0.000 HD
ENDBRANCH  34  35
ENDBRANCH  24  34
ENDBRANCH  23  24
ENDBRANCH   4  23
TORSDOF 10
ENDMDL
MODEL 8
REMARK VINA RESULT:    -6.315      3.303      8.472
REMARK INTER + INTRA:         -11.140
REMARK INTER:                  -9.900
REMARK INTRA:                  -1.240
REMARK UNBOUND:                -1.319
REMARK  Name = 
REMARK  10 active torsions:
REMARK  status: ('A' for Active; 'I' for Inactive)
REMARK    1  A    between atoms: C_2  and  C_23
REMARK    2  A    between atoms: N_3  and  C_4
REMARK    3  A    between atoms: C_4  and  C_5
REMARK    4  A    between atoms: C_8  and  C_9
REMARK    5  A    between atoms: C_9  and  CA_10
REMARK    6  A    between atoms: CA_10  and  C_11
REMARK    7  A    between atoms: CA_10  and  N_13
REMARK    8  A    between atoms: C_11  and  O_12
REMARK    9  A    between atoms: N_13  and  C_14
REMARK   10  A    between atoms: C_14  and  C_15
REMARK                            x       y       z     vdW  Elec       q    Type
REMARK                         _______ _______ _______ _____ _____    ______ ____
ROOT
ATOM      1  C   UNL     1      49.049   7.639  13.516  0.00  0.00    +0.000 A 
ATOM      2  C   UNL     1      50.239   8.308  13.787  0.00  0.00    +0.000 A 
ATOM      3  C   UNL     1      50.929   8.004  14.957  0.00  0.00    +0.000 A 
ATOM      4  C   UNL     1      50.403   7.063  15.844  0.00  0.00    +0.000 A 
ATOM      5  C   UNL     1      49.213   6.442  15.489  0.00  0.00    +0.000 A 
ATOM      6  N   UNL     1      48.529   6.710  14.358  0.00  0.00    +0.000 NA
ENDROOT
BRANCH   1   7
ATOM      7  C   UNL     1      48.240   7.987  12.292  0.00  0.00    +0.000 C 
BRANCH   7  10
ATOM      8  O   UNL     1      45.533   7.910  11.753  0.00  0.00    +0.000 OA
ATOM      9  C   UNL     1      46.202   6.917  11.474  0.00  0.00    +0.000 C 
ATOM     10  N   UNL     1      47.534   6.834  11.783  0.00  0.00    +0.000 N 
ATOM     11  H   UNL     1      48.107   6.141  11.308  0.00  0.00    +0.000 HD
BRANCH   9  12
ATOM     12  C   UNL     1      45.594   5.739  10.843  0.00  0.00    +0.000 A 
ATOM     13  C   UNL     1      45.786   5.512   9.488  0.00  0.00    +0.000 A 
ATOM     14  S   UNL     1      44.993   4.119   8.908  0.00  0.00    +0.000 S 
ATOM     15  C   UNL     1      44.404   3.740  10.457  0.00  0.00    +0.000 A 
ATOM     16  N   UNL     1      43.660   2.624  10.670  0.00  0.00    +0.000 NA
ATOM     17  C   UNL     1      43.309   2.440  11.900  0.00  0.00    +0.000 A 
ATOM     18  N   UNL     1      43.627   3.280  12.935  0.00  0.00    +0.000 N 
ATOM     19  C   UNL     1      44.343   4.436  12.762  0.00  0.00    +0.000 A 
ATOM     20  O   UNL     1      44.561   5.199  13.698  0.00  0.00    +0.000 OA
ATOM     21  C   UNL     1      44.790   4.676  11.397  0.00  0.00    +0.000 A 
ATOM     22  H   UNL     1      43.314   3.087  13.875  0.00  0.00    +0.000 HD
ENDBRANCH   9  12
ENDBRANCH   7  10
ENDBRANCH   1   7
BRANCH   4  23
ATOM     23  C   UNL     1      51.105   6.704  17.123  0.00  0.00    +0.000 C 
BRANCH  23  24
ATOM     24  CA  UNL     1      52.260   5.683  16.970  0.00  0.00    +0.000 C 
BRANCH  24  25
ATOM     25  N   UNL     1      52.215   4.614  18.009  0.00  0.00    +0.000 NA
ATOM     26  H   UNL     1      52.870   4.839  18.762  0.00  0.00    +0.000 HD
BRANCH  25  27
ATOM     27  C   UNL     1      50.872   4.503  18.609  0.00  0.00    +0.000 C 
BRANCH  27  28
ATOM     28  C   UNL     1      49.936   3.608  17.835  0.00  0.00    +0.000 A 
ATOM     29  C   UNL     1      50.423   2.540  17.090  0.00  0.00    +0.000 A 
ATOM     30  N   UNL     1      49.630   1.769  16.308  0.00  0.00    +0.000 NA
ATOM     31  C   UNL     1      48.320   2.102  16.308  0.00  0.00    +0.000 A 
ATOM     32  C   UNL     1      47.821   3.150  17.061  0.00  0.00    +0.000 A 
ATOM     33  N   UNL     1      48.611   3.920  17.845  0.00  0.00    +0.000 NA
ENDBRANCH  27  28
ENDBRANCH  25  27
ENDBRANCH  24  25
BRANCH  24  34
ATOM     34  C   UNL     1      53.630   6.412  17.032  0.00  0.00    +0.000 C 
BRANCH  34  35
ATOM     35  O   UNL     1      54.648   5.671  16.362  0.00  0.00    +0.000 OA
ATOM     36  H   UNL     1      54.242   4.815  16.135  0.00  0.00    +0.000 HD
ENDBRANCH  34  35
ENDBRANCH  24  34
ENDBRANCH  23  24
ENDBRANCH   4  23
TORSDOF 10
ENDMDL
MODEL 9
REMARK VINA RESULT:    -6.247      2.902      8.743
REMARK INTER + INTRA:         -11.036
REMARK INTER:                  -9.683
REMARK INTRA:                  -1.352
REMARK UNBOUND:                -1.319
REMARK  Name = 
REMARK  10 active torsions:
REMARK  status: ('A' for Active; 'I' for Inactive)
REMARK    1  A    between atoms: C_2  and  C_23
REMARK    2  A    between atoms: N_3  and  C_4
REMARK    3  A    between atoms: C_4  and  C_5
REMARK    4  A    between atoms: C_8  and  C_9
REMARK    5  A    between atoms: C_9  and  CA_10
REMARK    6  A    between atoms: CA_10  and  C_11
REMARK    7  A    between atoms: CA_10  and  N_13
REMARK    8  A    between atoms: C_11  and  O_12
REMARK    9  A    between atoms: N_13  and  C_14
REMARK   10  A    between atoms: C_14  and  C_15
REMARK                            x       y       z     vdW  Elec       q    Type
REMARK                         _______ _______ _______ _____ _____    ______ ____
ROOT
ATOM      1  C   UNL     1      47.724   8.261  13.124  0.00  0.00    +0.000 A 
ATOM      2  C   UNL     1      48.239   9.502  13.490  0.00  0.00    +0.000 A 
ATOM      3  C   UNL     1      49.146   9.567  14.543  0.00  0.00    +0.000 A 
ATOM      4  C   UNL     1      49.496   8.401  15.226  0.00  0.00    +0.000 A 
ATOM      5  C   UNL     1      48.936   7.208  14.789  0.00  0.00    +0.000 A 
ATOM      6  N   UNL     1      48.062   7.115  13.765  0.00  0.00    +0.000 NA
ENDROOT
BRANCH   1   7
ATOM      7  C   UNL     1      46.689   8.159  12.031  0.00  0.00    +0.000 C 
BRANCH   7  10
ATOM      8  O   UNL     1      44.075   7.466  11.472  0.00  0.00    +0.000 OA
ATOM      9  C   UNL     1      44.907   6.563  11.534  0.00  0.00    +0.000 C 
ATOM     10  N   UNL     1      46.208   6.804  11.889  0.00  0.00    +0.000 N 
ATOM     11  H   UNL     1      46.915   6.107  11.668  0.00  0.00    +0.000 HD
BRANCH   9  12
ATOM     12  C   UNL     1      44.537   5.165  11.286  0.00  0.00    +0.000 A 
ATOM     13  C   UNL     1      43.731   4.498  12.197  0.00  0.00    +0.000 A 
ATOM     14  S   UNL     1      43.417   2.875  11.774  0.00  0.00    +0.000 S 
ATOM     15  C   UNL     1      44.307   3.020  10.333  0.00  0.00    +0.000 A 
ATOM     16  N   UNL     1      44.413   1.978   9.467  0.00  0.00    +0.000 NA
ATOM     17  C   UNL     1      45.088   2.237   8.396  0.00  0.00    +0.000 A 
ATOM     18  N   UNL     1      45.675   3.444   8.119  0.00  0.00    +0.000 N 
ATOM     19  C   UNL     1      45.627   4.510   8.978  0.00  0.00    +0.000 A 
ATOM     20  O   UNL     1      46.215   5.559   8.730  0.00  0.00    +0.000 OA
ATOM     21  C   UNL     1      44.853   4.281  10.189  0.00  0.00    +0.000 A 
ATOM     22  H   UNL     1      46.200   3.582   7.268  0.00  0.00    +0.000 HD
ENDBRANCH   9  12
ENDBRANCH   7  10
ENDBRANCH   1   7
BRANCH   4  23
ATOM     23  C   UNL     1      50.466   8.418  16.375  0.00  0.00    +0.000 C 
BRANCH  23  24
ATOM     24  CA  UNL     1      51.262   7.104  16.577  0.00  0.00    +0.000 C 
BRANCH  24  25
ATOM     25  N   UNL     1      51.026   6.499  17.920  0.00  0.00    +0.000 NA
ATOM     26  H   UNL     1      50.125   6.815  18.286  0.00  0.00    +0.000 HD
BRANCH  25  27
ATOM     27  C   UNL     1      50.980   5.026  17.846  0.00  0.00    +0.000 C 
BRANCH  27  28
ATOM     28  C   UNL     1      49.607   4.478  17.545  0.00  0.00    +0.000 A 
ATOM     29  C   UNL     1      48.465   5.127  18.000  0.00  0.00    +0.000 A 
ATOM     30  N   UNL     1      47.218   4.622  17.833  0.00  0.00    +0.000 NA
ATOM     31  C   UNL     1      47.158   3.441  17.181  0.00  0.00    +0.000 A 
ATOM     32  C   UNL     1      48.286   2.795  16.705  0.00  0.00    +0.000 A 
ATOM     33  N   UNL     1      49.531   3.299  16.869  0.00  0.00    +0.000 NA
ENDBRANCH  27  28
ENDBRANCH  25  27
ENDBRANCH  24  25
BRANCH  24  34
ATOM     34  C   UNL     1      52.780   7.364  16.382  0.00  0.00    +0.000 C 
BRANCH  34  35
ATOM     35  O   UNL     1      53.237   6.872  15.124  0.00  0.00    +0.000 OA
ATOM     36  H   UNL     1      53.123   7.610  14.497  0.00  0.00    +0.000 HD
ENDBRANCH  34  35
ENDBRANCH  24  34
ENDBRANCH  23  24
ENDBRANCH   4  23
TORSDOF 10
ENDMDL
