MODEL 1
REMARK VINA RESULT:    -8.097      0.000      0.000
REMARK INTER + INTRA:         -12.338
REMARK INTER:                 -11.410
REMARK INTRA:                  -0.928
REMARK UNBOUND:                -0.928
REMARK  Name = 
REMARK  8 active torsions:
REMARK  status: ('A' for Active; 'I' for Inactive)
REMARK    1  A    between atoms: C_1  and  C_2
REMARK    2  A    between atoms: C_2  and  C_3
REMARK    3  A    between atoms: C_2  and  C_14
REMARK    4  A    between atoms: C_3  and  O_4
REMARK    5  A    between atoms: O_4  and  C_5
REMARK    6  A    between atoms: C_8  and  C_9
REMARK    7  A    between atoms: C_18  and  O_19
REMARK    8  A    between atoms: O_19  and  C_20
REMARK                            x       y       z     vdW  Elec       q    Type
REMARK                         _______ _______ _______ _____ _____    ______ ____
ROOT
ATOM      1  C   UNL     1      43.352   4.035  12.620  0.00  0.00    +0.000 C 
ATOM      2  C   UNL     1      44.026   5.368  12.276  0.00  0.00    +0.000 C 
ENDROOT
BRANCH   2   3
ATOM      3  C   UNL     1      45.369   5.508  12.980  0.00  0.00    +0.000 A 
ATOM      4  C   UNL     1      46.089   6.705  12.876  0.00  0.00    +0.000 A 
ATOM      5  C   UNL     1      47.326   6.852  13.505  0.00  0.00    +0.000 A 
ATOM      6  C   UNL     1      47.859   5.813  14.272  0.00  0.00    +0.000 A 
ATOM      7  C   UNL     1      47.132   4.638  14.446  0.00  0.00    +0.000 A 
ATOM      8  C   UNL     1      45.915   4.476  13.766  0.00  0.00    +0.000 A 
BRANCH   7   9
ATOM      9  O   UNL     1      47.512   3.575  15.208  0.00  0.00    +0.000 OA
BRANCH   9  10
ATOM     10  C   UNL     1      47.622   3.733  16.618  0.00  0.00    +0.000 C 
ATOM     11  F   UNL     1      46.773   4.639  17.146  0.00  0.00    +0.000 F 
ATOM     12  F   UNL     1      47.361   2.541  17.202  0.00  0.00    +0.000 F 
ATOM     13  F   UNL     1      48.887   4.085  16.933  0.00  0.00    +0.000 F 
ENDBRANCH   9  10
ENDBRANCH   7   9
ENDBRANCH   2   3
BRANCH   2  14
ATOM     14  C   UNL     1      44.129   5.579  10.749  0.00  0.00    +0.000 C 
BRANCH  14  15
ATOM     15  O   UNL     1      43.684   4.388  10.080  0.00  0.00    +0.000 OA
BRANCH  15  16
ATOM     16  C   UNL     1      44.652   3.794   9.301  0.00  0.00    +0.000 A 
ATOM     17  C   UNL     1      44.843   2.420   9.429  0.00  0.00    +0.000 A 
ATOM     18  N   UNL     1      45.730   1.718   8.676  0.00  0.00    +0.000 NA
ATOM     19  C   UNL     1      46.425   2.472   7.778  0.00  0.00    +0.000 A 
ATOM     20  C   UNL     1      46.249   3.845   7.660  0.00  0.00    +0.000 A 
ATOM     21  N   UNL     1      45.360   4.537   8.419  0.00  0.00    +0.000 NA
BRANCH  19  22
ATOM     22  C   UNL     1      47.386   1.779   6.876  0.00  0.00    +0.000 C 
ATOM     23  N   UNL     1      48.458   2.518   6.458  0.00  0.00    +0.000 N 
ATOM     24  O   UNL     1      47.237   0.611   6.537  0.00  0.00    +0.000 OA
ATOM     25  H   UNL     1      48.569   3.479   6.771  0.00  0.00    +0.000 HD
ATOM     26  H   UNL     1      49.157   2.093   5.868  0.00  0.00    +0.000 HD
ENDBRANCH  19  22
ENDBRANCH  15  16
ENDBRANCH  14  15
ENDBRANCH   2  14
TORSDOF 7
ENDMDL
MODEL 2
REMARK VINA RESULT:    -7.299      1.560      2.101
REMARK INTER + INTRA:         -11.213
REMARK INTER:                 -10.383
REMARK INTRA:                  -0.830
REMARK UNBOUND:                -0.928
REMARK  Name = 
REMARK  8 active torsions:
REMARK  status: ('A' for Active; 'I' for Inactive)
REMARK    1  A    between atoms: C_1  and  C_2
REMARK    2  A    between atoms: C_2  and  C_3
REMARK    3  A    between atoms: C_2  and  C_14
REMARK    4  A    between atoms: C_3  and  O_4
REMARK    5  A    between atoms: O_4  and  C_5
REMARK    6  A    between atoms: C_8  and  C_9
REMARK    7  A    between atoms: C_18  and  O_19
REMARK    8  A    between atoms: O_19  and  C_20
REMARK                            x       y       z     vdW  Elec       q    Type
REMARK                         _______ _______ _______ _____ _____    ______ ____
ROOT
ATOM      1  C   UNL     1      43.875   4.180  13.094  0.00  0.00    +0.000 C 
ATOM      2  C   UNL     1      43.890   5.427  12.202  0.00  0.00    +0.000 C 
ENDROOT
BRANCH   2   3
ATOM      3  C   UNL     1      45.189   6.206  12.360  0.00  0.00    +0.000 A 
ATOM      4  C   UNL     1      45.329   7.459  11.750  0.00  0.00    +0.000 A 
ATOM      5  C   UNL     1      46.513   8.186  11.873  0.00  0.00    +0.000 A 
ATOM      6  C   UNL     1      47.576   7.686  12.630  0.00  0.00    +0.000 A 
ATOM      7  C   UNL     1      47.437   6.474  13.301  0.00  0.00    +0.000 A 
ATOM      8  C   UNL     1      46.264   5.722  13.128  0.00  0.00    +0.000 A 
BRANCH   7   9
ATOM      9  O   UNL     1      48.373   5.902  14.111  0.00  0.00    +0.000 OA
BRANCH   9  10
ATOM     10  C   UNL     1      48.697   6.527  15.348  0.00  0.00    +0.000 C 
ATOM     11  F   UNL     1      48.169   7.759  15.507  0.00  0.00    +0.000 F 
ATOM     12  F   UNL     1      48.231   5.750  16.352  0.00  0.00    +0.000 F 
ATOM     13  F   UNL     1      50.039   6.608  15.471  0.00  0.00    +0.000 F 
ENDBRANCH   9  10
ENDBRANCH   7   9
ENDBRANCH   2   3
BRANCH   2  14
ATOM     14  C   UNL     1      43.578   5.080  10.730  0.00  0.00    +0.000 C 
BRANCH  14  15
ATOM     15  O   UNL     1      43.687   3.659  10.549  0.00  0.00    +0.000 OA
BRANCH  15  16
ATOM     16  C   UNL     1      44.568   3.290   9.557  0.00  0.00    +0.000 A 
ATOM     17  C   UNL     1      45.117   4.295   8.763  0.00  0.00    +0.000 A 
ATOM     18  N   UNL     1      46.037   4.057   7.791  0.00  0.00    +0.000 NA
ATOM     19  C   UNL     1      46.381   2.745   7.653  0.00  0.00    +0.000 A 
ATOM     20  C   UNL     1      45.823   1.740   8.432  0.00  0.00    +0.000 A 
ATOM     21  N   UNL     1      44.904   1.989   9.400  0.00  0.00    +0.000 NA
BRANCH  19  22
ATOM     22  C   UNL     1      47.418   2.396   6.644  0.00  0.00    +0.000 C 
ATOM     23  N   UNL     1      47.382   3.106   5.474  0.00  0.00    +0.000 N 
ATOM     24  O   UNL     1      48.266   1.535   6.848  0.00  0.00    +0.000 OA
ATOM     25  H   UNL     1      46.681   3.830   5.339  0.00  0.00    +0.000 HD
ATOM     26  H   UNL     1      48.077   2.933   4.764  0.00  0.00    +0.000 HD
ENDBRANCH  19  22
ENDBRANCH  15  16
ENDBRANCH  14  15
ENDBRANCH   2  14
TORSDOF 7
ENDMDL
MODEL 3
REMARK VINA RESULT:    -7.060      5.134      8.247
REMARK INTER + INTRA:         -10.876
REMARK INTER:                 -10.101
REMARK INTRA:                  -0.775
REMARK UNBOUND:                -0.928
REMARK  Name = 
REMARK  8 active torsions:
REMARK  status: ('A' for Active; 'I' for Inactive)
REMARK    1  A    between atoms: C_1  and  C_2
REMARK    2  A    between atoms: C_2  and  C_3
REMARK    3  A    between atoms: C_2  and  C_14
REMARK    4  A    between atoms: C_3  and  O_4
REMARK    5  A    between atoms: O_4  and  C_5
REMARK    6  A    between atoms: C_8  and  C_9
REMARK    7  A    between atoms: C_18  and  O_19
REMARK    8  A    between atoms: O_19  and  C_20
REMARK                            x       y       z     vdW  Elec       q    Type
REMARK                         _______ _______ _______ _____ _____    ______ ____
ROOT
ATOM      1  C   UNL     1      45.343   7.471  12.501  0.00  0.00    +0.000 C 
ATOM      2  C   UNL     1      45.607   6.034  12.968  0.00  0.00    +0.000 C 
ENDROOT
BRANCH   2   3
ATOM      3  C   UNL     1      45.065   5.019  11.971  0.00  0.00    +0.000 A 
ATOM      4  C   UNL     1      44.260   3.964  12.419  0.00  0.00    +0.000 A 
ATOM      5  C   UNL     1      43.760   3.017  11.524  0.00  0.00    +0.000 A 
ATOM      6  C   UNL     1      44.035   3.118  10.157  0.00  0.00    +0.000 A 
ATOM      7  C   UNL     1      44.776   4.195   9.679  0.00  0.00    +0.000 A 
ATOM      8  C   UNL     1      45.322   5.113  10.591  0.00  0.00    +0.000 A 
BRANCH   7   9
ATOM      9  O   UNL     1      45.069   4.439   8.371  0.00  0.00    +0.000 OA
BRANCH   9  10
ATOM     10  C   UNL     1      46.069   3.658   7.725  0.00  0.00    +0.000 C 
ATOM     11  F   UNL     1      46.420   2.539   8.391  0.00  0.00    +0.000 F 
ATOM     12  F   UNL     1      45.598   3.281   6.514  0.00  0.00    +0.000 F 
ATOM     13  F   UNL     1      47.171   4.413   7.529  0.00  0.00    +0.000 F 
ENDBRANCH   9  10
ENDBRANCH   7   9
ENDBRANCH   2   3
BRANCH   2  14
ATOM     14  C   UNL     1      47.098   5.806  13.300  0.00  0.00    +0.000 C 
BRANCH  14  15
ATOM     15  O   UNL     1      47.255   4.500  13.877  0.00  0.00    +0.000 OA
BRANCH  15  16
ATOM     16  C   UNL     1      47.533   4.517  15.226  0.00  0.00    +0.000 A 
ATOM     17  C   UNL     1      48.214   5.618  15.739  0.00  0.00    +0.000 A 
ATOM     18  N   UNL     1      48.495   5.770  17.061  0.00  0.00    +0.000 NA
ATOM     19  C   UNL     1      48.054   4.749  17.849  0.00  0.00    +0.000 A 
ATOM     20  C   UNL     1      47.390   3.642  17.337  0.00  0.00    +0.000 A 
ATOM     21  N   UNL     1      47.114   3.500  16.015  0.00  0.00    +0.000 NA
BRANCH  19  22
ATOM     22  C   UNL     1      48.276   4.854  19.318  0.00  0.00    +0.000 C 
ATOM     23  N   UNL     1      48.430   3.671  19.988  0.00  0.00    +0.000 N 
ATOM     24  O   UNL     1      48.333   5.933  19.895  0.00  0.00    +0.000 OA
ATOM     25  H   UNL     1      48.399   2.790  19.481  0.00  0.00    +0.000 HD
ATOM     26  H   UNL     1      48.611   3.680  20.980  0.00  0.00    +0.000 HD
ENDBRANCH  19  22
ENDBRANCH  15  16
ENDBRANCH  14  15
ENDBRANCH   2  14
TORSDOF 7
ENDMDL
MODEL 4
REMARK VINA RESULT:    -6.979      3.832      4.421
REMARK INTER + INTRA:         -10.763
REMARK INTER:                  -9.997
REMARK INTRA:                  -0.766
REMARK UNBOUND:                -0.928
REMARK  Name = 
REMARK  8 active torsions:
REMARK  status: ('A' for Active; 'I' for Inactive)
REMARK    1  A    between atoms: C_1  and  C_2
REMARK    2  A    between atoms: C_2  and  C_3
REMARK    3  A    between atoms: C_2  and  C_14
REMARK    4  A    between atoms: C_3  and  O_4
REMARK    5  A    between atoms: O_4  and  C_5
REMARK    6  A    between atoms: C_8  and  C_9
REMARK    7  A    between atoms: C_18  and  O_19
REMARK    8  A    between atoms: O_19  and  C_20
REMARK                            x       y       z     vdW  Elec       q    Type
REMARK                         _______ _______ _______ _____ _____    ______ ____
ROOT
ATOM      1  C   UNL     1      45.666   3.381  12.688  0.00  0.00    +0.000 C 
ATOM      2  C   UNL     1      44.721   4.551  12.391  0.00  0.00    +0.000 C 
ENDROOT
BRANCH   2   3
ATOM      3  C   UNL     1      45.475   5.873  12.336  0.00  0.00    +0.000 A 
ATOM      4  C   UNL     1      46.837   5.885  12.010  0.00  0.00    +0.000 A 
ATOM      5  C   UNL     1      47.550   7.084  11.963  0.00  0.00    +0.000 A 
ATOM      6  C   UNL     1      46.910   8.299  12.217  0.00  0.00    +0.000 A 
ATOM      7  C   UNL     1      45.543   8.320  12.477  0.00  0.00    +0.000 A 
ATOM      8  C   UNL     1      44.843   7.106  12.578  0.00  0.00    +0.000 A 
BRANCH   7   9
ATOM      9  O   UNL     1      44.791   9.437  12.689  0.00  0.00    +0.000 OA
BRANCH   9  10
ATOM     10  C   UNL     1      44.329  10.187  11.572  0.00  0.00    +0.000 C 
ATOM     11  F   UNL     1      43.130  10.778  11.753  0.00  0.00    +0.000 F 
ATOM     12  F   UNL     1      45.229  11.163  11.313  0.00  0.00    +0.000 F 
ATOM     13  F   UNL     1      44.261   9.383  10.489  0.00  0.00    +0.000 F 
ENDBRANCH   9  10
ENDBRANCH   7   9
ENDBRANCH   2   3
BRANCH   2  14
ATOM     14  C   UNL     1      43.875   4.295  11.124  0.00  0.00    +0.000 C 
BRANCH  14  15
ATOM     15  O   UNL     1      44.441   5.028  10.025  0.00  0.00    +0.000 OA
BRANCH  15  16
ATOM     16  C   UNL     1      45.204   4.258   9.177  0.00  0.00    +0.000 A 
ATOM     17  C   UNL     1      45.084   2.873   9.264  0.00  0.00    +0.000 A 
ATOM     18  N   UNL     1      45.746   2.015   8.444  0.00  0.00    +0.000 NA
ATOM     19  C   UNL     1      46.544   2.624   7.521  0.00  0.00    +0.000 A 
ATOM     20  C   UNL     1      46.678   4.004   7.443  0.00  0.00    +0.000 A 
ATOM     21  N   UNL     1      46.012   4.852   8.268  0.00  0.00    +0.000 NA
BRANCH  19  22
ATOM     22  C   UNL     1      47.271   1.763   6.548  0.00  0.00    +0.000 C 
ATOM     23  N   UNL     1      48.019   2.417   5.608  0.00  0.00    +0.000 N 
ATOM     24  O   UNL     1      47.218   0.539   6.591  0.00  0.00    +0.000 OA
ATOM     25  H   UNL     1      48.063   3.433   5.607  0.00  0.00    +0.000 HD
ATOM     26  H   UNL     1      48.556   1.886   4.939  0.00  0.00    +0.000 HD
ENDBRANCH  19  22
ENDBRANCH  15  16
ENDBRANCH  14  15
ENDBRANCH   2  14
TORSDOF 7
ENDMDL
MODEL 5
REMARK VINA RESULT:    -6.966      5.017      7.825
REMARK INTER + INTRA:         -10.745
REMARK INTER:                  -9.964
REMARK INTRA:                  -0.780
REMARK UNBOUND:                -0.928
REMARK  Name = 
REMARK  8 active torsions:
REMARK  status: ('A' for Active; 'I' for Inactive)
REMARK    1  A    between atoms: C_1  and  C_2
REMARK    2  A    between atoms: C_2  and  C_3
REMARK    3  A    between atoms: C_2  and  C_14
REMARK    4  A    between atoms: C_3  and  O_4
REMARK    5  A    between atoms: O_4  and  C_5
REMARK    6  A    between atoms: C_8  and  C_9
REMARK    7  A    between atoms: C_18  and  O_19
REMARK    8  A    between atoms: O_19  and  C_20
REMARK                            x       y       z     vdW  Elec       q    Type
REMARK                         _______ _______ _______ _____ _____    ______ ____
ROOT
ATOM      1  C   UNL     1      46.812   6.823  10.978  0.00  0.00    +0.000 C 
ATOM      2  C   UNL     1      45.567   6.206  11.626  0.00  0.00    +0.000 C 
ENDROOT
BRANCH   2   3
ATOM      3  C   UNL     1      45.125   4.947  10.892  0.00  0.00    +0.000 A 
ATOM      4  C   UNL     1      44.454   3.934  11.587  0.00  0.00    +0.000 A 
ATOM      5  C   UNL     1      44.048   2.768  10.936  0.00  0.00    +0.000 A 
ATOM      6  C   UNL     1      44.283   2.601   9.569  0.00  0.00    +0.000 A 
ATOM      7  C   UNL     1      44.889   3.623   8.842  0.00  0.00    +0.000 A 
ATOM      8  C   UNL     1      45.344   4.769   9.513  0.00  0.00    +0.000 A 
BRANCH   7   9
ATOM      9  O   UNL     1      45.127   3.608   7.500  0.00  0.00    +0.000 OA
BRANCH   9  10
ATOM     10  C   UNL     1      46.432   3.292   7.029  0.00  0.00    +0.000 C 
ATOM     11  F   UNL     1      46.491   2.968   5.720  0.00  0.00    +0.000 F 
ATOM     12  F   UNL     1      47.227   4.370   7.218  0.00  0.00    +0.000 F 
ATOM     13  F   UNL     1      46.935   2.270   7.754  0.00  0.00    +0.000 F 
ENDBRANCH   9  10
ENDBRANCH   7   9
ENDBRANCH   2   3
BRANCH   2  14
ATOM     14  C   UNL     1      45.767   5.973  13.140  0.00  0.00    +0.000 C 
BRANCH  14  15
ATOM     15  O   UNL     1      47.154   6.160  13.464  0.00  0.00    +0.000 OA
BRANCH  15  16
ATOM     16  C   UNL     1      47.569   5.446  14.566  0.00  0.00    +0.000 A 
ATOM     17  C   UNL     1      47.146   4.124  14.686  0.00  0.00    +0.000 A 
ATOM     18  N   UNL     1      47.535   3.307  15.700  0.00  0.00    +0.000 NA
ATOM     19  C   UNL     1      48.378   3.890  16.599  0.00  0.00    +0.000 A 
ATOM     20  C   UNL     1      48.786   5.213  16.491  0.00  0.00    +0.000 A 
ATOM     21  N   UNL     1      48.392   6.021  15.474  0.00  0.00    +0.000 NA
BRANCH  19  22
ATOM     22  C   UNL     1      48.893   3.055  17.719  0.00  0.00    +0.000 C 
ATOM     23  N   UNL     1      48.171   3.093  18.880  0.00  0.00    +0.000 N 
ATOM     24  O   UNL     1      49.896   2.360  17.607  0.00  0.00    +0.000 OA
ATOM     25  H   UNL     1      47.329   3.662  18.938  0.00  0.00    +0.000 HD
ATOM     26  H   UNL     1      48.455   2.527  19.664  0.00  0.00    +0.000 HD
ENDBRANCH  19  22
ENDBRANCH  15  16
ENDBRANCH  14  15
ENDBRANCH   2  14
TORSDOF 7
ENDMDL
MODEL 6
REMARK VINA RESULT:    -6.642      3.077      3.545
REMARK INTER + INTRA:         -10.287
REMARK INTER:                  -9.844
REMARK INTRA:                  -0.444
REMARK UNBOUND:                -0.928
REMARK  Name = 
REMARK  8 active torsions:
REMARK  status: ('A' for Active; 'I' for Inactive)
REMARK    1  A    between atoms: C_1  and  C_2
REMARK    2  A    between atoms: C_2  and  C_3
REMARK    3  A    between atoms: C_2  and  C_14
REMARK    4  A    between atoms: C_3  and  O_4
REMARK    5  A    between atoms: O_4  and  C_5
REMARK    6  A    between atoms: C_8  and  C_9
REMARK    7  A    between atoms: C_18  and  O_19
REMARK    8  A    between atoms: O_19  and  C_20
REMARK                            x       y       z     vdW  Elec       q    Type
REMARK                         _______ _______ _______ _____ _____    ______ ____
ROOT
ATOM      1  C   UNL     1      45.699   3.298  12.705  0.00  0.00    +0.000 C 
ATOM      2  C   UNL     1      44.725   4.472  12.553  0.00  0.00    +0.000 C 
ENDROOT
BRANCH   2   3
ATOM      3  C   UNL     1      45.455   5.808  12.594  0.00  0.00    +0.000 A 
ATOM      4  C   UNL     1      44.723   7.001  12.642  0.00  0.00    +0.000 A 
ATOM      5  C   UNL     1      45.371   8.236  12.671  0.00  0.00    +0.000 A 
ATOM      6  C   UNL     1      46.766   8.305  12.678  0.00  0.00    +0.000 A 
ATOM      7  C   UNL     1      47.516   7.132  12.699  0.00  0.00    +0.000 A 
ATOM      8  C   UNL     1      46.859   5.894  12.613  0.00  0.00    +0.000 A 
BRANCH   7   9
ATOM      9  O   UNL     1      48.875   7.059  12.759  0.00  0.00    +0.000 OA
BRANCH   9  10
ATOM     10  C   UNL     1      49.654   7.870  11.886  0.00  0.00    +0.000 C 
ATOM     11  F   UNL     1      48.932   8.620  11.027  0.00  0.00    +0.000 F 
ATOM     12  F   UNL     1      50.397   8.714  12.638  0.00  0.00    +0.000 F 
ATOM     13  F   UNL     1      50.497   7.087  11.179  0.00  0.00    +0.000 F 
ENDBRANCH   9  10
ENDBRANCH   7   9
ENDBRANCH   2   3
BRANCH   2  14
ATOM     14  C   UNL     1      43.835   4.317  11.300  0.00  0.00    +0.000 C 
BRANCH  14  15
ATOM     15  O   UNL     1      44.452   5.004  10.199  0.00  0.00    +0.000 OA
BRANCH  15  16
ATOM     16  C   UNL     1      45.118   4.171   9.327  0.00  0.00    +0.000 A 
ATOM     17  C   UNL     1      45.923   4.754   8.352  0.00  0.00    +0.000 A 
ATOM     18  N   UNL     1      46.669   4.033   7.472  0.00  0.00    +0.000 NA
ATOM     19  C   UNL     1      46.564   2.682   7.623  0.00  0.00    +0.000 A 
ATOM     20  C   UNL     1      45.748   2.099   8.584  0.00  0.00    +0.000 A 
ATOM     21  N   UNL     1      45.007   2.828   9.458  0.00  0.00    +0.000 NA
BRANCH  19  22
ATOM     22  C   UNL     1      47.382   1.813   6.734  0.00  0.00    +0.000 C 
ATOM     23  N   UNL     1      48.352   2.444   6.003  0.00  0.00    +0.000 N 
ATOM     24  O   UNL     1      47.212   0.601   6.668  0.00  0.00    +0.000 OA
ATOM     25  H   UNL     1      48.486   3.448   6.093  0.00  0.00    +0.000 HD
ATOM     26  H   UNL     1      48.956   1.903   5.404  0.00  0.00    +0.000 HD
ENDBRANCH  19  22
ENDBRANCH  15  16
ENDBRANCH  14  15
ENDBRANCH   2  14
TORSDOF 7
ENDMDL
MODEL 7
REMARK VINA RESULT:    -6.416      4.673      7.434
REMARK INTER + INTRA:          -9.969
REMARK INTER:                  -8.893
REMARK INTRA:                  -1.077
REMARK UNBOUND:                -0.928
REMARK  Name = 
REMARK  8 active torsions:
REMARK  status: ('A' for Active; 'I' for Inactive)
REMARK    1  A    between atoms: C_1  and  C_2
REMARK    2  A    between atoms: C_2  and  C_3
REMARK    3  A    between atoms: C_2  and  C_14
REMARK    4  A    between atoms: C_3  and  O_4
REMARK    5  A    between atoms: O_4  and  C_5
REMARK    6  A    between atoms: C_8  and  C_9
REMARK    7  A    between atoms: C_18  and  O_19
REMARK    8  A    between atoms: O_19  and  C_20
REMARK                            x       y       z     vdW  Elec       q    Type
REMARK                         _______ _______ _______ _____ _____    ______ ____
ROOT
ATOM      1  C   UNL     1      48.258   7.336  11.242  0.00  0.00    +0.000 C 
ATOM      2  C   UNL     1      46.983   7.704  12.011  0.00  0.00    +0.000 C 
ENDROOT
BRANCH   2   3
ATOM      3  C   UNL     1      45.821   6.801  11.621  0.00  0.00    +0.000 A 
ATOM      4  C   UNL     1      44.525   7.327  11.546  0.00  0.00    +0.000 A 
ATOM      5  C   UNL     1      43.443   6.516  11.200  0.00  0.00    +0.000 A 
ATOM      6  C   UNL     1      43.638   5.166  10.898  0.00  0.00    +0.000 A 
ATOM      7  C   UNL     1      44.925   4.635  10.900  0.00  0.00    +0.000 A 
ATOM      8  C   UNL     1      46.001   5.443  11.303  0.00  0.00    +0.000 A 
BRANCH   7   9
ATOM      9  O   UNL     1      45.257   3.354  10.576  0.00  0.00    +0.000 OA
BRANCH   9  10
ATOM     10  C   UNL     1      45.183   2.940   9.216  0.00  0.00    +0.000 C 
ATOM     11  F   UNL     1      46.048   1.959   8.883  0.00  0.00    +0.000 F 
ATOM     12  F   UNL     1      43.934   2.480   8.977  0.00  0.00    +0.000 F 
ATOM     13  F   UNL     1      45.399   4.002   8.411  0.00  0.00    +0.000 F 
ENDBRANCH   9  10
ENDBRANCH   7   9
ENDBRANCH   2   3
BRANCH   2  14
ATOM     14  C   UNL     1      47.226   7.739  13.536  0.00  0.00    +0.000 C 
BRANCH  14  15
ATOM     15  O   UNL     1      48.380   6.942  13.846  0.00  0.00    +0.000 OA
BRANCH  15  16
ATOM     16  C   UNL     1      48.179   6.051  14.877  0.00  0.00    +0.000 A 
ATOM     17  C   UNL     1      47.187   5.086  14.723  0.00  0.00    +0.000 A 
ATOM     18  N   UNL     1      46.935   4.123  15.649  0.00  0.00    +0.000 NA
ATOM     19  C   UNL     1      47.739   4.178  16.749  0.00  0.00    +0.000 A 
ATOM     20  C   UNL     1      48.717   5.150  16.912  0.00  0.00    +0.000 A 
ATOM     21  N   UNL     1      48.960   6.108  15.980  0.00  0.00    +0.000 NA
BRANCH  19  22
ATOM     22  C   UNL     1      47.566   3.132  17.794  0.00  0.00    +0.000 C 
ATOM     23  N   UNL     1      48.484   3.139  18.810  0.00  0.00    +0.000 N 
ATOM     24  O   UNL     1      46.650   2.320  17.760  0.00  0.00    +0.000 OA
ATOM     25  H   UNL     1      49.222   3.838  18.824  0.00  0.00    +0.000 HD
ATOM     26  H   UNL     1      48.401   2.472  19.561  0.00  0.00    +0.000 HD
ENDBRANCH  19  22
ENDBRANCH  15  16
ENDBRANCH  14  15
ENDBRANCH   2  14
TORSDOF 7
ENDMDL
MODEL 8
REMARK VINA RESULT:    -6.104      3.071      4.976
REMARK INTER + INTRA:          -9.529
REMARK INTER:                  -8.246
REMARK INTRA:                  -1.284
REMARK UNBOUND:                -0.928
REMARK  Name = 
REMARK  8 active torsions:
REMARK  status: ('A' for Active; 'I' for Inactive)
REMARK    1  A    between atoms: C_1  and  C_2
REMARK    2  A    between atoms: C_2  and  C_3
REMARK    3  A    between atoms: C_2  and  C_14
REMARK    4  A    between atoms: C_3  and  O_4
REMARK    5  A    between atoms: O_4  and  C_5
REMARK    6  A    between atoms: C_8  and  C_9
REMARK    7  A    between atoms: C_18  and  O_19
REMARK    8  A    between atoms: O_19  and  C_20
REMARK                            x       y       z     vdW  Elec       q    Type
REMARK                         _______ _______ _______ _____ _____    ______ ____
ROOT
ATOM      1  C   UNL     1      49.518   9.222  14.648  0.00  0.00    +0.000 C 
ATOM      2  C   UNL     1      49.636   7.698  14.771  0.00  0.00    +0.000 C 
ENDROOT
BRANCH   2   3
ATOM      3  C   UNL     1      49.120   7.210  16.118  0.00  0.00    +0.000 A 
ATOM      4  C   UNL     1      48.667   8.134  17.068  0.00  0.00    +0.000 A 
ATOM      5  C   UNL     1      48.199   7.709  18.312  0.00  0.00    +0.000 A 
ATOM      6  C   UNL     1      48.150   6.348  18.624  0.00  0.00    +0.000 A 
ATOM      7  C   UNL     1      48.531   5.406  17.672  0.00  0.00    +0.000 A 
ATOM      8  C   UNL     1      49.054   5.842  16.444  0.00  0.00    +0.000 A 
BRANCH   7   9
ATOM      9  O   UNL     1      48.483   4.053  17.829  0.00  0.00    +0.000 OA
BRANCH   9  10
ATOM     10  C   UNL     1      47.510   3.304  17.110  0.00  0.00    +0.000 C 
ATOM     11  F   UNL     1      47.957   2.772  15.953  0.00  0.00    +0.000 F 
ATOM     12  F   UNL     1      47.094   2.283  17.894  0.00  0.00    +0.000 F 
ATOM     13  F   UNL     1      46.444   4.089  16.845  0.00  0.00    +0.000 F 
ENDBRANCH   9  10
ENDBRANCH   7   9
ENDBRANCH   2   3
BRANCH   2  14
ATOM     14  C   UNL     1      48.970   6.975  13.580  0.00  0.00    +0.000 C 
BRANCH  14  15
ATOM     15  O   UNL     1      47.564   7.270  13.578  0.00  0.00    +0.000 OA
BRANCH  15  16
ATOM     16  C   UNL     1      46.788   6.278  13.022  0.00  0.00    +0.000 A 
ATOM     17  C   UNL     1      46.469   5.177  13.813  0.00  0.00    +0.000 A 
ATOM     18  N   UNL     1      45.667   4.164  13.389  0.00  0.00    +0.000 NA
ATOM     19  C   UNL     1      45.198   4.313  12.118  0.00  0.00    +0.000 A 
ATOM     20  C   UNL     1      45.530   5.401  11.322  0.00  0.00    +0.000 A 
ATOM     21  N   UNL     1      46.332   6.408  11.754  0.00  0.00    +0.000 NA
BRANCH  19  22
ATOM     22  C   UNL     1      44.273   3.274  11.587  0.00  0.00    +0.000 C 
ATOM     23  N   UNL     1      43.808   2.362  12.495  0.00  0.00    +0.000 N 
ATOM     24  O   UNL     1      43.934   3.241  10.410  0.00  0.00    +0.000 OA
ATOM     25  H   UNL     1      44.089   2.425  13.470  0.00  0.00    +0.000 HD
ATOM     26  H   UNL     1      43.156   1.652  12.199  0.00  0.00    +0.000 HD
ENDBRANCH  19  22
ENDBRANCH  15  16
ENDBRANCH  14  15
ENDBRANCH   2  14
TORSDOF 7
ENDMDL
MODEL 9
REMARK VINA RESULT:    -5.996      4.350      7.363
REMARK INTER + INTRA:          -9.377
REMARK INTER:                  -8.339
REMARK INTRA:                  -1.038
REMARK UNBOUND:                -0.928
REMARK  Name = 
REMARK  8 active torsions:
REMARK  status: ('A' for Active; 'I' for Inactive)
REMARK    1  A    between atoms: C_1  and  C_2
REMARK    2  A    between atoms: C_2  and  C_3
REMARK    3  A    between atoms: C_2  and  C_14
REMARK    4  A    between atoms: C_3  and  O_4
REMARK    5  A    between atoms: O_4  and  C_5
REMARK    6  A    between atoms: C_8  and  C_9
REMARK    7  A    between atoms: C_18  and  O_19
REMARK    8  A    between atoms: O_19  and  C_20
REMARK                            x       y       z     vdW  Elec       q    Type
REMARK                         _______ _______ _______ _____ _____    ______ ____
ROOT
ATOM      1  C   UNL     1      49.611   7.596  12.145  0.00  0.00    +0.000 C 
ATOM      2  C   UNL     1      48.479   8.370  12.831  0.00  0.00    +0.000 C 
ENDROOT
BRANCH   2   3
ATOM      3  C   UNL     1      47.114   7.911  12.336  0.00  0.00    +0.000 A 
ATOM      4  C   UNL     1      46.096   8.850  12.130  0.00  0.00    +0.000 A 
ATOM      5  C   UNL     1      44.835   8.451  11.685  0.00  0.00    +0.000 A 
ATOM      6  C   UNL     1      44.572   7.106  11.412  0.00  0.00    +0.000 A 
ATOM      7  C   UNL     1      45.588   6.163  11.544  0.00  0.00    +0.000 A 
ATOM      8  C   UNL     1      46.837   6.562  12.045  0.00  0.00    +0.000 A 
BRANCH   7   9
ATOM      9  O   UNL     1      45.479   4.834  11.261  0.00  0.00    +0.000 OA
BRANCH   9  10
ATOM     10  C   UNL     1      44.920   3.959  12.235  0.00  0.00    +0.000 C 
ATOM     11  F   UNL     1      45.658   2.857  12.484  0.00  0.00    +0.000 F 
ATOM     12  F   UNL     1      44.798   4.639  13.398  0.00  0.00    +0.000 F 
ATOM     13  F   UNL     1      43.686   3.579  11.841  0.00  0.00    +0.000 F 
ENDBRANCH   9  10
ENDBRANCH   7   9
ENDBRANCH   2   3
BRANCH   2  14
ATOM     14  C   UNL     1      48.602   8.318  14.370  0.00  0.00    +0.000 C 
BRANCH  14  15
ATOM     15  O   UNL     1      49.602   7.350  14.729  0.00  0.00    +0.000 OA
BRANCH  15  16
ATOM     16  C   UNL     1      49.118   6.304  15.484  0.00  0.00    +0.000 A 
ATOM     17  C   UNL     1      49.743   6.031  16.698  0.00  0.00    +0.000 A 
ATOM     18  N   UNL     1      49.320   5.060  17.551  0.00  0.00    +0.000 NA
ATOM     19  C   UNL     1      48.227   4.370  17.119  0.00  0.00    +0.000 A 
ATOM     20  C   UNL     1      47.613   4.630  15.900  0.00  0.00    +0.000 A 
ATOM     21  N   UNL     1      48.044   5.602  15.055  0.00  0.00    +0.000 NA
BRANCH  19  22
ATOM     22  C   UNL     1      47.665   3.319  18.011  0.00  0.00    +0.000 C 
ATOM     23  N   UNL     1      48.252   3.197  19.241  0.00  0.00    +0.000 N 
ATOM     24  O   UNL     1      46.723   2.612  17.674  0.00  0.00    +0.000 OA
ATOM     25  H   UNL     1      49.019   3.811  19.503  0.00  0.00    +0.000 HD
ATOM     26  H   UNL     1      47.896   2.521  19.899  0.00  0.00    +0.000 HD
ENDBRANCH  19  22
ENDBRANCH  15  16
ENDBRANCH  14  15
ENDBRANCH   2  14
TORSDOF 7
ENDMDL
