MODEL 1
REMARK VINA RESULT:    -8.098      0.000      0.000
REMARK INTER + INTRA:         -11.875
REMARK INTER:                 -10.939
REMARK INTRA:                  -0.936
REMARK UNBOUND:                -0.936
REMARK  Name = 
REMARK  7 active torsions:
REMARK  status: ('A' for Active; 'I' for Inactive)
REMARK    1  A    between atoms: C_1  and  C_2
REMARK    2  A    between atoms: C_2  and  N_3
REMARK    3  A    between atoms: C_2  and  C_21
REMARK    4  A    between atoms: C_4  and  C_6
REMARK    5  A    between atoms: C_9  and  C_10
REMARK    6  A    between atoms: C_10  and  N_11
REMARK    7  A    between atoms: C_12  and  C_14
REMARK                            x       y       z     vdW  Elec       q    Type
REMARK                         _______ _______ _______ _____ _____    ______ ____
ROOT
ATOM      1  N   UNL     1      48.082   5.516  15.888  0.00  0.00    +0.000 N 
ATOM      2  C   UNL     1      47.169   4.559  15.485  0.00  0.00    +0.000 C 
ATOM      3  O   UNL     1      46.827   3.608  16.179  0.00  0.00    +0.000 OA
ATOM      4  H   UNL     1      48.187   6.313  15.270  0.00  0.00    +0.000 HD
ENDROOT
BRANCH   2   5
ATOM      5  C   UNL     1      46.592   4.757  14.113  0.00  0.00    +0.000 A 
ATOM      6  C   UNL     1      46.937   5.890  13.385  0.00  0.00    +0.000 A 
ATOM      7  C   UNL     1      46.388   6.057  12.115  0.00  0.00    +0.000 A 
ATOM      8  C   UNL     1      45.506   5.100  11.610  0.00  0.00    +0.000 A 
ATOM      9  C   UNL     1      45.229   3.993  12.415  0.00  0.00    +0.000 A 
ATOM     10  N   UNL     1      45.748   3.792  13.653  0.00  0.00    +0.000 NA
BRANCH   8  11
ATOM     11  C   UNL     1      44.866   5.257  10.261  0.00  0.00    +0.000 C 
BRANCH  11  12
ATOM     12  N   UNL     1      45.611   4.622   9.208  0.00  0.00    +0.000 N 
ATOM     13  C   UNL     1      45.253   3.373   8.747  0.00  0.00    +0.000 C 
ATOM     14  O   UNL     1      44.319   2.726   9.212  0.00  0.00    +0.000 OA
ATOM     15  H   UNL     1      46.379   5.083   8.728  0.00  0.00    +0.000 HD
BRANCH  13  16
ATOM     16  C   UNL     1      46.091   2.892   7.649  0.00  0.00    +0.000 A 
ATOM     17  C   UNL     1      46.727   1.668   7.574  0.00  0.00    +0.000 A 
ATOM     18  N   UNL     1      47.385   1.666   6.378  0.00  0.00    +0.000 N 
ATOM     19  C   UNL     1      47.134   2.865   5.769  0.00  0.00    +0.000 A 
ATOM     20  N   UNL     1      46.358   3.630   6.505  0.00  0.00    +0.000 NA
ATOM     21  H   UNL     1      47.954   0.918   6.006  0.00  0.00    +0.000 HD
ENDBRANCH  13  16
ENDBRANCH  11  12
ENDBRANCH   8  11
ENDBRANCH   2   5
BRANCH   1  23
ATOM     22  C   UNL     1      48.119   6.711  18.040  0.00  0.00    +0.000 C 
ATOM     23  C   UNL     1      48.639   5.520  17.231  0.00  0.00    +0.000 C 
BRANCH  23  24
ATOM     24  C   UNL     1      50.155   5.524  17.186  0.00  0.00    +0.000 A 
ATOM     25  C   UNL     1      50.971   6.622  16.961  0.00  0.00    +0.000 A 
ATOM     26  S   UNL     1      52.639   6.260  17.057  0.00  0.00    +0.000 S 
ATOM     27  C   UNL     1      52.327   4.630  17.437  0.00  0.00    +0.000 A 
ATOM     28  N   UNL     1      53.339   3.756  17.697  0.00  0.00    +0.000 NA
ATOM     29  C   UNL     1      52.944   2.562  17.993  0.00  0.00    +0.000 A 
ATOM     30  N   UNL     1      51.635   2.157  18.041  0.00  0.00    +0.000 N 
ATOM     31  C   UNL     1      50.578   3.001  17.785  0.00  0.00    +0.000 A 
ATOM     32  O   UNL     1      49.419   2.608  17.853  0.00  0.00    +0.000 OA
ATOM     33  C   UNL     1      50.973   4.361  17.460  0.00  0.00    +0.000 A 
ATOM     34  H   UNL     1      51.392   1.207  18.279  0.00  0.00    +0.000 HD
ENDBRANCH  23  24
ENDBRANCH   1  23
TORSDOF 6
ENDMDL
MODEL 2
REMARK VINA RESULT:    -7.686      2.100      2.756
REMARK INTER + INTRA:         -11.318
REMARK INTER:                 -10.921
REMARK INTRA:                  -0.397
REMARK UNBOUND:                -0.936
REMARK  Name = 
REMARK  7 active torsions:
REMARK  status: ('A' for Active; 'I' for Inactive)
REMARK    1  A    between atoms: C_1  and  C_2
REMARK    2  A    between atoms: C_2  and  N_3
REMARK    3  A    between atoms: C_2  and  C_21
REMARK    4  A    between atoms: C_4  and  C_6
REMARK    5  A    between atoms: C_9  and  C_10
REMARK    6  A    between atoms: C_10  and  N_11
REMARK    7  A    between atoms: C_12  and  C_14
REMARK                            x       y       z     vdW  Elec       q    Type
REMARK                         _______ _______ _______ _____ _____    ______ ____
ROOT
ATOM      1  N   UNL     1      47.130   3.771  15.972  0.00  0.00    +0.000 N 
ATOM      2  C   UNL     1      47.420   4.693  14.983  0.00  0.00    +0.000 C 
ATOM      3  O   UNL     1      48.318   5.522  15.065  0.00  0.00    +0.000 OA
ATOM      4  H   UNL     1      46.442   3.066  15.730  0.00  0.00    +0.000 HD
ENDROOT
BRANCH   2   5
ATOM      5  C   UNL     1      46.555   4.616  13.758  0.00  0.00    +0.000 A 
ATOM      6  C   UNL     1      46.138   5.790  13.142  0.00  0.00    +0.000 A 
ATOM      7  C   UNL     1      45.333   5.698  12.008  0.00  0.00    +0.000 A 
ATOM      8  C   UNL     1      44.956   4.442  11.526  0.00  0.00    +0.000 A 
ATOM      9  C   UNL     1      45.433   3.323  12.211  0.00  0.00    +0.000 A 
ATOM     10  N   UNL     1      46.224   3.372  13.313  0.00  0.00    +0.000 NA
BRANCH   8  11
ATOM     11  C   UNL     1      44.062   4.298  10.329  0.00  0.00    +0.000 C 
BRANCH  11  12
ATOM     12  N   UNL     1      44.689   3.595   9.242  0.00  0.00    +0.000 N 
ATOM     13  C   UNL     1      45.683   4.192   8.498  0.00  0.00    +0.000 C 
ATOM     14  O   UNL     1      46.069   5.342   8.688  0.00  0.00    +0.000 OA
ATOM     15  H   UNL     1      44.471   2.628   9.020  0.00  0.00    +0.000 HD
BRANCH  13  16
ATOM     16  C   UNL     1      46.238   3.325   7.459  0.00  0.00    +0.000 A 
ATOM     17  C   UNL     1      46.604   2.000   7.601  0.00  0.00    +0.000 A 
ATOM     18  N   UNL     1      47.064   1.610   6.376  0.00  0.00    +0.000 N 
ATOM     19  C   UNL     1      46.964   2.687   5.538  0.00  0.00    +0.000 A 
ATOM     20  N   UNL     1      46.472   3.738   6.155  0.00  0.00    +0.000 NA
ATOM     21  H   UNL     1      47.413   0.695   6.129  0.00  0.00    +0.000 HD
ENDBRANCH  13  16
ENDBRANCH  11  12
ENDBRANCH   8  11
ENDBRANCH   2   5
BRANCH   1  23
ATOM     22  C   UNL     1      47.469   2.500  18.052  0.00  0.00    +0.000 C 
ATOM     23  C   UNL     1      47.951   3.650  17.165  0.00  0.00    +0.000 C 
BRANCH  23  24
ATOM     24  C   UNL     1      47.972   4.952  17.941  0.00  0.00    +0.000 A 
ATOM     25  C   UNL     1      46.898   5.545  18.587  0.00  0.00    +0.000 A 
ATOM     26  S   UNL     1      47.315   6.977  19.425  0.00  0.00    +0.000 S 
ATOM     27  C   UNL     1      48.952   6.834  18.981  0.00  0.00    +0.000 A 
ATOM     28  N   UNL     1      49.885   7.726  19.416  0.00  0.00    +0.000 NA
ATOM     29  C   UNL     1      51.087   7.472  19.016  0.00  0.00    +0.000 A 
ATOM     30  N   UNL     1      51.442   6.419  18.212  0.00  0.00    +0.000 N 
ATOM     31  C   UNL     1      50.537   5.493  17.746  0.00  0.00    +0.000 A 
ATOM     32  O   UNL     1      50.892   4.553  17.043  0.00  0.00    +0.000 OA
ATOM     33  C   UNL     1      49.170   5.729  18.182  0.00  0.00    +0.000 A 
ATOM     34  H   UNL     1      52.401   6.276  17.934  0.00  0.00    +0.000 HD
ENDBRANCH  23  24
ENDBRANCH   1  23
TORSDOF 6
ENDMDL
MODEL 3
REMARK VINA RESULT:    -7.540      1.497      2.224
REMARK INTER + INTRA:         -11.121
REMARK INTER:                 -10.476
REMARK INTRA:                  -0.645
REMARK UNBOUND:                -0.936
REMARK  Name = 
REMARK  7 active torsions:
REMARK  status: ('A' for Active; 'I' for Inactive)
REMARK    1  A    between atoms: C_1  and  C_2
REMARK    2  A    between atoms: C_2  and  N_3
REMARK    3  A    between atoms: C_2  and  C_21
REMARK    4  A    between atoms: C_4  and  C_6
REMARK    5  A    between atoms: C_9  and  C_10
REMARK    6  A    between atoms: C_10  and  N_11
REMARK    7  A    between atoms: C_12  and  C_14
REMARK                            x       y       z     vdW  Elec       q    Type
REMARK                         _______ _______ _______ _____ _____    ______ ____
ROOT
ATOM      1  N   UNL     1      47.854   5.520  16.171  0.00  0.00    +0.000 N 
ATOM      2  C   UNL     1      47.340   4.401  15.542  0.00  0.00    +0.000 C 
ATOM      3  O   UNL     1      47.357   3.277  16.029  0.00  0.00    +0.000 OA
ATOM      4  H   UNL     1      47.670   6.406  15.713  0.00  0.00    +0.000 HD
ENDROOT
BRANCH   2   5
ATOM      5  C   UNL     1      46.730   4.645  14.192  0.00  0.00    +0.000 A 
ATOM      6  C   UNL     1      47.008   5.830  13.521  0.00  0.00    +0.000 A 
ATOM      7  C   UNL     1      46.431   6.038  12.270  0.00  0.00    +0.000 A 
ATOM      8  C   UNL     1      45.584   5.069  11.727  0.00  0.00    +0.000 A 
ATOM      9  C   UNL     1      45.374   3.910  12.476  0.00  0.00    +0.000 A 
ATOM     10  N   UNL     1      45.924   3.667  13.693  0.00  0.00    +0.000 NA
BRANCH   8  11
ATOM     11  C   UNL     1      44.914   5.269  10.399  0.00  0.00    +0.000 C 
BRANCH  11  12
ATOM     12  N   UNL     1      45.615   4.635   9.315  0.00  0.00    +0.000 N 
ATOM     13  C   UNL     1      45.216   3.403   8.845  0.00  0.00    +0.000 C 
ATOM     14  O   UNL     1      44.281   2.768   9.325  0.00  0.00    +0.000 OA
ATOM     15  H   UNL     1      46.380   5.086   8.822  0.00  0.00    +0.000 HD
BRANCH  13  16
ATOM     16  C   UNL     1      46.012   2.922   7.716  0.00  0.00    +0.000 A 
ATOM     17  C   UNL     1      46.690   1.721   7.639  0.00  0.00    +0.000 A 
ATOM     18  N   UNL     1      47.283   1.708   6.409  0.00  0.00    +0.000 N 
ATOM     19  C   UNL     1      46.953   2.879   5.783  0.00  0.00    +0.000 A 
ATOM     20  N   UNL     1      46.189   3.635   6.539  0.00  0.00    +0.000 NA
ATOM     21  H   UNL     1      47.860   0.972   6.027  0.00  0.00    +0.000 HD
ENDBRANCH  13  16
ENDBRANCH  11  12
ENDBRANCH   8  11
ENDBRANCH   2   5
BRANCH   1  23
ATOM     22  C   UNL     1      47.972   6.702  18.326  0.00  0.00    +0.000 C 
ATOM     23  C   UNL     1      48.374   5.461  17.527  0.00  0.00    +0.000 C 
BRANCH  23  24
ATOM     24  C   UNL     1      49.881   5.293  17.521  0.00  0.00    +0.000 A 
ATOM     25  C   UNL     1      50.601   4.283  18.141  0.00  0.00    +0.000 A 
ATOM     26  S   UNL     1      52.284   4.376  17.855  0.00  0.00    +0.000 S 
ATOM     27  C   UNL     1      52.105   5.749  16.866  0.00  0.00    +0.000 A 
ATOM     28  N   UNL     1      53.173   6.322  16.247  0.00  0.00    +0.000 NA
ATOM     29  C   UNL     1      52.875   7.341  15.510  0.00  0.00    +0.000 A 
ATOM     30  N   UNL     1      51.612   7.848  15.345  0.00  0.00    +0.000 N 
ATOM     31  C   UNL     1      50.501   7.306  15.950  0.00  0.00    +0.000 A 
ATOM     32  O   UNL     1      49.383   7.776  15.767  0.00  0.00    +0.000 OA
ATOM     33  C   UNL     1      50.785   6.147  16.780  0.00  0.00    +0.000 A 
ATOM     34  H   UNL     1      51.445   8.649  14.755  0.00  0.00    +0.000 HD
ENDBRANCH  23  24
ENDBRANCH   1  23
TORSDOF 6
ENDMDL
MODEL 4
REMARK VINA RESULT:    -7.458      2.901      4.519
REMARK INTER + INTRA:         -11.009
REMARK INTER:                  -9.970
REMARK INTRA:                  -1.040
REMARK UNBOUND:                -0.936
REMARK  Name = 
REMARK  7 active torsions:
REMARK  status: ('A' for Active; 'I' for Inactive)
REMARK    1  A    between atoms: C_1  and  C_2
REMARK    2  A    between atoms: C_2  and  N_3
REMARK    3  A    between atoms: C_2  and  C_21
REMARK    4  A    between atoms: C_4  and  C_6
REMARK    5  A    between atoms: C_9  and  C_10
REMARK    6  A    between atoms: C_10  and  N_11
REMARK    7  A    between atoms: C_12  and  C_14
REMARK                            x       y       z     vdW  Elec       q    Type
REMARK                         _______ _______ _______ _____ _____    ______ ____
ROOT
ATOM      1  N   UNL     1      48.173   6.292  15.780  0.00  0.00    +0.000 N 
ATOM      2  C   UNL     1      48.389   6.558  14.441  0.00  0.00    +0.000 C 
ATOM      3  O   UNL     1      49.353   7.184  14.016  0.00  0.00    +0.000 OA
ATOM      4  H   UNL     1      47.404   5.665  15.987  0.00  0.00    +0.000 HD
ENDROOT
BRANCH   2   5
ATOM      5  C   UNL     1      47.351   6.014  13.502  0.00  0.00    +0.000 A 
ATOM      6  C   UNL     1      46.687   4.837  13.826  0.00  0.00    +0.000 A 
ATOM      7  C   UNL     1      45.730   4.347  12.940  0.00  0.00    +0.000 A 
ATOM      8  C   UNL     1      45.468   5.034  11.752  0.00  0.00    +0.000 A 
ATOM      9  C   UNL     1      46.183   6.210  11.521  0.00  0.00    +0.000 A 
ATOM     10  N   UNL     1      47.117   6.723  12.362  0.00  0.00    +0.000 NA
BRANCH   8  11
ATOM     11  C   UNL     1      44.470   4.522  10.754  0.00  0.00    +0.000 C 
BRANCH  11  12
ATOM     12  N   UNL     1      45.002   3.490   9.906  0.00  0.00    +0.000 N 
ATOM     13  C   UNL     1      45.686   3.810   8.754  0.00  0.00    +0.000 C 
ATOM     14  O   UNL     1      45.857   4.963   8.369  0.00  0.00    +0.000 OA
ATOM     15  H   UNL     1      44.948   2.505  10.147  0.00  0.00    +0.000 HD
BRANCH  13  16
ATOM     16  C   UNL     1      46.193   2.643   8.031  0.00  0.00    +0.000 A 
ATOM     17  C   UNL     1      46.850   2.649   6.816  0.00  0.00    +0.000 A 
ATOM     18  N   UNL     1      47.129   1.341   6.540  0.00  0.00    +0.000 N 
ATOM     19  C   UNL     1      46.645   0.591   7.577  0.00  0.00    +0.000 A 
ATOM     20  N   UNL     1      46.074   1.340   8.493  0.00  0.00    +0.000 NA
ATOM     21  H   UNL     1      47.606   0.988   5.723  0.00  0.00    +0.000 HD
ENDBRANCH  13  16
ENDBRANCH  11  12
ENDBRANCH   8  11
ENDBRANCH   2   5
BRANCH   1  23
ATOM     22  C   UNL     1      50.058   5.475  17.136  0.00  0.00    +0.000 C 
ATOM     23  C   UNL     1      49.147   6.657  16.796  0.00  0.00    +0.000 C 
BRANCH  23  24
ATOM     24  C   UNL     1      48.459   7.178  18.042  0.00  0.00    +0.000 A 
ATOM     25  C   UNL     1      48.245   6.479  19.220  0.00  0.00    +0.000 A 
ATOM     26  S   UNL     1      47.500   7.417  20.441  0.00  0.00    +0.000 S 
ATOM     27  C   UNL     1      47.470   8.799  19.448  0.00  0.00    +0.000 A 
ATOM     28  N   UNL     1      46.995   9.990  19.905  0.00  0.00    +0.000 NA
ATOM     29  C   UNL     1      47.060  10.952  19.045  0.00  0.00    +0.000 A 
ATOM     30  N   UNL     1      47.543  10.831  17.767  0.00  0.00    +0.000 N 
ATOM     31  C   UNL     1      48.032   9.650  17.258  0.00  0.00    +0.000 A 
ATOM     32  O   UNL     1      48.471   9.582  16.115  0.00  0.00    +0.000 OA
ATOM     33  C   UNL     1      47.992   8.540  18.196  0.00  0.00    +0.000 A 
ATOM     34  H   UNL     1      47.566  11.623  17.142  0.00  0.00    +0.000 HD
ENDBRANCH  23  24
ENDBRANCH   1  23
TORSDOF 6
ENDMDL
MODEL 5
REMARK VINA RESULT:    -7.311      2.617      3.403
REMARK INTER + INTRA:         -10.811
REMARK INTER:                 -10.177
REMARK INTRA:                  -0.634
REMARK UNBOUND:                -0.936
REMARK  Name = 
REMARK  7 active torsions:
REMARK  status: ('A' for Active; 'I' for Inactive)
REMARK    1  A    between atoms: C_1  and  C_2
REMARK    2  A    between atoms: C_2  and  N_3
REMARK    3  A    between atoms: C_2  and  C_21
REMARK    4  A    between atoms: C_4  and  C_6
REMARK    5  A    between atoms: C_9  and  C_10
REMARK    6  A    between atoms: C_10  and  N_11
REMARK    7  A    between atoms: C_12  and  C_14
REMARK                            x       y       z     vdW  Elec       q    Type
REMARK                         _______ _______ _______ _____ _____    ______ ____
ROOT
ATOM      1  N   UNL     1      47.901   7.408  14.561  0.00  0.00    +0.000 N 
ATOM      2  C   UNL     1      47.072   7.858  13.550  0.00  0.00    +0.000 C 
ATOM      3  O   UNL     1      46.983   9.033  13.214  0.00  0.00    +0.000 OA
ATOM      4  H   UNL     1      47.969   6.401  14.659  0.00  0.00    +0.000 HD
ENDROOT
BRANCH   2   5
ATOM      5  C   UNL     1      46.267   6.797  12.857  0.00  0.00    +0.000 A 
ATOM      6  C   UNL     1      46.350   5.481  13.297  0.00  0.00    +0.000 A 
ATOM      7  C   UNL     1      45.597   4.510  12.638  0.00  0.00    +0.000 A 
ATOM      8  C   UNL     1      44.794   4.873  11.555  0.00  0.00    +0.000 A 
ATOM      9  C   UNL     1      44.773   6.221  11.195  0.00  0.00    +0.000 A 
ATOM     10  N   UNL     1      45.485   7.197  11.815  0.00  0.00    +0.000 NA
BRANCH   8  11
ATOM     11  C   UNL     1      43.994   3.854  10.796  0.00  0.00    +0.000 C 
BRANCH  11  12
ATOM     12  N   UNL     1      44.809   2.988   9.988  0.00  0.00    +0.000 N 
ATOM     13  C   UNL     1      45.179   3.357   8.714  0.00  0.00    +0.000 C 
ATOM     14  O   UNL     1      44.823   4.407   8.186  0.00  0.00    +0.000 OA
ATOM     15  H   UNL     1      45.189   2.113  10.339  0.00  0.00    +0.000 HD
BRANCH  13  16
ATOM     16  C   UNL     1      46.040   2.380   8.047  0.00  0.00    +0.000 A 
ATOM     17  C   UNL     1      46.976   2.641   7.066  0.00  0.00    +0.000 A 
ATOM     18  N   UNL     1      47.529   1.433   6.751  0.00  0.00    +0.000 N 
ATOM     19  C   UNL     1      46.926   0.489   7.537  0.00  0.00    +0.000 A 
ATOM     20  N   UNL     1      46.024   1.021   8.329  0.00  0.00    +0.000 NA
ATOM     21  H   UNL     1      48.251   1.263   6.065  0.00  0.00    +0.000 HD
ENDBRANCH  13  16
ENDBRANCH  11  12
ENDBRANCH   8  11
ENDBRANCH   2   5
BRANCH   1  23
ATOM     22  C   UNL     1      50.274   7.971  14.892  0.00  0.00    +0.000 C 
ATOM     23  C   UNL     1      48.822   8.300  15.246  0.00  0.00    +0.000 C 
BRANCH  23  24
ATOM     24  C   UNL     1      48.611   8.245  16.746  0.00  0.00    +0.000 A 
ATOM     25  C   UNL     1      48.322   9.316  17.578  0.00  0.00    +0.000 A 
ATOM     26  S   UNL     1      48.078   8.863  19.209  0.00  0.00    +0.000 S 
ATOM     27  C   UNL     1      48.316   7.215  18.852  0.00  0.00    +0.000 A 
ATOM     28  N   UNL     1      48.197   6.257  19.812  0.00  0.00    +0.000 NA
ATOM     29  C   UNL     1      48.382   5.053  19.384  0.00  0.00    +0.000 A 
ATOM     30  N   UNL     1      48.688   4.717  18.090  0.00  0.00    +0.000 N 
ATOM     31  C   UNL     1      48.821   5.647  17.085  0.00  0.00    +0.000 A 
ATOM     32  O   UNL     1      49.079   5.310  15.935  0.00  0.00    +0.000 OA
ATOM     33  C   UNL     1      48.608   7.019  17.516  0.00  0.00    +0.000 A 
ATOM     34  H   UNL     1      48.821   3.754  17.819  0.00  0.00    +0.000 HD
ENDBRANCH  23  24
ENDBRANCH   1  23
TORSDOF 6
ENDMDL
MODEL 6
REMARK VINA RESULT:    -7.197      2.969      3.750
REMARK INTER + INTRA:         -10.657
REMARK INTER:                 -10.131
REMARK INTRA:                  -0.526
REMARK UNBOUND:                -0.936
REMARK  Name = 
REMARK  7 active torsions:
REMARK  status: ('A' for Active; 'I' for Inactive)
REMARK    1  A    between atoms: C_1  and  C_2
REMARK    2  A    between atoms: C_2  and  N_3
REMARK    3  A    between atoms: C_2  and  C_21
REMARK    4  A    between atoms: C_4  and  C_6
REMARK    5  A    between atoms: C_9  and  C_10
REMARK    6  A    between atoms: C_10  and  N_11
REMARK    7  A    between atoms: C_12  and  C_14
REMARK                            x       y       z     vdW  Elec       q    Type
REMARK                         _______ _______ _______ _____ _____    ______ ____
ROOT
ATOM      1  N   UNL     1      48.000   6.491  14.946  0.00  0.00    +0.000 N 
ATOM      2  C   UNL     1      47.318   7.279  14.038  0.00  0.00    +0.000 C 
ATOM      3  O   UNL     1      47.374   8.503  14.020  0.00  0.00    +0.000 OA
ATOM      4  H   UNL     1      47.963   5.491  14.777  0.00  0.00    +0.000 HD
ENDROOT
BRANCH   2   5
ATOM      5  C   UNL     1      46.487   6.533  13.035  0.00  0.00    +0.000 A 
ATOM      6  C   UNL     1      46.471   6.956  11.711  0.00  0.00    +0.000 A 
ATOM      7  C   UNL     1      45.691   6.252  10.796  0.00  0.00    +0.000 A 
ATOM      8  C   UNL     1      44.939   5.156  11.224  0.00  0.00    +0.000 A 
ATOM      9  C   UNL     1      45.029   4.805  12.573  0.00  0.00    +0.000 A 
ATOM     10  N   UNL     1      45.782   5.460  13.492  0.00  0.00    +0.000 NA
BRANCH   8  11
ATOM     11  C   UNL     1      44.059   4.391  10.279  0.00  0.00    +0.000 C 
BRANCH  11  12
ATOM     12  N   UNL     1      44.757   3.343   9.585  0.00  0.00    +0.000 N 
ATOM     13  C   UNL     1      45.533   3.626   8.482  0.00  0.00    +0.000 C 
ATOM     14  O   UNL     1      45.654   4.754   8.014  0.00  0.00    +0.000 OA
ATOM     15  H   UNL     1      44.756   2.380   9.907  0.00  0.00    +0.000 HD
BRANCH  13  16
ATOM     16  C   UNL     1      46.204   2.453   7.922  0.00  0.00    +0.000 A 
ATOM     17  C   UNL     1      47.108   2.442   6.877  0.00  0.00    +0.000 A 
ATOM     18  N   UNL     1      47.462   1.134   6.708  0.00  0.00    +0.000 N 
ATOM     19  C   UNL     1      46.778   0.400   7.638  0.00  0.00    +0.000 A 
ATOM     20  N   UNL     1      46.010   1.160   8.386  0.00  0.00    +0.000 NA
ATOM     21  H   UNL     1      48.110   0.771   6.024  0.00  0.00    +0.000 HD
ENDBRANCH  13  16
ENDBRANCH  11  12
ENDBRANCH   8  11
ENDBRANCH   2   5
BRANCH   1  23
ATOM     22  C   UNL     1      50.366   7.018  15.373  0.00  0.00    +0.000 C 
ATOM     23  C   UNL     1      48.932   7.063  15.904  0.00  0.00    +0.000 C 
BRANCH  23  24
ATOM     24  C   UNL     1      48.834   6.356  17.242  0.00  0.00    +0.000 A 
ATOM     25  C   UNL     1      49.242   5.061  17.522  0.00  0.00    +0.000 A 
ATOM     26  S   UNL     1      49.043   4.627  19.164  0.00  0.00    +0.000 S 
ATOM     27  C   UNL     1      48.437   6.167  19.563  0.00  0.00    +0.000 A 
ATOM     28  N   UNL     1      48.108   6.490  20.844  0.00  0.00    +0.000 NA
ATOM     29  C   UNL     1      47.686   7.702  20.993  0.00  0.00    +0.000 A 
ATOM     30  N   UNL     1      47.549   8.616  19.980  0.00  0.00    +0.000 N 
ATOM     31  C   UNL     1      47.866   8.338  18.671  0.00  0.00    +0.000 A 
ATOM     32  O   UNL     1      47.746   9.185  17.793  0.00  0.00    +0.000 OA
ATOM     33  C   UNL     1      48.359   6.988  18.455  0.00  0.00    +0.000 A 
ATOM     34  H   UNL     1      47.212   9.549  20.164  0.00  0.00    +0.000 HD
ENDBRANCH  23  24
ENDBRANCH   1  23
TORSDOF 6
ENDMDL
MODEL 7
REMARK VINA RESULT:    -7.081      3.384      9.185
REMARK INTER + INTRA:         -10.501
REMARK INTER:                  -9.962
REMARK INTRA:                  -0.539
REMARK UNBOUND:                -0.936
REMARK  Name = 
REMARK  7 active torsions:
REMARK  status: ('A' for Active; 'I' for Inactive)
REMARK    1  A    between atoms: C_1  and  C_2
REMARK    2  A    between atoms: C_2  and  N_3
REMARK    3  A    between atoms: C_2  and  C_21
REMARK    4  A    between atoms: C_4  and  C_6
REMARK    5  A    between atoms: C_9  and  C_10
REMARK    6  A    between atoms: C_10  and  N_11
REMARK    7  A    between atoms: C_12  and  C_14
REMARK                            x       y       z     vdW  Elec       q    Type
REMARK                         _______ _______ _______ _____ _____    ______ ____
ROOT
ATOM      1  N   UNL     1      46.819   6.386  12.850  0.00  0.00    +0.000 N 
ATOM      2  C   UNL     1      48.031   6.864  13.311  0.00  0.00    +0.000 C 
ATOM      3  O   UNL     1      48.725   7.668  12.698  0.00  0.00    +0.000 OA
ATOM      4  H   UNL     1      46.291   5.820  13.504  0.00  0.00    +0.000 HD
ENDROOT
BRANCH   2   5
ATOM      5  C   UNL     1      48.463   6.339  14.649  0.00  0.00    +0.000 A 
ATOM      6  C   UNL     1      49.486   6.982  15.337  0.00  0.00    +0.000 A 
ATOM      7  C   UNL     1      49.875   6.477  16.576  0.00  0.00    +0.000 A 
ATOM      8  C   UNL     1      49.245   5.342  17.091  0.00  0.00    +0.000 A 
ATOM      9  C   UNL     1      48.224   4.773  16.327  0.00  0.00    +0.000 A 
ATOM     10  N   UNL     1      47.812   5.239  15.121  0.00  0.00    +0.000 NA
BRANCH   8  11
ATOM     11  C   UNL     1      49.656   4.745  18.406  0.00  0.00    +0.000 C 
BRANCH  11  12
ATOM     12  N   UNL     1      50.415   3.532  18.260  0.00  0.00    +0.000 N 
ATOM     13  C   UNL     1      51.791   3.568  18.188  0.00  0.00    +0.000 C 
ATOM     14  O   UNL     1      52.440   4.609  18.213  0.00  0.00    +0.000 OA
ATOM     15  H   UNL     1      49.982   2.614  18.264  0.00  0.00    +0.000 HD
BRANCH  13  16
ATOM     16  C   UNL     1      52.405   2.245  18.081  0.00  0.00    +0.000 A 
ATOM     17  C   UNL     1      51.908   1.160  17.386  0.00  0.00    +0.000 A 
ATOM     18  N   UNL     1      52.814   0.155  17.570  0.00  0.00    +0.000 N 
ATOM     19  C   UNL     1      53.820   0.649  18.356  0.00  0.00    +0.000 A 
ATOM     20  N   UNL     1      53.608   1.904  18.683  0.00  0.00    +0.000 NA
ATOM     21  H   UNL     1      52.758  -0.782  17.197  0.00  0.00    +0.000 HD
ENDBRANCH  13  16
ENDBRANCH  11  12
ENDBRANCH   8  11
ENDBRANCH   2   5
BRANCH   1  23
ATOM     22  C   UNL     1      45.143   7.935  11.927  0.00  0.00    +0.000 C 
ATOM     23  C   UNL     1      46.217   6.888  11.625  0.00  0.00    +0.000 C 
BRANCH  23  24
ATOM     24  C   UNL     1      45.641   5.753  10.801  0.00  0.00    +0.000 A 
ATOM     25  C   UNL     1      45.880   5.504   9.458  0.00  0.00    +0.000 A 
ATOM     26  S   UNL     1      45.115   4.087   8.884  0.00  0.00    +0.000 S 
ATOM     27  C   UNL     1      44.468   3.738  10.419  0.00  0.00    +0.000 A 
ATOM     28  N   UNL     1      43.733   2.613  10.640  0.00  0.00    +0.000 NA
ATOM     29  C   UNL     1      43.332   2.474  11.860  0.00  0.00    +0.000 A 
ATOM     30  N   UNL     1      43.584   3.360  12.876  0.00  0.00    +0.000 N 
ATOM     31  C   UNL     1      44.319   4.511  12.702  0.00  0.00    +0.000 A 
ATOM     32  O   UNL     1      44.539   5.273  13.638  0.00  0.00    +0.000 OA
ATOM     33  C   UNL     1      44.805   4.704  11.347  0.00  0.00    +0.000 A 
ATOM     34  H   UNL     1      43.240   3.193  13.810  0.00  0.00    +0.000 HD
ENDBRANCH  23  24
ENDBRANCH   1  23
TORSDOF 6
ENDMDL
MODEL 8
REMARK VINA RESULT:    -6.767      2.799      3.761
REMARK INTER + INTRA:         -10.077
REMARK INTER:                  -9.382
REMARK INTRA:                  -0.694
REMARK UNBOUND:                -0.936
REMARK  Name = 
REMARK  7 active torsions:
REMARK  status: ('A' for Active; 'I' for Inactive)
REMARK    1  A    between atoms: C_1  and  C_2
REMARK    2  A    between atoms: C_2  and  N_3
REMARK    3  A    between atoms: C_2  and  C_21
REMARK    4  A    between atoms: C_4  and  C_6
REMARK    5  A    between atoms: C_9  and  C_10
REMARK    6  A    between atoms: C_10  and  N_11
REMARK    7  A    between atoms: C_12  and  C_14
REMARK                            x       y       z     vdW  Elec       q    Type
REMARK                         _______ _______ _______ _____ _____    ______ ____
ROOT
ATOM      1  N   UNL     1      48.021   7.253  14.982  0.00  0.00    +0.000 N 
ATOM      2  C   UNL     1      47.793   5.893  14.889  0.00  0.00    +0.000 C 
ATOM      3  O   UNL     1      48.252   5.069  15.671  0.00  0.00    +0.000 OA
ATOM      4  H   UNL     1      47.487   7.834  14.346  0.00  0.00    +0.000 HD
ENDROOT
BRANCH   2   5
ATOM      5  C   UNL     1      46.914   5.464  13.749  0.00  0.00    +0.000 A 
ATOM      6  C   UNL     1      46.703   6.335  12.686  0.00  0.00    +0.000 A 
ATOM      7  C   UNL     1      45.882   5.920  11.639  0.00  0.00    +0.000 A 
ATOM      8  C   UNL     1      45.286   4.657  11.684  0.00  0.00    +0.000 A 
ATOM      9  C   UNL     1      45.567   3.855  12.791  0.00  0.00    +0.000 A 
ATOM     10  N   UNL     1      46.366   4.220  13.826  0.00  0.00    +0.000 NA
BRANCH   8  11
ATOM     11  C   UNL     1      44.368   4.184  10.594  0.00  0.00    +0.000 C 
BRANCH  11  12
ATOM     12  N   UNL     1      44.979   3.213   9.727  0.00  0.00    +0.000 N 
ATOM     13  C   UNL     1      45.647   3.608   8.589  0.00  0.00    +0.000 C 
ATOM     14  O   UNL     1      45.736   4.780   8.232  0.00  0.00    +0.000 OA
ATOM     15  H   UNL     1      44.996   2.221   9.946  0.00  0.00    +0.000 HD
BRANCH  13  16
ATOM     16  C   UNL     1      46.241   2.499   7.844  0.00  0.00    +0.000 A 
ATOM     17  C   UNL     1      46.919   2.583   6.643  0.00  0.00    +0.000 A 
ATOM     18  N   UNL     1      47.288   1.304   6.336  0.00  0.00    +0.000 N 
ATOM     19  C   UNL     1      46.835   0.494   7.341  0.00  0.00    +0.000 A 
ATOM     20  N   UNL     1      46.199   1.178   8.266  0.00  0.00    +0.000 NA
ATOM     21  H   UNL     1      47.802   1.007   5.519  0.00  0.00    +0.000 HD
ENDBRANCH  13  16
ENDBRANCH  11  12
ENDBRANCH   8  11
ENDBRANCH   2   5
BRANCH   1  23
ATOM     22  C   UNL     1      48.294   9.257  16.385  0.00  0.00    +0.000 C 
ATOM     23  C   UNL     1      48.758   7.828  16.096  0.00  0.00    +0.000 C 
BRANCH  23  24
ATOM     24  C   UNL     1      50.250   7.793  15.832  0.00  0.00    +0.000 A 
ATOM     25  C   UNL     1      51.217   7.212  16.638  0.00  0.00    +0.000 A 
ATOM     26  S   UNL     1      52.794   7.303  15.981  0.00  0.00    +0.000 S 
ATOM     27  C   UNL     1      52.233   8.093  14.581  0.00  0.00    +0.000 A 
ATOM     28  N   UNL     1      53.078   8.423  13.566  0.00  0.00    +0.000 NA
ATOM     29  C   UNL     1      52.501   8.995  12.562  0.00  0.00    +0.000 A 
ATOM     30  N   UNL     1      51.161   9.279  12.482  0.00  0.00    +0.000 N 
ATOM     31  C   UNL     1      50.268   8.968  13.482  0.00  0.00    +0.000 A 
ATOM     32  O   UNL     1      49.074   9.223  13.370  0.00  0.00    +0.000 OA
ATOM     33  C   UNL     1      50.869   8.310  14.630  0.00  0.00    +0.000 A 
ATOM     34  H   UNL     1      50.772   9.730  11.668  0.00  0.00    +0.000 HD
ENDBRANCH  23  24
ENDBRANCH   1  23
TORSDOF 6
ENDMDL
MODEL 9
REMARK VINA RESULT:    -6.530      2.934      3.732
REMARK INTER + INTRA:          -9.756
REMARK INTER:                  -9.291
REMARK INTRA:                  -0.465
REMARK UNBOUND:                -0.936
REMARK  Name = 
REMARK  7 active torsions:
REMARK  status: ('A' for Active; 'I' for Inactive)
REMARK    1  A    between atoms: C_1  and  C_2
REMARK    2  A    between atoms: C_2  and  N_3
REMARK    3  A    between atoms: C_2  and  C_21
REMARK    4  A    between atoms: C_4  and  C_6
REMARK    5  A    between atoms: C_9  and  C_10
REMARK    6  A    between atoms: C_10  and  N_11
REMARK    7  A    between atoms: C_12  and  C_14
REMARK                            x       y       z     vdW  Elec       q    Type
REMARK                         _______ _______ _______ _____ _____    ______ ____
ROOT
ATOM      1  N   UNL     1      47.624   8.093  13.296  0.00  0.00    +0.000 N 
ATOM      2  C   UNL     1      46.255   8.094  13.102  0.00  0.00    +0.000 C 
ATOM      3  O   UNL     1      45.535   9.058  13.328  0.00  0.00    +0.000 OA
ATOM      4  H   UNL     1      48.117   7.273  12.958  0.00  0.00    +0.000 HD
ENDROOT
BRANCH   2   5
ATOM      5  C   UNL     1      45.680   6.812  12.573  0.00  0.00    +0.000 A 
ATOM      6  C   UNL     1      46.142   5.599  13.072  0.00  0.00    +0.000 A 
ATOM      7  C   UNL     1      45.597   4.420  12.566  0.00  0.00    +0.000 A 
ATOM      8  C   UNL     1      44.618   4.480  11.571  0.00  0.00    +0.000 A 
ATOM      9  C   UNL     1      44.216   5.746  11.143  0.00  0.00    +0.000 A 
ATOM     10  N   UNL     1      44.717   6.916  11.616  0.00  0.00    +0.000 NA
BRANCH   8  11
ATOM     11  C   UNL     1      44.030   3.234  10.974  0.00  0.00    +0.000 C 
BRANCH  11  12
ATOM     12  N   UNL     1      44.929   2.563  10.075  0.00  0.00    +0.000 N 
ATOM     13  C   UNL     1      45.116   3.028   8.791  0.00  0.00    +0.000 C 
ATOM     14  O   UNL     1      44.523   4.001   8.333  0.00  0.00    +0.000 OA
ATOM     15  H   UNL     1      45.497   1.772  10.361  0.00  0.00    +0.000 HD
BRANCH  13  16
ATOM     16  C   UNL     1      46.092   2.254   8.025  0.00  0.00    +0.000 A 
ATOM     17  C   UNL     1      46.238   0.880   8.028  0.00  0.00    +0.000 A 
ATOM     18  N   UNL     1      47.266   0.615   7.169  0.00  0.00    +0.000 N 
ATOM     19  C   UNL     1      47.707   1.813   6.675  0.00  0.00    +0.000 A 
ATOM     20  N   UNL     1      47.025   2.822   7.169  0.00  0.00    +0.000 NA
ATOM     21  H   UNL     1      47.635  -0.296   6.936  0.00  0.00    +0.000 HD
ENDBRANCH  13  16
ENDBRANCH  11  12
ENDBRANCH   8  11
ENDBRANCH   2   5
BRANCH   1  23
ATOM     22  C   UNL     1      48.034  10.457  12.748  0.00  0.00    +0.000 C 
ATOM     23  C   UNL     1      48.338   9.295  13.696  0.00  0.00    +0.000 C 
BRANCH  23  24
ATOM     24  C   UNL     1      49.830   9.038  13.767  0.00  0.00    +0.000 A 
ATOM     25  C   UNL     1      50.814   9.680  13.030  0.00  0.00    +0.000 A 
ATOM     26  S   UNL     1      52.399   9.179  13.432  0.00  0.00    +0.000 S 
ATOM     27  C   UNL     1      51.826   8.113  14.629  0.00  0.00    +0.000 A 
ATOM     28  N   UNL     1      52.682   7.390  15.403  0.00  0.00    +0.000 NA
ATOM     29  C   UNL     1      52.099   6.644  16.282  0.00  0.00    +0.000 A 
ATOM     30  N   UNL     1      50.742   6.544  16.452  0.00  0.00    +0.000 N 
ATOM     31  C   UNL     1      49.837   7.252  15.695  0.00  0.00    +0.000 A 
ATOM     32  O   UNL     1      48.630   7.150  15.885  0.00  0.00    +0.000 OA
ATOM     33  C   UNL     1      50.447   8.117  14.699  0.00  0.00    +0.000 A 
ATOM     34  H   UNL     1      50.349   5.941  17.159  0.00  0.00    +0.000 HD
ENDBRANCH  23  24
ENDBRANCH   1  23
TORSDOF 6
ENDMDL
