MODEL 1
REMARK VINA RESULT:    -7.539      0.000      0.000
REMARK INTER + INTRA:          -9.602
REMARK INTER:                  -9.302
REMARK INTRA:                  -0.300
REMARK UNBOUND:                -0.300
REMARK  Name = 
REMARK  4 active torsions:
REMARK  status: ('A' for Active; 'I' for Inactive)
REMARK    1  A    between atoms: C_2  and  C_4
REMARK    2  A    between atoms: C_7  and  N_8
REMARK    3  A    between atoms: N_8  and  C_9
REMARK    4  A    between atoms: C_9  and  C_10
REMARK                            x       y       z     vdW  Elec       q    Type
REMARK                         _______ _______ _______ _____ _____    ______ ____
ROOT
ATOM      1  C   UNL     1      46.502   2.533   7.649  0.00  0.00    +0.000 A 
ATOM      2  C   UNL     1      46.492   3.916   7.516  0.00  0.00    +0.000 A 
ATOM      3  N   UNL     1      45.646   4.718   8.230  0.00  0.00    +0.000 NA
ATOM      4  C   UNL     1      44.786   4.100   9.072  0.00  0.00    +0.000 A 
ATOM      5  C   UNL     1      44.845   2.704   9.196  0.00  0.00    +0.000 A 
ATOM      6  N   UNL     1      45.673   1.882   8.501  0.00  0.00    +0.000 NA
ENDROOT
BRANCH   1   8
ATOM      7  N   UNL     1      48.587   2.304   6.396  0.00  0.00    +0.000 N 
ATOM      8  C   UNL     1      47.452   1.697   6.864  0.00  0.00    +0.000 C 
ATOM      9  O   UNL     1      47.241   0.506   6.655  0.00  0.00    +0.000 OA
ATOM     10  H   UNL     1      49.274   1.722   5.935  0.00  0.00    +0.000 HD
ATOM     11  H   UNL     1      48.858   3.222   6.729  0.00  0.00    +0.000 HD
ENDBRANCH   1   8
BRANCH   4  12
ATOM     12  N   UNL     1      43.926   4.895   9.829  0.00  0.00    +0.000 N 
ATOM     13  H   UNL     1      44.253   5.856   9.785  0.00  0.00    +0.000 HD
BRANCH  12  14
ATOM     14  C   UNL     1      43.757   4.475  11.218  0.00  0.00    +0.000 C 
BRANCH  14  15
ATOM     15  C   UNL     1      45.018   4.744  11.987  0.00  0.00    +0.000 A 
ATOM     16  C   UNL     1      45.574   3.740  12.786  0.00  0.00    +0.000 A 
ATOM     17  C   UNL     1      46.746   4.006  13.468  0.00  0.00    +0.000 A 
ATOM     18  N   UNL     1      47.400   5.186  13.402  0.00  0.00    +0.000 NA
ATOM     19  C   UNL     1      46.849   6.141  12.624  0.00  0.00    +0.000 A 
ATOM     20  C   UNL     1      45.677   5.972  11.904  0.00  0.00    +0.000 A 
ENDBRANCH  14  15
ENDBRANCH  12  14
ENDBRANCH   4  12
TORSDOF 4
ENDMDL
MODEL 2
REMARK VINA RESULT:    -7.382      2.647      5.936
REMARK INTER + INTRA:          -9.408
REMARK INTER:                  -9.133
REMARK INTRA:                  -0.275
REMARK UNBOUND:                -0.300
REMARK  Name = 
REMARK  4 active torsions:
REMARK  status: ('A' for Active; 'I' for Inactive)
REMARK    1  A    between atoms: C_2  and  C_4
REMARK    2  A    between atoms: C_7  and  N_8
REMARK    3  A    between atoms: N_8  and  C_9
REMARK    4  A    between atoms: C_9  and  C_10
REMARK                            x       y       z     vdW  Elec       q    Type
REMARK                         _______ _______ _______ _____ _____    ______ ____
ROOT
ATOM      1  C   UNL     1      46.114   4.533  13.095  0.00  0.00    +0.000 A 
ATOM      2  C   UNL     1      45.966   5.459  12.070  0.00  0.00    +0.000 A 
ATOM      3  N   UNL     1      45.353   5.155  10.886  0.00  0.00    +0.000 NA
ATOM      4  C   UNL     1      44.906   3.886  10.739  0.00  0.00    +0.000 A 
ATOM      5  C   UNL     1      45.052   2.989  11.807  0.00  0.00    +0.000 A 
ATOM      6  N   UNL     1      45.656   3.262  12.993  0.00  0.00    +0.000 NA
ENDROOT
BRANCH   1   8
ATOM      7  N   UNL     1      47.415   6.120  14.421  0.00  0.00    +0.000 N 
ATOM      8  C   UNL     1      46.773   4.911  14.376  0.00  0.00    +0.000 C 
ATOM      9  O   UNL     1      46.731   4.180  15.361  0.00  0.00    +0.000 OA
ATOM     10  H   UNL     1      47.792   6.417  15.311  0.00  0.00    +0.000 HD
ATOM     11  H   UNL     1      47.285   6.803  13.684  0.00  0.00    +0.000 HD
ENDBRANCH   1   8
BRANCH   4  12
ATOM     12  N   UNL     1      44.259   3.554   9.550  0.00  0.00    +0.000 N 
ATOM     13  H   UNL     1      44.160   2.543   9.507  0.00  0.00    +0.000 HD
BRANCH  12  14
ATOM     14  C   UNL     1      44.899   4.057   8.336  0.00  0.00    +0.000 C 
BRANCH  14  15
ATOM     15  C   UNL     1      45.865   3.035   7.810  0.00  0.00    +0.000 A 
ATOM     16  C   UNL     1      46.817   3.403   6.855  0.00  0.00    +0.000 A 
ATOM     17  C   UNL     1      47.708   2.448   6.402  0.00  0.00    +0.000 A 
ATOM     18  N   UNL     1      47.721   1.170   6.836  0.00  0.00    +0.000 NA
ATOM     19  C   UNL     1      46.795   0.834   7.760  0.00  0.00    +0.000 A 
ATOM     20  C   UNL     1      45.860   1.718   8.274  0.00  0.00    +0.000 A 
ENDBRANCH  14  15
ENDBRANCH  12  14
ENDBRANCH   4  12
TORSDOF 4
ENDMDL
MODEL 3
REMARK VINA RESULT:    -6.013      1.754      2.277
REMARK INTER + INTRA:          -7.719
REMARK INTER:                  -7.422
REMARK INTRA:                  -0.298
REMARK UNBOUND:                -0.300
REMARK  Name = 
REMARK  4 active torsions:
REMARK  status: ('A' for Active; 'I' for Inactive)
REMARK    1  A    between atoms: C_2  and  C_4
REMARK    2  A    between atoms: C_7  and  N_8
REMARK    3  A    between atoms: N_8  and  C_9
REMARK    4  A    between atoms: C_9  and  C_10
REMARK                            x       y       z     vdW  Elec       q    Type
REMARK                         _______ _______ _______ _____ _____    ______ ____
ROOT
ATOM      1  C   UNL     1      46.265   2.467   7.737  0.00  0.00    +0.000 A 
ATOM      2  C   UNL     1      46.295   3.849   7.598  0.00  0.00    +0.000 A 
ATOM      3  N   UNL     1      45.665   4.691   8.472  0.00  0.00    +0.000 NA
ATOM      4  C   UNL     1      44.980   4.114   9.487  0.00  0.00    +0.000 A 
ATOM      5  C   UNL     1      44.996   2.717   9.607  0.00  0.00    +0.000 A 
ATOM      6  N   UNL     1      45.610   1.856   8.755  0.00  0.00    +0.000 NA
ENDROOT
BRANCH   1   8
ATOM      7  N   UNL     1      47.611   2.191   5.717  0.00  0.00    +0.000 N 
ATOM      8  C   UNL     1      46.978   1.586   6.771  0.00  0.00    +0.000 C 
ATOM      9  O   UNL     1      47.017   0.369   6.917  0.00  0.00    +0.000 OA
ATOM     10  H   UNL     1      48.166   1.606   5.106  0.00  0.00    +0.000 HD
ATOM     11  H   UNL     1      47.748   3.195   5.702  0.00  0.00    +0.000 HD
ENDBRANCH   1   8
BRANCH   4  12
ATOM     12  N   UNL     1      44.346   4.950  10.406  0.00  0.00    +0.000 N 
ATOM     13  H   UNL     1      44.102   5.818   9.938  0.00  0.00    +0.000 HD
BRANCH  12  14
ATOM     14  C   UNL     1      45.108   5.222  11.623  0.00  0.00    +0.000 C 
BRANCH  14  15
ATOM     15  C   UNL     1      45.134   6.700  11.886  0.00  0.00    +0.000 A 
ATOM     16  C   UNL     1      46.120   7.242  12.716  0.00  0.00    +0.000 A 
ATOM     17  C   UNL     1      46.133   8.608  12.926  0.00  0.00    +0.000 A 
ATOM     18  N   UNL     1      45.249   9.461  12.367  0.00  0.00    +0.000 NA
ATOM     19  C   UNL     1      44.306   8.919  11.568  0.00  0.00    +0.000 A 
ATOM     20  C   UNL     1      44.208   7.563  11.297  0.00  0.00    +0.000 A 
ENDBRANCH  14  15
ENDBRANCH  12  14
ENDBRANCH   4  12
TORSDOF 4
ENDMDL
MODEL 4
REMARK VINA RESULT:    -5.640      3.527      5.759
REMARK INTER + INTRA:          -7.259
REMARK INTER:                  -6.952
REMARK INTRA:                  -0.307
REMARK UNBOUND:                -0.300
REMARK  Name = 
REMARK  4 active torsions:
REMARK  status: ('A' for Active; 'I' for Inactive)
REMARK    1  A    between atoms: C_2  and  C_4
REMARK    2  A    between atoms: C_7  and  N_8
REMARK    3  A    between atoms: N_8  and  C_9
REMARK    4  A    between atoms: C_9  and  C_10
REMARK                            x       y       z     vdW  Elec       q    Type
REMARK                         _______ _______ _______ _____ _____    ______ ____
ROOT
ATOM      1  C   UNL     1      45.341   4.700  11.595  0.00  0.00    +0.000 A 
ATOM      2  C   UNL     1      45.326   3.741  12.600  0.00  0.00    +0.000 A 
ATOM      3  N   UNL     1      45.986   3.906  13.786  0.00  0.00    +0.000 NA
ATOM      4  C   UNL     1      46.687   5.053  13.938  0.00  0.00    +0.000 A 
ATOM      5  C   UNL     1      46.657   6.007  12.910  0.00  0.00    +0.000 A 
ATOM      6  N   UNL     1      46.012   5.870  11.724  0.00  0.00    +0.000 NA
ENDROOT
BRANCH   1   8
ATOM      7  N   UNL     1      45.127   5.026   9.183  0.00  0.00    +0.000 N 
ATOM      8  C   UNL     1      44.594   4.487  10.325  0.00  0.00    +0.000 C 
ATOM      9  O   UNL     1      43.553   3.839  10.291  0.00  0.00    +0.000 OA
ATOM     10  H   UNL     1      44.668   4.814   8.307  0.00  0.00    +0.000 HD
ATOM     11  H   UNL     1      46.074   5.386   9.174  0.00  0.00    +0.000 HD
ENDBRANCH   1   8
BRANCH   4  12
ATOM     12  N   UNL     1      47.354   5.257  15.146  0.00  0.00    +0.000 N 
ATOM     13  H   UNL     1      48.344   5.377  14.952  0.00  0.00    +0.000 HD
BRANCH  12  14
ATOM     14  C   UNL     1      47.152   4.212  16.148  0.00  0.00    +0.000 C 
BRANCH  14  15
ATOM     15  C   UNL     1      48.480   3.745  16.669  0.00  0.00    +0.000 A 
ATOM     16  C   UNL     1      49.335   4.650  17.308  0.00  0.00    +0.000 A 
ATOM     17  C   UNL     1      50.543   4.190  17.796  0.00  0.00    +0.000 A 
ATOM     18  N   UNL     1      50.950   2.906  17.702  0.00  0.00    +0.000 NA
ATOM     19  C   UNL     1      50.110   2.048  17.085  0.00  0.00    +0.000 A 
ATOM     20  C   UNL     1      48.880   2.412  16.561  0.00  0.00    +0.000 A 
ENDBRANCH  14  15
ENDBRANCH  12  14
ENDBRANCH   4  12
TORSDOF 4
ENDMDL
MODEL 5
REMARK VINA RESULT:    -5.423      4.906      8.288
REMARK INTER + INTRA:          -6.991
REMARK INTER:                  -6.743
REMARK INTRA:                  -0.249
REMARK UNBOUND:                -0.300
REMARK  Name = 
REMARK  4 active torsions:
REMARK  status: ('A' for Active; 'I' for Inactive)
REMARK    1  A    between atoms: C_2  and  C_4
REMARK    2  A    between atoms: C_7  and  N_8
REMARK    3  A    between atoms: N_8  and  C_9
REMARK    4  A    between atoms: C_9  and  C_10
REMARK                            x       y       z     vdW  Elec       q    Type
REMARK                         _______ _______ _______ _____ _____    ______ ____
ROOT
ATOM      1  C   UNL     1      48.919   4.995  17.862  0.00  0.00    +0.000 A 
ATOM      2  C   UNL     1      48.948   5.688  16.659  0.00  0.00    +0.000 A 
ATOM      3  N   UNL     1      48.165   5.345  15.592  0.00  0.00    +0.000 NA
ATOM      4  C   UNL     1      47.359   4.270  15.749  0.00  0.00    +0.000 A 
ATOM      5  C   UNL     1      47.340   3.612  16.987  0.00  0.00    +0.000 A 
ATOM      6  N   UNL     1      48.106   3.929  18.063  0.00  0.00    +0.000 NA
ENDROOT
BRANCH   1   8
ATOM      7  N   UNL     1      50.381   4.421  19.734  0.00  0.00    +0.000 N 
ATOM      8  C   UNL     1      49.777   5.412  19.005  0.00  0.00    +0.000 C 
ATOM      9  O   UNL     1      49.956   6.595  19.278  0.00  0.00    +0.000 OA
ATOM     10  H   UNL     1      51.030   4.701  20.457  0.00  0.00    +0.000 HD
ATOM     11  H   UNL     1      50.396   3.466  19.396  0.00  0.00    +0.000 HD
ENDBRANCH   1   8
BRANCH   4  12
ATOM     12  N   UNL     1      46.533   3.910  14.683  0.00  0.00    +0.000 N 
ATOM     13  H   UNL     1      46.973   3.145  14.179  0.00  0.00    +0.000 HD
BRANCH  12  14
ATOM     14  C   UNL     1      46.194   4.998  13.769  0.00  0.00    +0.000 C 
BRANCH  14  15
ATOM     15  C   UNL     1      45.025   4.600  12.916  0.00  0.00    +0.000 A 
ATOM     16  C   UNL     1      43.869   5.387  12.906  0.00  0.00    +0.000 A 
ATOM     17  C   UNL     1      42.815   5.009  12.097  0.00  0.00    +0.000 A 
ATOM     18  N   UNL     1      42.835   3.919  11.300  0.00  0.00    +0.000 NA
ATOM     19  C   UNL     1      43.960   3.173  11.322  0.00  0.00    +0.000 A 
ATOM     20  C   UNL     1      45.069   3.468  12.099  0.00  0.00    +0.000 A 
ENDBRANCH  14  15
ENDBRANCH  12  14
ENDBRANCH   4  12
TORSDOF 4
ENDMDL
MODEL 6
REMARK VINA RESULT:    -5.153      3.548      5.359
REMARK INTER + INTRA:          -6.658
REMARK INTER:                  -6.337
REMARK INTRA:                  -0.321
REMARK UNBOUND:                -0.300
REMARK  Name = 
REMARK  4 active torsions:
REMARK  status: ('A' for Active; 'I' for Inactive)
REMARK    1  A    between atoms: C_2  and  C_4
REMARK    2  A    between atoms: C_7  and  N_8
REMARK    3  A    between atoms: N_8  and  C_9
REMARK    4  A    between atoms: C_9  and  C_10
REMARK                            x       y       z     vdW  Elec       q    Type
REMARK                         _______ _______ _______ _____ _____    ______ ____
ROOT
ATOM      1  C   UNL     1      44.366   4.225  11.573  0.00  0.00    +0.000 A 
ATOM      2  C   UNL     1      43.871   4.730  12.769  0.00  0.00    +0.000 A 
ATOM      3  N   UNL     1      44.217   5.963  13.247  0.00  0.00    +0.000 NA
ATOM      4  C   UNL     1      45.095   6.679  12.507  0.00  0.00    +0.000 A 
ATOM      5  C   UNL     1      45.553   6.145  11.294  0.00  0.00    +0.000 A 
ATOM      6  N   UNL     1      45.228   4.924  10.795  0.00  0.00    +0.000 NA
ENDROOT
BRANCH   1   8
ATOM      7  N   UNL     1      44.677   2.335  10.056  0.00  0.00    +0.000 N 
ATOM      8  C   UNL     1      43.950   2.883  11.080  0.00  0.00    +0.000 C 
ATOM      9  O   UNL     1      43.007   2.278  11.579  0.00  0.00    +0.000 OA
ATOM     10  H   UNL     1      44.451   1.390   9.774  0.00  0.00    +0.000 HD
ATOM     11  H   UNL     1      45.565   2.737   9.778  0.00  0.00    +0.000 HD
ENDBRANCH   1   8
BRANCH   4  12
ATOM     12  N   UNL     1      45.450   7.950  12.961  0.00  0.00    +0.000 N 
ATOM     13  H   UNL     1      45.227   8.625  12.234  0.00  0.00    +0.000 HD
BRANCH  12  14
ATOM     14  C   UNL     1      46.843   8.090  13.380  0.00  0.00    +0.000 C 
BRANCH  14  15
ATOM     15  C   UNL     1      47.537   9.094  12.508  0.00  0.00    +0.000 A 
ATOM     16  C   UNL     1      48.848   8.858  12.081  0.00  0.00    +0.000 A 
ATOM     17  C   UNL     1      49.458   9.790  11.262  0.00  0.00    +0.000 A 
ATOM     18  N   UNL     1      48.857  10.921  10.836  0.00  0.00    +0.000 NA
ATOM     19  C   UNL     1      47.591  11.130  11.257  0.00  0.00    +0.000 A 
ATOM     20  C   UNL     1      46.896  10.258  12.079  0.00  0.00    +0.000 A 
ENDBRANCH  14  15
ENDBRANCH  12  14
ENDBRANCH   4  12
TORSDOF 4
ENDMDL
MODEL 7
REMARK VINA RESULT:    -5.152      2.507      4.278
REMARK INTER + INTRA:          -6.657
REMARK INTER:                  -6.357
REMARK INTRA:                  -0.300
REMARK UNBOUND:                -0.300
REMARK  Name = 
REMARK  4 active torsions:
REMARK  status: ('A' for Active; 'I' for Inactive)
REMARK    1  A    between atoms: C_2  and  C_4
REMARK    2  A    between atoms: C_7  and  N_8
REMARK    3  A    between atoms: N_8  and  C_9
REMARK    4  A    between atoms: C_9  and  C_10
REMARK                            x       y       z     vdW  Elec       q    Type
REMARK                         _______ _______ _______ _____ _____    ______ ____
ROOT
ATOM      1  C   UNL     1      44.970   3.675  10.349  0.00  0.00    +0.000 A 
ATOM      2  C   UNL     1      44.983   3.093  11.611  0.00  0.00    +0.000 A 
ATOM      3  N   UNL     1      45.338   3.783  12.737  0.00  0.00    +0.000 NA
ATOM      4  C   UNL     1      45.705   5.074  12.569  0.00  0.00    +0.000 A 
ATOM      5  C   UNL     1      45.655   5.632  11.284  0.00  0.00    +0.000 A 
ATOM      6  N   UNL     1      45.308   4.973  10.149  0.00  0.00    +0.000 NA
ENDROOT
BRANCH   1   8
ATOM      7  N   UNL     1      44.226   3.595   8.023  0.00  0.00    +0.000 N 
ATOM      8  C   UNL     1      44.561   2.892   9.151  0.00  0.00    +0.000 C 
ATOM      9  O   UNL     1      44.540   1.665   9.160  0.00  0.00    +0.000 OA
ATOM     10  H   UNL     1      44.029   3.067   7.183  0.00  0.00    +0.000 HD
ATOM     11  H   UNL     1      44.430   4.585   7.951  0.00  0.00    +0.000 HD
ENDBRANCH   1   8
BRANCH   4  12
ATOM     12  N   UNL     1      46.052   5.808  13.704  0.00  0.00    +0.000 N 
ATOM     13  H   UNL     1      46.040   6.796  13.465  0.00  0.00    +0.000 HD
BRANCH  12  14
ATOM     14  C   UNL     1      47.331   5.443  14.309  0.00  0.00    +0.000 C 
BRANCH  14  15
ATOM     15  C   UNL     1      48.325   6.548  14.099  0.00  0.00    +0.000 A 
ATOM     16  C   UNL     1      48.817   6.809  12.816  0.00  0.00    +0.000 A 
ATOM     17  C   UNL     1      49.716   7.844  12.647  0.00  0.00    +0.000 A 
ATOM     18  N   UNL     1      50.148   8.634  13.653  0.00  0.00    +0.000 NA
ATOM     19  C   UNL     1      49.660   8.369  14.884  0.00  0.00    +0.000 A 
ATOM     20  C   UNL     1      48.758   7.353  15.155  0.00  0.00    +0.000 A 
ENDBRANCH  14  15
ENDBRANCH  12  14
ENDBRANCH   4  12
TORSDOF 4
ENDMDL
MODEL 8
REMARK VINA RESULT:    -4.739      3.932      5.797
REMARK INTER + INTRA:          -6.147
REMARK INTER:                  -5.856
REMARK INTRA:                  -0.291
REMARK UNBOUND:                -0.300
REMARK  Name = 
REMARK  4 active torsions:
REMARK  status: ('A' for Active; 'I' for Inactive)
REMARK    1  A    between atoms: C_2  and  C_4
REMARK    2  A    between atoms: C_7  and  N_8
REMARK    3  A    between atoms: N_8  and  C_9
REMARK    4  A    between atoms: C_9  and  C_10
REMARK                            x       y       z     vdW  Elec       q    Type
REMARK                         _______ _______ _______ _____ _____    ______ ____
ROOT
ATOM      1  C   UNL     1      44.529   4.702  12.190  0.00  0.00    +0.000 A 
ATOM      2  C   UNL     1      45.206   5.701  11.502  0.00  0.00    +0.000 A 
ATOM      3  N   UNL     1      46.422   6.178  11.906  0.00  0.00    +0.000 NA
ATOM      4  C   UNL     1      46.942   5.644  13.036  0.00  0.00    +0.000 A 
ATOM      5  C   UNL     1      46.238   4.620  13.687  0.00  0.00    +0.000 A 
ATOM      6  N   UNL     1      45.030   4.127  13.310  0.00  0.00    +0.000 NA
ENDROOT
BRANCH   1   8
ATOM      7  N   UNL     1      42.175   5.093  11.662  0.00  0.00    +0.000 N 
ATOM      8  C   UNL     1      43.213   4.200  11.706  0.00  0.00    +0.000 C 
ATOM      9  O   UNL     1      43.062   3.037  11.343  0.00  0.00    +0.000 OA
ATOM     10  H   UNL     1      41.303   4.779  11.256  0.00  0.00    +0.000 HD
ATOM     11  H   UNL     1      42.342   6.087  11.770  0.00  0.00    +0.000 HD
ENDBRANCH   1   8
BRANCH   4  12
ATOM     12  N   UNL     1      48.191   6.097  13.460  0.00  0.00    +0.000 N 
ATOM     13  H   UNL     1      48.613   5.380  14.043  0.00  0.00    +0.000 HD
BRANCH  12  14
ATOM     14  C   UNL     1      48.179   7.382  14.157  0.00  0.00    +0.000 C 
BRANCH  14  15
ATOM     15  C   UNL     1      48.745   7.215  15.537  0.00  0.00    +0.000 A 
ATOM     16  C   UNL     1      48.731   5.958  16.148  0.00  0.00    +0.000 A 
ATOM     17  C   UNL     1      49.276   5.827  17.412  0.00  0.00    +0.000 A 
ATOM     18  N   UNL     1      49.834   6.848  18.097  0.00  0.00    +0.000 NA
ATOM     19  C   UNL     1      49.840   8.054  17.489  0.00  0.00    +0.000 A 
ATOM     20  C   UNL     1      49.317   8.286  16.226  0.00  0.00    +0.000 A 
ENDBRANCH  14  15
ENDBRANCH  12  14
ENDBRANCH   4  12
TORSDOF 4
ENDMDL
MODEL 9
REMARK VINA RESULT:    -4.592      4.171      6.054
REMARK INTER + INTRA:          -5.966
REMARK INTER:                  -5.649
REMARK INTRA:                  -0.317
REMARK UNBOUND:                -0.300
REMARK  Name = 
REMARK  4 active torsions:
REMARK  status: ('A' for Active; 'I' for Inactive)
REMARK    1  A    between atoms: C_2  and  C_4
REMARK    2  A    between atoms: C_7  and  N_8
REMARK    3  A    between atoms: N_8  and  C_9
REMARK    4  A    between atoms: C_9  and  C_10
REMARK                            x       y       z     vdW  Elec       q    Type
REMARK                         _______ _______ _______ _____ _____    ______ ____
ROOT
ATOM      1  C   UNL     1      44.418   4.697  12.441  0.00  0.00    +0.000 A 
ATOM      2  C   UNL     1      44.761   6.042  12.497  0.00  0.00    +0.000 A 
ATOM      3  N   UNL     1      45.931   6.482  13.051  0.00  0.00    +0.000 NA
ATOM      4  C   UNL     1      46.749   5.539  13.574  0.00  0.00    +0.000 A 
ATOM      5  C   UNL     1      46.379   4.190  13.475  0.00  0.00    +0.000 A 
ATOM      6  N   UNL     1      45.225   3.724  12.931  0.00  0.00    +0.000 NA
ENDROOT
BRANCH   1   8
ATOM      7  N   UNL     1      42.134   5.184  11.723  0.00  0.00    +0.000 N 
ATOM      8  C   UNL     1      43.141   4.259  11.813  0.00  0.00    +0.000 C 
ATOM      9  O   UNL     1      42.996   3.122  11.375  0.00  0.00    +0.000 OA
ATOM     10  H   UNL     1      41.296   4.917  11.223  0.00  0.00    +0.000 HD
ATOM     11  H   UNL     1      42.315   6.165  11.900  0.00  0.00    +0.000 HD
ENDBRANCH   1   8
BRANCH   4  12
ATOM     12  N   UNL     1      47.959   5.957  14.128  0.00  0.00    +0.000 N 
ATOM     13  H   UNL     1      47.765   6.439  15.001  0.00  0.00    +0.000 HD
BRANCH  12  14
ATOM     14  C   UNL     1      48.782   6.792  13.255  0.00  0.00    +0.000 C 
BRANCH  14  15
ATOM     15  C   UNL     1      49.327   7.955  14.032  0.00  0.00    +0.000 A 
ATOM     16  C   UNL     1      50.631   7.907  14.537  0.00  0.00    +0.000 A 
ATOM     17  C   UNL     1      51.115   8.999  15.232  0.00  0.00    +0.000 A 
ATOM     18  N   UNL     1      50.403  10.126  15.448  0.00  0.00    +0.000 NA
ATOM     19  C   UNL     1      49.148  10.154  14.951  0.00  0.00    +0.000 A 
ATOM     20  C   UNL     1      48.573   9.111  14.243  0.00  0.00    +0.000 A 
ENDBRANCH  14  15
ENDBRANCH  12  14
ENDBRANCH   4  12
TORSDOF 4
ENDMDL
