MODEL 1
REMARK VINA RESULT:    -8.216      0.000      0.000
REMARK INTER + INTRA:         -10.745
REMARK INTER:                 -10.137
REMARK INTRA:                  -0.608
REMARK UNBOUND:                -0.608
REMARK  Name = 
REMARK  4 active torsions:
REMARK  status: ('A' for Active; 'I' for Inactive)
REMARK    1  A    between atoms: N_6  and  C_7
REMARK    2  A    between atoms: C_11  and  C_12
REMARK    3  A    between atoms: C_12  and  N_13
REMARK    4  A    between atoms: C_18  and  C_19
REMARK                            x       y       z     vdW  Elec       q    Type
REMARK                         _______ _______ _______ _____ _____    ______ ____
ROOT
ATOM      1  C   UNL     1      46.711   6.044  12.728  0.00  0.00    +0.000 A 
ATOM      2  C   UNL     1      46.930   4.889  13.495  0.00  0.00    +0.000 A 
ATOM      3  C   UNL     1      46.163   3.731  13.328  0.00  0.00    +0.000 A 
ATOM      4  C   UNL     1      45.136   3.702  12.391  0.00  0.00    +0.000 A 
ATOM      5  C   UNL     1      44.865   4.837  11.623  0.00  0.00    +0.000 A 
ATOM      6  C   UNL     1      45.669   5.983  11.788  0.00  0.00    +0.000 A 
ENDROOT
BRANCH   1  12
ATOM      7  F   UNL     1      49.249  10.077  12.840  0.00  0.00    +0.000 F 
ATOM      8  C   UNL     1      48.526   9.548  11.815  0.00  0.00    +0.000 C 
ATOM      9  F   UNL     1      48.669  10.410  10.775  0.00  0.00    +0.000 F 
ATOM     10  C   UNL     1      47.067   9.482  12.213  0.00  0.00    +0.000 C 
ATOM     11  C   UNL     1      46.893   8.461  13.323  0.00  0.00    +0.000 C 
ATOM     12  N   UNL     1      47.476   7.183  12.909  0.00  0.00    +0.000 N 
ATOM     13  C   UNL     1      48.898   7.209  12.566  0.00  0.00    +0.000 C 
ATOM     14  C   UNL     1      49.112   8.204  11.435  0.00  0.00    +0.000 C 
ENDBRANCH   1  12
BRANCH   5  15
ATOM     15  C   UNL     1      43.717   4.848  10.641  0.00  0.00    +0.000 C 
BRANCH  15  16
ATOM     16  N   UNL     1      44.208   4.726   9.283  0.00  0.00    +0.000 N 
ATOM     17  C   UNL     1      44.846   3.556   8.902  0.00  0.00    +0.000 A 
ATOM     18  C   UNL     1      44.486   2.282   9.347  0.00  0.00    +0.000 A 
ATOM     19  N   UNL     1      45.079   1.136   8.932  0.00  0.00    +0.000 NA
ATOM     20  C   UNL     1      46.046   1.296   8.005  0.00  0.00    +0.000 A 
ATOM     21  C   UNL     1      46.425   2.542   7.525  0.00  0.00    +0.000 A 
ATOM     22  N   UNL     1      45.827   3.688   7.984  0.00  0.00    +0.000 NA
ATOM     23  H   UNL     1      44.743   5.520   8.940  0.00  0.00    +0.000 HD
BRANCH  21  24
ATOM     24  C   UNL     1      47.489   2.614   6.451  0.00  0.00    +0.000 C 
ATOM     25  F   UNL     1      48.627   3.252   6.862  0.00  0.00    +0.000 F 
ATOM     26  F   UNL     1      47.903   1.388   6.022  0.00  0.00    +0.000 F 
ATOM     27  F   UNL     1      47.085   3.289   5.337  0.00  0.00    +0.000 F 
ENDBRANCH  21  24
ENDBRANCH  15  16
ENDBRANCH   5  15
TORSDOF 4
ENDMDL
MODEL 2
REMARK VINA RESULT:    -8.124      3.145      4.247
REMARK INTER + INTRA:         -10.631
REMARK INTER:                  -9.837
REMARK INTRA:                  -0.794
REMARK UNBOUND:                -0.608
REMARK  Name = 
REMARK  4 active torsions:
REMARK  status: ('A' for Active; 'I' for Inactive)
REMARK    1  A    between atoms: N_6  and  C_7
REMARK    2  A    between atoms: C_11  and  C_12
REMARK    3  A    between atoms: C_12  and  N_13
REMARK    4  A    between atoms: C_18  and  C_19
REMARK                            x       y       z     vdW  Elec       q    Type
REMARK                         _______ _______ _______ _____ _____    ______ ____
ROOT
ATOM      1  C   UNL     1      47.507   5.712  14.322  0.00  0.00    +0.000 A 
ATOM      2  C   UNL     1      48.551   6.390  13.675  0.00  0.00    +0.000 A 
ATOM      3  C   UNL     1      48.407   6.921  12.389  0.00  0.00    +0.000 A 
ATOM      4  C   UNL     1      47.206   6.774  11.703  0.00  0.00    +0.000 A 
ATOM      5  C   UNL     1      46.147   6.084  12.297  0.00  0.00    +0.000 A 
ATOM      6  C   UNL     1      46.306   5.582  13.605  0.00  0.00    +0.000 A 
ENDROOT
BRANCH   1  12
ATOM      7  F   UNL     1      48.476   3.641  18.505  0.00  0.00    +0.000 F 
ATOM      8  C   UNL     1      49.150   3.548  17.326  0.00  0.00    +0.000 C 
ATOM      9  F   UNL     1      50.196   2.713  17.560  0.00  0.00    +0.000 F 
ATOM     10  C   UNL     1      49.678   4.915  16.941  0.00  0.00    +0.000 C 
ATOM     11  C   UNL     1      48.513   5.828  16.603  0.00  0.00    +0.000 C 
ATOM     12  N   UNL     1      47.668   5.188  15.593  0.00  0.00    +0.000 N 
ATOM     13  C   UNL     1      47.104   3.888  15.959  0.00  0.00    +0.000 C 
ATOM     14  C   UNL     1      48.244   2.933  16.281  0.00  0.00    +0.000 C 
ENDBRANCH   1  12
BRANCH   5  15
ATOM     15  C   UNL     1      44.854   5.861  11.549  0.00  0.00    +0.000 C 
BRANCH  15  16
ATOM     16  N   UNL     1      45.110   5.688  10.133  0.00  0.00    +0.000 N 
ATOM     17  C   UNL     1      45.171   4.405   9.613  0.00  0.00    +0.000 A 
ATOM     18  C   UNL     1      44.369   3.345  10.039  0.00  0.00    +0.000 A 
ATOM     19  N   UNL     1      44.395   2.104   9.491  0.00  0.00    +0.000 NA
ATOM     20  C   UNL     1      45.242   1.956   8.452  0.00  0.00    +0.000 A 
ATOM     21  C   UNL     1      46.046   2.987   7.987  0.00  0.00    +0.000 A 
ATOM     22  N   UNL     1      46.020   4.225   8.578  0.00  0.00    +0.000 NA
ATOM     23  H   UNL     1      45.884   6.233   9.760  0.00  0.00    +0.000 HD
BRANCH  21  24
ATOM     24  C   UNL     1      46.930   2.734   6.785  0.00  0.00    +0.000 C 
ATOM     25  F   UNL     1      48.263   2.881   7.056  0.00  0.00    +0.000 F 
ATOM     26  F   UNL     1      46.805   1.474   6.283  0.00  0.00    +0.000 F 
ATOM     27  F   UNL     1      46.682   3.583   5.747  0.00  0.00    +0.000 F 
ENDBRANCH  21  24
ENDBRANCH  15  16
ENDBRANCH   5  15
TORSDOF 4
ENDMDL
MODEL 3
REMARK VINA RESULT:    -8.093      2.512      3.557
REMARK INTER + INTRA:         -10.594
REMARK INTER:                  -9.753
REMARK INTRA:                  -0.841
REMARK UNBOUND:                -0.608
REMARK  Name = 
REMARK  4 active torsions:
REMARK  status: ('A' for Active; 'I' for Inactive)
REMARK    1  A    between atoms: N_6  and  C_7
REMARK    2  A    between atoms: C_11  and  C_12
REMARK    3  A    between atoms: C_12  and  N_13
REMARK    4  A    between atoms: C_18  and  C_19
REMARK                            x       y       z     vdW  Elec       q    Type
REMARK                         _______ _______ _______ _____ _____    ______ ____
ROOT
ATOM      1  C   UNL     1      46.570   6.240  13.315  0.00  0.00    +0.000 A 
ATOM      2  C   UNL     1      46.621   7.610  13.015  0.00  0.00    +0.000 A 
ATOM      3  C   UNL     1      45.703   8.215  12.149  0.00  0.00    +0.000 A 
ATOM      4  C   UNL     1      44.710   7.454  11.542  0.00  0.00    +0.000 A 
ATOM      5  C   UNL     1      44.636   6.082  11.791  0.00  0.00    +0.000 A 
ATOM      6  C   UNL     1      45.554   5.499  12.689  0.00  0.00    +0.000 A 
ENDROOT
BRANCH   1  12
ATOM      7  F   UNL     1      49.454   4.444  16.658  0.00  0.00    +0.000 F 
ATOM      8  C   UNL     1      48.315   5.174  16.811  0.00  0.00    +0.000 C 
ATOM      9  F   UNL     1      48.140   5.314  18.151  0.00  0.00    +0.000 F 
ATOM     10  C   UNL     1      47.146   4.405  16.232  0.00  0.00    +0.000 C 
ATOM     11  C   UNL     1      47.300   4.314  14.724  0.00  0.00    +0.000 C 
ATOM     12  N   UNL     1      47.488   5.656  14.170  0.00  0.00    +0.000 N 
ATOM     13  C   UNL     1      48.640   6.402  14.676  0.00  0.00    +0.000 C 
ATOM     14  C   UNL     1      48.511   6.539  16.186  0.00  0.00    +0.000 C 
ENDBRANCH   1  12
BRANCH   5  15
ATOM     15  C   UNL     1      43.603   5.226  11.097  0.00  0.00    +0.000 C 
BRANCH  15  16
ATOM     16  N   UNL     1      43.936   5.061   9.696  0.00  0.00    +0.000 N 
ATOM     17  C   UNL     1      44.587   3.906   9.293  0.00  0.00    +0.000 A 
ATOM     18  C   UNL     1      44.351   2.640   9.832  0.00  0.00    +0.000 A 
ATOM     19  N   UNL     1      44.952   1.504   9.398  0.00  0.00    +0.000 NA
ATOM     20  C   UNL     1      45.793   1.665   8.356  0.00  0.00    +0.000 A 
ATOM     21  C   UNL     1      46.045   2.903   7.780  0.00  0.00    +0.000 A 
ATOM     22  N   UNL     1      45.445   4.040   8.258  0.00  0.00    +0.000 NA
ATOM     23  H   UNL     1      44.383   5.862   9.258  0.00  0.00    +0.000 HD
BRANCH  21  24
ATOM     24  C   UNL     1      46.970   2.973   6.584  0.00  0.00    +0.000 C 
ATOM     25  F   UNL     1      46.766   4.082   5.810  0.00  0.00    +0.000 F 
ATOM     26  F   UNL     1      48.288   3.016   6.927  0.00  0.00    +0.000 F 
ATOM     27  F   UNL     1      46.833   1.915   5.735  0.00  0.00    +0.000 F 
ENDBRANCH  21  24
ENDBRANCH  15  16
ENDBRANCH   5  15
TORSDOF 4
ENDMDL
MODEL 4
REMARK VINA RESULT:    -8.017      3.793      8.214
REMARK INTER + INTRA:         -10.499
REMARK INTER:                  -9.857
REMARK INTRA:                  -0.642
REMARK UNBOUND:                -0.608
REMARK  Name = 
REMARK  4 active torsions:
REMARK  status: ('A' for Active; 'I' for Inactive)
REMARK    1  A    between atoms: N_6  and  C_7
REMARK    2  A    between atoms: C_11  and  C_12
REMARK    3  A    between atoms: C_12  and  N_13
REMARK    4  A    between atoms: C_18  and  C_19
REMARK                            x       y       z     vdW  Elec       q    Type
REMARK                         _______ _______ _______ _____ _____    ______ ____
ROOT
ATOM      1  C   UNL     1      44.822   3.243  10.196  0.00  0.00    +0.000 A 
ATOM      2  C   UNL     1      43.727   2.666  10.858  0.00  0.00    +0.000 A 
ATOM      3  C   UNL     1      43.424   2.963  12.191  0.00  0.00    +0.000 A 
ATOM      4  C   UNL     1      44.224   3.844  12.909  0.00  0.00    +0.000 A 
ATOM      5  C   UNL     1      45.339   4.424  12.300  0.00  0.00    +0.000 A 
ATOM      6  C   UNL     1      45.609   4.132  10.947  0.00  0.00    +0.000 A 
ENDROOT
BRANCH   1  12
ATOM      7  F   UNL     1      46.329   2.214   5.793  0.00  0.00    +0.000 F 
ATOM      8  C   UNL     1      47.060   2.428   6.921  0.00  0.00    +0.000 C 
ATOM      9  F   UNL     1      48.361   2.299   6.551  0.00  0.00    +0.000 F 
ATOM     10  C   UNL     1      46.724   1.366   7.946  0.00  0.00    +0.000 C 
ATOM     11  C   UNL     1      45.294   1.557   8.419  0.00  0.00    +0.000 C 
ATOM     12  N   UNL     1      45.111   2.935   8.879  0.00  0.00    +0.000 N 
ATOM     13  C   UNL     1      45.382   3.981   7.892  0.00  0.00    +0.000 C 
ATOM     14  C   UNL     1      46.818   3.841   7.411  0.00  0.00    +0.000 C 
ENDBRANCH   1  12
BRANCH   5  15
ATOM     15  C   UNL     1      46.257   5.338  13.078  0.00  0.00    +0.000 C 
BRANCH  15  16
ATOM     16  N   UNL     1      46.336   4.919  14.464  0.00  0.00    +0.000 N 
ATOM     17  C   UNL     1      47.508   5.145  15.167  0.00  0.00    +0.000 A 
ATOM     18  C   UNL     1      48.315   6.274  15.011  0.00  0.00    +0.000 A 
ATOM     19  N   UNL     1      49.433   6.517  15.739  0.00  0.00    +0.000 NA
ATOM     20  C   UNL     1      49.713   5.592  16.681  0.00  0.00    +0.000 A 
ATOM     21  C   UNL     1      48.930   4.464  16.880  0.00  0.00    +0.000 A 
ATOM     22  N   UNL     1      47.820   4.229  16.110  0.00  0.00    +0.000 NA
ATOM     23  H   UNL     1      46.015   3.973  14.651  0.00  0.00    +0.000 HD
BRANCH  21  24
ATOM     24  C   UNL     1      49.301   3.509  17.994  0.00  0.00    +0.000 C 
ATOM     25  F   UNL     1      48.219   3.048  18.691  0.00  0.00    +0.000 F 
ATOM     26  F   UNL     1      49.942   2.391  17.550  0.00  0.00    +0.000 F 
ATOM     27  F   UNL     1      50.118   4.067  18.932  0.00  0.00    +0.000 F 
ENDBRANCH  21  24
ENDBRANCH  15  16
ENDBRANCH   5  15
TORSDOF 4
ENDMDL
MODEL 5
REMARK VINA RESULT:    -7.980      1.360      7.050
REMARK INTER + INTRA:         -10.454
REMARK INTER:                  -9.604
REMARK INTRA:                  -0.850
REMARK UNBOUND:                -0.608
REMARK  Name = 
REMARK  4 active torsions:
REMARK  status: ('A' for Active; 'I' for Inactive)
REMARK    1  A    between atoms: N_6  and  C_7
REMARK    2  A    between atoms: C_11  and  C_12
REMARK    3  A    between atoms: C_12  and  N_13
REMARK    4  A    between atoms: C_18  and  C_19
REMARK                            x       y       z     vdW  Elec       q    Type
REMARK                         _______ _______ _______ _____ _____    ______ ____
ROOT
ATOM      1  C   UNL     1      44.475   3.413  10.209  0.00  0.00    +0.000 A 
ATOM      2  C   UNL     1      43.806   2.500  11.037  0.00  0.00    +0.000 A 
ATOM      3  C   UNL     1      43.430   2.822  12.346  0.00  0.00    +0.000 A 
ATOM      4  C   UNL     1      43.730   4.074  12.871  0.00  0.00    +0.000 A 
ATOM      5  C   UNL     1      44.418   5.007  12.091  0.00  0.00    +0.000 A 
ATOM      6  C   UNL     1      44.761   4.671  10.766  0.00  0.00    +0.000 A 
ENDROOT
BRANCH   1  12
ATOM      7  F   UNL     1      46.249   2.287   5.930  0.00  0.00    +0.000 F 
ATOM      8  C   UNL     1      46.909   2.513   7.099  0.00  0.00    +0.000 C 
ATOM      9  F   UNL     1      48.229   2.362   6.815  0.00  0.00    +0.000 F 
ATOM     10  C   UNL     1      46.494   1.473   8.118  0.00  0.00    +0.000 C 
ATOM     11  C   UNL     1      45.039   1.689   8.495  0.00  0.00    +0.000 C 
ATOM     12  N   UNL     1      44.844   3.078   8.918  0.00  0.00    +0.000 N 
ATOM     13  C   UNL     1      45.191   4.102   7.933  0.00  0.00    +0.000 C 
ATOM     14  C   UNL     1      46.654   3.937   7.547  0.00  0.00    +0.000 C 
ENDBRANCH   1  12
BRANCH   5  15
ATOM     15  C   UNL     1      44.806   6.351  12.660  0.00  0.00    +0.000 C 
BRANCH  15  16
ATOM     16  N   UNL     1      45.736   7.027  11.777  0.00  0.00    +0.000 N 
ATOM     17  C   UNL     1      47.040   7.228  12.201  0.00  0.00    +0.000 A 
ATOM     18  C   UNL     1      47.764   6.320  12.976  0.00  0.00    +0.000 A 
ATOM     19  N   UNL     1      49.057   6.497  13.345  0.00  0.00    +0.000 NA
ATOM     20  C   UNL     1      49.637   7.621  12.875  0.00  0.00    +0.000 A 
ATOM     21  C   UNL     1      48.958   8.542  12.090  0.00  0.00    +0.000 A 
ATOM     22  N   UNL     1      47.642   8.352  11.755  0.00  0.00    +0.000 NA
ATOM     23  H   UNL     1      45.390   7.886  11.356  0.00  0.00    +0.000 HD
BRANCH  21  24
ATOM     24  C   UNL     1      49.710   9.750  11.573  0.00  0.00    +0.000 C 
ATOM     25  F   UNL     1      50.190  10.554  12.570  0.00  0.00    +0.000 F 
ATOM     26  F   UNL     1      50.800   9.423  10.823  0.00  0.00    +0.000 F 
ATOM     27  F   UNL     1      48.945  10.567  10.794  0.00  0.00    +0.000 F 
ENDBRANCH  21  24
ENDBRANCH  15  16
ENDBRANCH   5  15
TORSDOF 4
ENDMDL
MODEL 6
REMARK VINA RESULT:    -7.338      1.492      2.235
REMARK INTER + INTRA:          -9.662
REMARK INTER:                  -8.943
REMARK INTRA:                  -0.719
REMARK UNBOUND:                -0.608
REMARK  Name = 
REMARK  4 active torsions:
REMARK  status: ('A' for Active; 'I' for Inactive)
REMARK    1  A    between atoms: N_6  and  C_7
REMARK    2  A    between atoms: C_11  and  C_12
REMARK    3  A    between atoms: C_12  and  N_13
REMARK    4  A    between atoms: C_18  and  C_19
REMARK                            x       y       z     vdW  Elec       q    Type
REMARK                         _______ _______ _______ _____ _____    ______ ____
ROOT
ATOM      1  C   UNL     1      46.904   8.172  12.125  0.00  0.00    +0.000 A 
ATOM      2  C   UNL     1      46.027   9.267  12.111  0.00  0.00    +0.000 A 
ATOM      3  C   UNL     1      44.681   9.136  11.752  0.00  0.00    +0.000 A 
ATOM      4  C   UNL     1      44.175   7.896  11.378  0.00  0.00    +0.000 A 
ATOM      5  C   UNL     1      45.017   6.782  11.352  0.00  0.00    +0.000 A 
ATOM      6  C   UNL     1      46.363   6.932  11.746  0.00  0.00    +0.000 A 
ENDROOT
BRANCH   1  12
ATOM      7  F   UNL     1      51.579   8.777  12.829  0.00  0.00    +0.000 F 
ATOM      8  C   UNL     1      50.862   8.905  11.679  0.00  0.00    +0.000 C 
ATOM      9  F   UNL     1      51.760   9.245  10.717  0.00  0.00    +0.000 F 
ATOM     10  C   UNL     1      49.853  10.023  11.840  0.00  0.00    +0.000 C 
ATOM     11  C   UNL     1      48.804   9.613  12.858  0.00  0.00    +0.000 C 
ATOM     12  N   UNL     1      48.233   8.319  12.478  0.00  0.00    +0.000 N 
ATOM     13  C   UNL     1      49.181   7.210  12.364  0.00  0.00    +0.000 C 
ATOM     14  C   UNL     1      50.237   7.571  11.331  0.00  0.00    +0.000 C 
ENDBRANCH   1  12
BRANCH   5  15
ATOM     15  C   UNL     1      44.505   5.437  10.894  0.00  0.00    +0.000 C 
BRANCH  15  16
ATOM     16  N   UNL     1      44.842   5.212   9.502  0.00  0.00    +0.000 N 
ATOM     17  C   UNL     1      45.190   3.934   9.093  0.00  0.00    +0.000 A 
ATOM     18  C   UNL     1      44.614   2.765   9.592  0.00  0.00    +0.000 A 
ATOM     19  N   UNL     1      44.920   1.519   9.152  0.00  0.00    +0.000 NA
ATOM     20  C   UNL     1      45.816   1.473   8.145  0.00  0.00    +0.000 A 
ATOM     21  C   UNL     1      46.402   2.612   7.610  0.00  0.00    +0.000 A 
ATOM     22  N   UNL     1      46.095   3.858   8.094  0.00  0.00    +0.000 NA
ATOM     23  H   UNL     1      45.498   5.878   9.100  0.00  0.00    +0.000 HD
BRANCH  21  24
ATOM     24  C   UNL     1      47.362   2.459   6.450  0.00  0.00    +0.000 C 
ATOM     25  F   UNL     1      48.628   2.890   6.738  0.00  0.00    +0.000 F 
ATOM     26  F   UNL     1      47.510   1.167   6.042  0.00  0.00    +0.000 F 
ATOM     27  F   UNL     1      46.988   3.165   5.345  0.00  0.00    +0.000 F 
ENDBRANCH  21  24
ENDBRANCH  15  16
ENDBRANCH   5  15
TORSDOF 4
ENDMDL
MODEL 7
REMARK VINA RESULT:    -7.125      4.393      8.356
REMARK INTER + INTRA:          -9.399
REMARK INTER:                  -8.637
REMARK INTRA:                  -0.762
REMARK UNBOUND:                -0.608
REMARK  Name = 
REMARK  4 active torsions:
REMARK  status: ('A' for Active; 'I' for Inactive)
REMARK    1  A    between atoms: N_6  and  C_7
REMARK    2  A    between atoms: C_11  and  C_12
REMARK    3  A    between atoms: C_12  and  N_13
REMARK    4  A    between atoms: C_18  and  C_19
REMARK                            x       y       z     vdW  Elec       q    Type
REMARK                         _______ _______ _______ _____ _____    ______ ____
ROOT
ATOM      1  C   UNL     1      45.100   6.794  12.243  0.00  0.00    +0.000 A 
ATOM      2  C   UNL     1      44.708   7.983  11.608  0.00  0.00    +0.000 A 
ATOM      3  C   UNL     1      45.442   9.168  11.733  0.00  0.00    +0.000 A 
ATOM      4  C   UNL     1      46.591   9.198  12.516  0.00  0.00    +0.000 A 
ATOM      5  C   UNL     1      47.006   8.045  13.186  0.00  0.00    +0.000 A 
ATOM      6  C   UNL     1      46.266   6.856  13.023  0.00  0.00    +0.000 A 
ENDROOT
BRANCH   1  12
ATOM      7  F   UNL     1      42.900   2.646  11.421  0.00  0.00    +0.000 F 
ATOM      8  C   UNL     1      44.046   3.132  10.871  0.00  0.00    +0.000 C 
ATOM      9  F   UNL     1      44.470   2.182   9.996  0.00  0.00    +0.000 F 
ATOM     10  C   UNL     1      45.087   3.312  11.957  0.00  0.00    +0.000 C 
ATOM     11  C   UNL     1      44.652   4.426  12.891  0.00  0.00    +0.000 C 
ATOM     12  N   UNL     1      44.361   5.632  12.113  0.00  0.00    +0.000 N 
ATOM     13  C   UNL     1      43.323   5.498  11.089  0.00  0.00    +0.000 C 
ATOM     14  C   UNL     1      43.735   4.405  10.114  0.00  0.00    +0.000 C 
ENDBRANCH   1  12
BRANCH   5  15
ATOM     15  C   UNL     1      48.216   8.070  14.089  0.00  0.00    +0.000 C 
BRANCH  15  16
ATOM     16  N   UNL     1      47.969   7.303  15.293  0.00  0.00    +0.000 N 
ATOM     17  C   UNL     1      49.016   6.600  15.868  0.00  0.00    +0.000 A 
ATOM     18  C   UNL     1      50.338   7.048  15.906  0.00  0.00    +0.000 A 
ATOM     19  N   UNL     1      51.350   6.381  16.516  0.00  0.00    +0.000 NA
ATOM     20  C   UNL     1      50.989   5.239  17.137  0.00  0.00    +0.000 A 
ATOM     21  C   UNL     1      49.684   4.766  17.137  0.00  0.00    +0.000 A 
ATOM     22  N   UNL     1      48.686   5.446  16.488  0.00  0.00    +0.000 NA
ATOM     23  H   UNL     1      47.146   6.707  15.268  0.00  0.00    +0.000 HD
BRANCH  21  24
ATOM     24  C   UNL     1      49.371   3.498  17.902  0.00  0.00    +0.000 C 
ATOM     25  F   UNL     1      48.286   2.826  17.410  0.00  0.00    +0.000 F 
ATOM     26  F   UNL     1      50.390   2.593  17.881  0.00  0.00    +0.000 F 
ATOM     27  F   UNL     1      49.088   3.719  19.217  0.00  0.00    +0.000 F 
ENDBRANCH  21  24
ENDBRANCH  15  16
ENDBRANCH   5  15
TORSDOF 4
ENDMDL
MODEL 8
REMARK VINA RESULT:    -7.022      2.875      8.114
REMARK INTER + INTRA:          -9.272
REMARK INTER:                  -8.543
REMARK INTRA:                  -0.729
REMARK UNBOUND:                -0.608
REMARK  Name = 
REMARK  4 active torsions:
REMARK  status: ('A' for Active; 'I' for Inactive)
REMARK    1  A    between atoms: N_6  and  C_7
REMARK    2  A    between atoms: C_11  and  C_12
REMARK    3  A    between atoms: C_12  and  N_13
REMARK    4  A    between atoms: C_18  and  C_19
REMARK                            x       y       z     vdW  Elec       q    Type
REMARK                         _______ _______ _______ _____ _____    ______ ____
ROOT
ATOM      1  C   UNL     1      45.187   4.350  10.521  0.00  0.00    +0.000 A 
ATOM      2  C   UNL     1      44.565   3.649  11.566  0.00  0.00    +0.000 A 
ATOM      3  C   UNL     1      44.542   4.138  12.877  0.00  0.00    +0.000 A 
ATOM      4  C   UNL     1      45.159   5.346  13.183  0.00  0.00    +0.000 A 
ATOM      5  C   UNL     1      45.812   6.066  12.180  0.00  0.00    +0.000 A 
ATOM      6  C   UNL     1      45.798   5.568  10.861  0.00  0.00    +0.000 A 
ENDROOT
BRANCH   1  12
ATOM      7  F   UNL     1      45.747   2.473   6.175  0.00  0.00    +0.000 F 
ATOM      8  C   UNL     1      46.614   2.480   7.224  0.00  0.00    +0.000 C 
ATOM      9  F   UNL     1      47.727   1.831   6.791  0.00  0.00    +0.000 F 
ATOM     10  C   UNL     1      46.008   1.713   8.381  0.00  0.00    +0.000 C 
ATOM     11  C   UNL     1      44.809   2.475   8.918  0.00  0.00    +0.000 C 
ATOM     12  N   UNL     1      45.205   3.850   9.231  0.00  0.00    +0.000 N 
ATOM     13  C   UNL     1      45.748   4.629   8.118  0.00  0.00    +0.000 C 
ATOM     14  C   UNL     1      46.971   3.911   7.567  0.00  0.00    +0.000 C 
ENDBRANCH   1  12
BRANCH   5  15
ATOM     15  C   UNL     1      46.539   7.351  12.500  0.00  0.00    +0.000 C 
BRANCH  15  16
ATOM     16  N   UNL     1      46.920   7.385  13.898  0.00  0.00    +0.000 N 
ATOM     17  C   UNL     1      48.266   7.420  14.226  0.00  0.00    +0.000 A 
ATOM     18  C   UNL     1      49.236   8.110  13.498  0.00  0.00    +0.000 A 
ATOM     19  N   UNL     1      50.543   8.185  13.852  0.00  0.00    +0.000 NA
ATOM     20  C   UNL     1      50.859   7.564  15.007  0.00  0.00    +0.000 A 
ATOM     21  C   UNL     1      49.923   6.879  15.769  0.00  0.00    +0.000 A 
ATOM     22  N   UNL     1      48.613   6.795  15.372  0.00  0.00    +0.000 NA
ATOM     23  H   UNL     1      46.452   6.706  14.493  0.00  0.00    +0.000 HD
BRANCH  21  24
ATOM     24  C   UNL     1      50.366   6.253  17.074  0.00  0.00    +0.000 C 
ATOM     25  F   UNL     1      51.433   6.893  17.643  0.00  0.00    +0.000 F 
ATOM     26  F   UNL     1      49.395   6.261  18.030  0.00  0.00    +0.000 F 
ATOM     27  F   UNL     1      50.759   4.954  16.942  0.00  0.00    +0.000 F 
ENDBRANCH  21  24
ENDBRANCH  15  16
ENDBRANCH   5  15
TORSDOF 4
ENDMDL
MODEL 9
REMARK VINA RESULT:    -7.002      3.889      8.717
REMARK INTER + INTRA:          -9.247
REMARK INTER:                  -8.627
REMARK INTRA:                  -0.620
REMARK UNBOUND:                -0.608
REMARK  Name = 
REMARK  4 active torsions:
REMARK  status: ('A' for Active; 'I' for Inactive)
REMARK    1  A    between atoms: N_6  and  C_7
REMARK    2  A    between atoms: C_11  and  C_12
REMARK    3  A    between atoms: C_12  and  N_13
REMARK    4  A    between atoms: C_18  and  C_19
REMARK                            x       y       z     vdW  Elec       q    Type
REMARK                         _______ _______ _______ _____ _____    ______ ____
ROOT
ATOM      1  C   UNL     1      44.840   4.080  10.529  0.00  0.00    +0.000 A 
ATOM      2  C   UNL     1      43.841   5.000  10.883  0.00  0.00    +0.000 A 
ATOM      3  C   UNL     1      43.702   5.480  12.190  0.00  0.00    +0.000 A 
ATOM      4  C   UNL     1      44.559   5.036  13.191  0.00  0.00    +0.000 A 
ATOM      5  C   UNL     1      45.552   4.101  12.892  0.00  0.00    +0.000 A 
ATOM      6  C   UNL     1      45.692   3.653  11.562  0.00  0.00    +0.000 A 
ENDROOT
BRANCH   1  12
ATOM      7  F   UNL     1      45.767   2.376   6.175  0.00  0.00    +0.000 F 
ATOM      8  C   UNL     1      46.593   2.469   7.253  0.00  0.00    +0.000 C 
ATOM      9  F   UNL     1      47.792   1.975   6.846  0.00  0.00    +0.000 F 
ATOM     10  C   UNL     1      46.053   1.610   8.376  0.00  0.00    +0.000 C 
ATOM     11  C   UNL     1      44.752   2.205   8.885  0.00  0.00    +0.000 C 
ATOM     12  N   UNL     1      44.961   3.612   9.233  0.00  0.00    +0.000 N 
ATOM     13  C   UNL     1      45.437   4.475   8.151  0.00  0.00    +0.000 C 
ATOM     14  C   UNL     1      46.756   3.927   7.630  0.00  0.00    +0.000 C 
ENDBRANCH   1  12
BRANCH   5  15
ATOM     15  C   UNL     1      46.456   3.560  13.975  0.00  0.00    +0.000 C 
BRANCH  15  16
ATOM     16  N   UNL     1      46.955   4.637  14.806  0.00  0.00    +0.000 N 
ATOM     17  C   UNL     1      47.456   4.339  16.063  0.00  0.00    +0.000 A 
ATOM     18  C   UNL     1      48.183   3.187  16.367  0.00  0.00    +0.000 A 
ATOM     19  N   UNL     1      48.717   2.924  17.586  0.00  0.00    +0.000 NA
ATOM     20  C   UNL     1      48.529   3.888  18.512  0.00  0.00    +0.000 A 
ATOM     21  C   UNL     1      47.826   5.054  18.247  0.00  0.00    +0.000 A 
ATOM     22  N   UNL     1      47.273   5.282  17.013  0.00  0.00    +0.000 NA
ATOM     23  H   UNL     1      46.348   5.450  14.876  0.00  0.00    +0.000 HD
BRANCH  21  24
ATOM     24  C   UNL     1      47.710   6.096  19.339  0.00  0.00    +0.000 C 
ATOM     25  F   UNL     1      47.403   7.342  18.864  0.00  0.00    +0.000 F 
ATOM     26  F   UNL     1      46.738   5.813  20.250  0.00  0.00    +0.000 F 
ATOM     27  F   UNL     1      48.862   6.260  20.051  0.00  0.00    +0.000 F 
ENDBRANCH  21  24
ENDBRANCH  15  16
ENDBRANCH   5  15
TORSDOF 4
ENDMDL
