MODEL 1
REMARK VINA RESULT:    -9.198      0.000      0.000
REMARK INTER + INTRA:         -13.510
REMARK INTER:                 -12.424
REMARK INTRA:                  -1.087
REMARK UNBOUND:                -1.087
REMARK  Name = 
REMARK  8 active torsions:
REMARK  status: ('A' for Active; 'I' for Inactive)
REMARK    1  A    between atoms: C_1  and  C_2
REMARK    2  A    between atoms: C_4  and  C_5
REMARK    3  A    between atoms: C_5  and  C_6
REMARK    4  A    between atoms: C_5  and  N_7
REMARK    5  A    between atoms: C_8  and  C_10
REMARK    6  A    between atoms: C_22  and  C_23
REMARK    7  A    between atoms: C_23  and  O_24
REMARK    8  A    between atoms: O_24  and  C_25
REMARK                            x       y       z     vdW  Elec       q    Type
REMARK                         _______ _______ _______ _____ _____    ______ ____
ROOT
ATOM      1  C   UNL     1      46.691   7.626  12.891  0.00  0.00    +0.000 C 
ATOM      2  C   UNL     1      45.750   8.812  13.137  0.00  0.00    +0.000 C 
ENDROOT
BRANCH   1   6
ATOM      3  C   UNL     1      43.724   3.547  12.480  0.00  0.00    +0.000 C 
ATOM      4  C   UNL     1      44.627   4.547  11.812  0.00  0.00    +0.000 A 
ATOM      5  C   UNL     1      45.245   5.530  12.607  0.00  0.00    +0.000 A 
ATOM      6  C   UNL     1      46.071   6.521  12.054  0.00  0.00    +0.000 A 
ATOM      7  C   UNL     1      46.327   6.472  10.679  0.00  0.00    +0.000 A 
ATOM      8  C   UNL     1      45.725   5.500   9.877  0.00  0.00    +0.000 A 
ATOM      9  C   UNL     1      44.866   4.532  10.425  0.00  0.00    +0.000 A 
BRANCH   9  10
ATOM     10  C   UNL     1      44.225   3.523   9.493  0.00  0.00    +0.000 C 
BRANCH  10  11
ATOM     11  O   UNL     1      44.988   2.316   9.511  0.00  0.00    +0.000 OA
BRANCH  11  12
ATOM     12  C   UNL     1      45.761   2.163   8.374  0.00  0.00    +0.000 A 
ATOM     13  C   UNL     1      45.753   3.215   7.469  0.00  0.00    +0.000 A 
ATOM     14  C   UNL     1      46.528   3.102   6.317  0.00  0.00    +0.000 A 
ATOM     15  C   UNL     1      47.284   1.954   6.117  0.00  0.00    +0.000 A 
ATOM     16  C   UNL     1      47.229   0.957   7.077  0.00  0.00    +0.000 A 
ATOM     17  N   UNL     1      46.481   1.035   8.199  0.00  0.00    +0.000 NA
ENDBRANCH  11  12
ENDBRANCH  10  11
ENDBRANCH   9  10
ENDBRANCH   1   6
BRANCH   1  18
ATOM     18  N   UNL     1      47.141   7.106  14.168  0.00  0.00    +0.000 N 
ATOM     19  C   UNL     1      48.426   6.692  14.402  0.00  0.00    +0.000 C 
ATOM     20  O   UNL     1      49.300   6.735  13.539  0.00  0.00    +0.000 OA
ATOM     21  H   UNL     1      46.414   6.861  14.831  0.00  0.00    +0.000 HD
BRANCH  19  22
ATOM     22  C   UNL     1      48.733   6.264  15.775  0.00  0.00    +0.000 A 
ATOM     23  C   UNL     1      49.576   7.040  16.560  0.00  0.00    +0.000 A 
ATOM     24  S   UNL     1      49.805   6.428  18.134  0.00  0.00    +0.000 S 
ATOM     25  C   UNL     1      48.821   5.079  17.811  0.00  0.00    +0.000 A 
ATOM     26  N   UNL     1      48.620   4.120  18.754  0.00  0.00    +0.000 NA
ATOM     27  C   UNL     1      47.880   3.136  18.367  0.00  0.00    +0.000 A 
ATOM     28  N   UNL     1      47.309   3.031  17.125  0.00  0.00    +0.000 N 
ATOM     29  C   UNL     1      47.430   4.007  16.164  0.00  0.00    +0.000 A 
ATOM     30  O   UNL     1      46.809   3.934  15.108  0.00  0.00    +0.000 OA
ATOM     31  C   UNL     1      48.296   5.112  16.530  0.00  0.00    +0.000 A 
ATOM     32  H   UNL     1      46.716   2.249  16.893  0.00  0.00    +0.000 HD
ENDBRANCH  19  22
ENDBRANCH   1  18
TORSDOF 6
ENDMDL
MODEL 2
REMARK VINA RESULT:    -8.463      1.683      2.075
REMARK INTER + INTRA:         -12.517
REMARK INTER:                 -11.136
REMARK INTRA:                  -1.381
REMARK UNBOUND:                -1.087
REMARK  Name = 
REMARK  8 active torsions:
REMARK  status: ('A' for Active; 'I' for Inactive)
REMARK    1  A    between atoms: C_1  and  C_2
REMARK    2  A    between atoms: C_4  and  C_5
REMARK    3  A    between atoms: C_5  and  C_6
REMARK    4  A    between atoms: C_5  and  N_7
REMARK    5  A    between atoms: C_8  and  C_10
REMARK    6  A    between atoms: C_22  and  C_23
REMARK    7  A    between atoms: C_23  and  O_24
REMARK    8  A    between atoms: O_24  and  C_25
REMARK                            x       y       z     vdW  Elec       q    Type
REMARK                         _______ _______ _______ _____ _____    ______ ____
ROOT
ATOM      1  C   UNL     1      47.919   7.743  13.477  0.00  0.00    +0.000 C 
ATOM      2  C   UNL     1      47.763   9.238  13.171  0.00  0.00    +0.000 C 
ENDROOT
BRANCH   1   6
ATOM      3  C   UNL     1      45.713   3.239  12.799  0.00  0.00    +0.000 C 
ATOM      4  C   UNL     1      45.762   4.705  12.465  0.00  0.00    +0.000 A 
ATOM      5  C   UNL     1      46.777   5.491  13.042  0.00  0.00    +0.000 A 
ATOM      6  C   UNL     1      46.869   6.872  12.809  0.00  0.00    +0.000 A 
ATOM      7  C   UNL     1      45.953   7.453  11.924  0.00  0.00    +0.000 A 
ATOM      8  C   UNL     1      44.942   6.685  11.340  0.00  0.00    +0.000 A 
ATOM      9  C   UNL     1      44.828   5.310  11.604  0.00  0.00    +0.000 A 
BRANCH   9  10
ATOM     10  C   UNL     1      43.691   4.543  10.958  0.00  0.00    +0.000 C 
BRANCH  10  11
ATOM     11  O   UNL     1      43.737   4.737   9.544  0.00  0.00    +0.000 OA
BRANCH  11  12
ATOM     12  C   UNL     1      44.665   3.919   8.928  0.00  0.00    +0.000 A 
ATOM     13  C   UNL     1      44.644   2.576   9.279  0.00  0.00    +0.000 A 
ATOM     14  C   UNL     1      45.557   1.719   8.671  0.00  0.00    +0.000 A 
ATOM     15  C   UNL     1      46.448   2.228   7.735  0.00  0.00    +0.000 A 
ATOM     16  C   UNL     1      46.394   3.583   7.448  0.00  0.00    +0.000 A 
ATOM     17  N   UNL     1      45.525   4.439   8.026  0.00  0.00    +0.000 NA
ENDBRANCH  11  12
ENDBRANCH  10  11
ENDBRANCH   9  10
ENDBRANCH   1   6
BRANCH   1  18
ATOM     18  N   UNL     1      47.901   7.550  14.914  0.00  0.00    +0.000 N 
ATOM     19  C   UNL     1      48.952   7.023  15.616  0.00  0.00    +0.000 C 
ATOM     20  O   UNL     1      49.998   6.674  15.073  0.00  0.00    +0.000 OA
ATOM     21  H   UNL     1      46.995   7.627  15.363  0.00  0.00    +0.000 HD
BRANCH  19  22
ATOM     22  C   UNL     1      48.798   6.967  17.077  0.00  0.00    +0.000 A 
ATOM     23  C   UNL     1      48.620   8.145  17.791  0.00  0.00    +0.000 A 
ATOM     24  S   UNL     1      48.423   7.910  19.467  0.00  0.00    +0.000 S 
ATOM     25  C   UNL     1      48.611   6.227  19.308  0.00  0.00    +0.000 A 
ATOM     26  N   UNL     1      48.579   5.416  20.398  0.00  0.00    +0.000 NA
ATOM     27  C   UNL     1      48.767   4.165  20.140  0.00  0.00    +0.000 A 
ATOM     28  N   UNL     1      48.970   3.651  18.886  0.00  0.00    +0.000 N 
ATOM     29  C   UNL     1      48.944   4.423  17.749  0.00  0.00    +0.000 A 
ATOM     30  O   UNL     1      49.012   3.912  16.636  0.00  0.00    +0.000 OA
ATOM     31  C   UNL     1      48.787   5.846  17.989  0.00  0.00    +0.000 A 
ATOM     32  H   UNL     1      49.083   2.658  18.747  0.00  0.00    +0.000 HD
ENDBRANCH  19  22
ENDBRANCH   1  18
TORSDOF 6
ENDMDL
MODEL 3
REMARK VINA RESULT:    -8.409      1.894      2.395
REMARK INTER + INTRA:         -12.445
REMARK INTER:                 -11.383
REMARK INTRA:                  -1.063
REMARK UNBOUND:                -1.087
REMARK  Name = 
REMARK  8 active torsions:
REMARK  status: ('A' for Active; 'I' for Inactive)
REMARK    1  A    between atoms: C_1  and  C_2
REMARK    2  A    between atoms: C_4  and  C_5
REMARK    3  A    between atoms: C_5  and  C_6
REMARK    4  A    between atoms: C_5  and  N_7
REMARK    5  A    between atoms: C_8  and  C_10
REMARK    6  A    between atoms: C_22  and  C_23
REMARK    7  A    between atoms: C_23  and  O_24
REMARK    8  A    between atoms: O_24  and  C_25
REMARK                            x       y       z     vdW  Elec       q    Type
REMARK                         _______ _______ _______ _____ _____    ______ ____
ROOT
ATOM      1  C   UNL     1      47.541   7.049  13.540  0.00  0.00    +0.000 C 
ATOM      2  C   UNL     1      47.039   8.486  13.727  0.00  0.00    +0.000 C 
ENDROOT
BRANCH   1   6
ATOM      3  C   UNL     1      44.389   3.216  12.542  0.00  0.00    +0.000 C 
ATOM      4  C   UNL     1      45.171   4.397  12.035  0.00  0.00    +0.000 A 
ATOM      5  C   UNL     1      45.983   5.104  12.942  0.00  0.00    +0.000 A 
ATOM      6  C   UNL     1      46.714   6.239  12.556  0.00  0.00    +0.000 A 
ATOM      7  C   UNL     1      46.671   6.622  11.211  0.00  0.00    +0.000 A 
ATOM      8  C   UNL     1      45.874   5.929  10.298  0.00  0.00    +0.000 A 
ATOM      9  C   UNL     1      45.112   4.816  10.693  0.00  0.00    +0.000 A 
BRANCH   9  10
ATOM     10  C   UNL     1      44.248   4.126   9.656  0.00  0.00    +0.000 C 
BRANCH  10  11
ATOM     11  O   UNL     1      44.762   4.409   8.354  0.00  0.00    +0.000 OA
BRANCH  11  12
ATOM     12  C   UNL     1      45.689   3.471   7.938  0.00  0.00    +0.000 A 
ATOM     13  C   UNL     1      45.521   2.176   8.406  0.00  0.00    +0.000 A 
ATOM     14  C   UNL     1      46.429   1.202   8.000  0.00  0.00    +0.000 A 
ATOM     15  C   UNL     1      47.461   1.553   7.139  0.00  0.00    +0.000 A 
ATOM     16  C   UNL     1      47.548   2.871   6.723  0.00  0.00    +0.000 A 
ATOM     17  N   UNL     1      46.688   3.839   7.106  0.00  0.00    +0.000 NA
ENDBRANCH  11  12
ENDBRANCH  10  11
ENDBRANCH   9  10
ENDBRANCH   1   6
BRANCH   1  18
ATOM     18  N   UNL     1      47.585   6.391  14.831  0.00  0.00    +0.000 N 
ATOM     19  C   UNL     1      48.732   6.253  15.567  0.00  0.00    +0.000 C 
ATOM     20  O   UNL     1      49.817   6.684  15.184  0.00  0.00    +0.000 OA
ATOM     21  H   UNL     1      46.767   5.846  15.082  0.00  0.00    +0.000 HD
BRANCH  19  22
ATOM     22  C   UNL     1      48.586   5.627  16.890  0.00  0.00    +0.000 A 
ATOM     23  C   UNL     1      48.757   4.254  17.019  0.00  0.00    +0.000 A 
ATOM     24  S   UNL     1      48.589   3.689  18.617  0.00  0.00    +0.000 S 
ATOM     25  C   UNL     1      48.237   5.251  19.191  0.00  0.00    +0.000 A 
ATOM     26  N   UNL     1      47.956   5.465  20.504  0.00  0.00    +0.000 NA
ATOM     27  C   UNL     1      47.675   6.689  20.798  0.00  0.00    +0.000 A 
ATOM     28  N   UNL     1      47.665   7.724  19.898  0.00  0.00    +0.000 N 
ATOM     29  C   UNL     1      48.007   7.567  18.577  0.00  0.00    +0.000 A 
ATOM     30  O   UNL     1      48.101   8.535  17.829  0.00  0.00    +0.000 OA
ATOM     31  C   UNL     1      48.282   6.198  18.182  0.00  0.00    +0.000 A 
ATOM     32  H   UNL     1      47.465   8.666  20.198  0.00  0.00    +0.000 HD
ENDBRANCH  19  22
ENDBRANCH   1  18
TORSDOF 6
ENDMDL
MODEL 4
REMARK VINA RESULT:    -7.888      2.553      3.543
REMARK INTER + INTRA:         -11.741
REMARK INTER:                 -10.671
REMARK INTRA:                  -1.070
REMARK UNBOUND:                -1.087
REMARK  Name = 
REMARK  8 active torsions:
REMARK  status: ('A' for Active; 'I' for Inactive)
REMARK    1  A    between atoms: C_1  and  C_2
REMARK    2  A    between atoms: C_4  and  C_5
REMARK    3  A    between atoms: C_5  and  C_6
REMARK    4  A    between atoms: C_5  and  N_7
REMARK    5  A    between atoms: C_8  and  C_10
REMARK    6  A    between atoms: C_22  and  C_23
REMARK    7  A    between atoms: C_23  and  O_24
REMARK    8  A    between atoms: O_24  and  C_25
REMARK                            x       y       z     vdW  Elec       q    Type
REMARK                         _______ _______ _______ _____ _____    ______ ____
ROOT
ATOM      1  C   UNL     1      48.269   5.902  14.241  0.00  0.00    +0.000 C 
ATOM      2  C   UNL     1      48.968   7.107  13.600  0.00  0.00    +0.000 C 
ENDROOT
BRANCH   1   6
ATOM      3  C   UNL     1      44.183   6.944  11.442  0.00  0.00    +0.000 C 
ATOM      4  C   UNL     1      45.044   5.913  12.117  0.00  0.00    +0.000 A 
ATOM      5  C   UNL     1      46.156   6.349  12.861  0.00  0.00    +0.000 A 
ATOM      6  C   UNL     1      47.029   5.447  13.490  0.00  0.00    +0.000 A 
ATOM      7  C   UNL     1      46.729   4.082  13.417  0.00  0.00    +0.000 A 
ATOM      8  C   UNL     1      45.627   3.633  12.686  0.00  0.00    +0.000 A 
ATOM      9  C   UNL     1      44.776   4.534  12.024  0.00  0.00    +0.000 A 
BRANCH   9  10
ATOM     10  C   UNL     1      43.614   3.978  11.226  0.00  0.00    +0.000 C 
BRANCH  10  11
ATOM     11  O   UNL     1      43.699   4.449   9.880  0.00  0.00    +0.000 OA
BRANCH  11  12
ATOM     12  C   UNL     1      44.637   3.756   9.137  0.00  0.00    +0.000 A 
ATOM     13  C   UNL     1      44.675   2.380   9.308  0.00  0.00    +0.000 A 
ATOM     14  C   UNL     1      45.599   1.646   8.568  0.00  0.00    +0.000 A 
ATOM     15  C   UNL     1      46.440   2.309   7.682  0.00  0.00    +0.000 A 
ATOM     16  C   UNL     1      46.327   3.686   7.578  0.00  0.00    +0.000 A 
ATOM     17  N   UNL     1      45.447   4.424   8.288  0.00  0.00    +0.000 NA
ENDBRANCH  11  12
ENDBRANCH  10  11
ENDBRANCH   9  10
ENDBRANCH   1   6
BRANCH   1  18
ATOM     18  N   UNL     1      47.942   6.221  15.618  0.00  0.00    +0.000 N 
ATOM     19  C   UNL     1      48.733   5.871  16.679  0.00  0.00    +0.000 C 
ATOM     20  O   UNL     1      49.789   5.258  16.541  0.00  0.00    +0.000 OA
ATOM     21  H   UNL     1      46.993   6.535  15.789  0.00  0.00    +0.000 HD
BRANCH  19  22
ATOM     22  C   UNL     1      48.293   6.339  18.002  0.00  0.00    +0.000 A 
ATOM     23  C   UNL     1      48.097   5.418  19.023  0.00  0.00    +0.000 A 
ATOM     24  S   UNL     1      47.621   6.120  20.500  0.00  0.00    +0.000 S 
ATOM     25  C   UNL     1      47.615   7.679  19.820  0.00  0.00    +0.000 A 
ATOM     26  N   UNL     1      47.259   8.762  20.561  0.00  0.00    +0.000 NA
ATOM     27  C   UNL     1      47.266   9.878  19.913  0.00  0.00    +0.000 A 
ATOM     28  N   UNL     1      47.615  10.012  18.594  0.00  0.00    +0.000 N 
ATOM     29  C   UNL     1      48.046   8.957  17.826  0.00  0.00    +0.000 A 
ATOM     30  O   UNL     1      48.462   9.134  16.685  0.00  0.00    +0.000 OA
ATOM     31  C   UNL     1      48.006   7.668  18.492  0.00  0.00    +0.000 A 
ATOM     32  H   UNL     1      47.628  10.919  18.153  0.00  0.00    +0.000 HD
ENDBRANCH  19  22
ENDBRANCH   1  18
TORSDOF 6
ENDMDL
MODEL 5
REMARK VINA RESULT:    -7.670      2.743      4.340
REMARK INTER + INTRA:         -11.447
REMARK INTER:                 -10.224
REMARK INTRA:                  -1.223
REMARK UNBOUND:                -1.087
REMARK  Name = 
REMARK  8 active torsions:
REMARK  status: ('A' for Active; 'I' for Inactive)
REMARK    1  A    between atoms: C_1  and  C_2
REMARK    2  A    between atoms: C_4  and  C_5
REMARK    3  A    between atoms: C_5  and  C_6
REMARK    4  A    between atoms: C_5  and  N_7
REMARK    5  A    between atoms: C_8  and  C_10
REMARK    6  A    between atoms: C_22  and  C_23
REMARK    7  A    between atoms: C_23  and  O_24
REMARK    8  A    between atoms: O_24  and  C_25
REMARK                            x       y       z     vdW  Elec       q    Type
REMARK                         _______ _______ _______ _____ _____    ______ ____
ROOT
ATOM      1  C   UNL     1      47.124   5.846  14.333  0.00  0.00    +0.000 C 
ATOM      2  C   UNL     1      47.338   4.713  15.345  0.00  0.00    +0.000 C 
ENDROOT
BRANCH   1   6
ATOM      3  C   UNL     1      43.831   2.808  11.979  0.00  0.00    +0.000 C 
ATOM      4  C   UNL     1      44.793   3.961  11.899  0.00  0.00    +0.000 A 
ATOM      5  C   UNL     1      45.508   4.320  13.057  0.00  0.00    +0.000 A 
ATOM      6  C   UNL     1      46.396   5.407  13.074  0.00  0.00    +0.000 A 
ATOM      7  C   UNL     1      46.611   6.100  11.877  0.00  0.00    +0.000 A 
ATOM      8  C   UNL     1      45.912   5.754  10.719  0.00  0.00    +0.000 A 
ATOM      9  C   UNL     1      44.994   4.690  10.712  0.00  0.00    +0.000 A 
BRANCH   9  10
ATOM     10  C   UNL     1      44.250   4.386   9.428  0.00  0.00    +0.000 C 
BRANCH  10  11
ATOM     11  O   UNL     1      45.128   4.582   8.318  0.00  0.00    +0.000 OA
BRANCH  11  12
ATOM     12  C   UNL     1      45.797   3.426   7.963  0.00  0.00    +0.000 A 
ATOM     13  C   UNL     1      46.828   3.558   7.043  0.00  0.00    +0.000 A 
ATOM     14  C   UNL     1      47.532   2.416   6.670  0.00  0.00    +0.000 A 
ATOM     15  C   UNL     1      47.189   1.193   7.231  0.00  0.00    +0.000 A 
ATOM     16  C   UNL     1      46.147   1.159   8.142  0.00  0.00    +0.000 A 
ATOM     17  N   UNL     1      45.441   2.247   8.518  0.00  0.00    +0.000 NA
ENDBRANCH  11  12
ENDBRANCH  10  11
ENDBRANCH   9  10
ENDBRANCH   1   6
BRANCH   1  18
ATOM     18  N   UNL     1      48.408   6.432  14.001  0.00  0.00    +0.000 N 
ATOM     19  C   UNL     1      49.001   7.417  14.746  0.00  0.00    +0.000 C 
ATOM     20  O   UNL     1      48.484   7.878  15.761  0.00  0.00    +0.000 OA
ATOM     21  H   UNL     1      48.762   6.233  13.072  0.00  0.00    +0.000 HD
BRANCH  19  22
ATOM     22  C   UNL     1      50.339   7.847  14.311  0.00  0.00    +0.000 A 
ATOM     23  C   UNL     1      51.426   7.652  15.154  0.00  0.00    +0.000 A 
ATOM     24  S   UNL     1      52.908   8.171  14.493  0.00  0.00    +0.000 S 
ATOM     25  C   UNL     1      52.147   8.716  13.073  0.00  0.00    +0.000 A 
ATOM     26  N   UNL     1      52.863   9.310  12.082  0.00  0.00    +0.000 NA
ATOM     27  C   UNL     1      52.158   9.705  11.076  0.00  0.00    +0.000 A 
ATOM     28  N   UNL     1      50.801   9.546  10.965  0.00  0.00    +0.000 N 
ATOM     29  C   UNL     1      50.047   8.893  11.910  0.00  0.00    +0.000 A 
ATOM     30  O   UNL     1      48.856   8.665  11.722  0.00  0.00    +0.000 OA
ATOM     31  C   UNL     1      50.784   8.473  13.088  0.00  0.00    +0.000 A 
ATOM     32  H   UNL     1      50.311   9.852  10.138  0.00  0.00    +0.000 HD
ENDBRANCH  19  22
ENDBRANCH   1  18
TORSDOF 6
ENDMDL
MODEL 6
REMARK VINA RESULT:    -7.581      2.695      3.705
REMARK INTER + INTRA:         -11.326
REMARK INTER:                 -10.303
REMARK INTRA:                  -1.023
REMARK UNBOUND:                -1.087
REMARK  Name = 
REMARK  8 active torsions:
REMARK  status: ('A' for Active; 'I' for Inactive)
REMARK    1  A    between atoms: C_1  and  C_2
REMARK    2  A    between atoms: C_4  and  C_5
REMARK    3  A    between atoms: C_5  and  C_6
REMARK    4  A    between atoms: C_5  and  N_7
REMARK    5  A    between atoms: C_8  and  C_10
REMARK    6  A    between atoms: C_22  and  C_23
REMARK    7  A    between atoms: C_23  and  O_24
REMARK    8  A    between atoms: O_24  and  C_25
REMARK                            x       y       z     vdW  Elec       q    Type
REMARK                         _______ _______ _______ _____ _____    ______ ____
ROOT
ATOM      1  C   UNL     1      46.877   5.652  14.239  0.00  0.00    +0.000 C 
ATOM      2  C   UNL     1      47.133   4.510  15.230  0.00  0.00    +0.000 C 
ENDROOT
BRANCH   1   6
ATOM      3  C   UNL     1      43.641   2.588  11.840  0.00  0.00    +0.000 C 
ATOM      4  C   UNL     1      44.592   3.751  11.774  0.00  0.00    +0.000 A 
ATOM      5  C   UNL     1      45.291   4.114  12.941  0.00  0.00    +0.000 A 
ATOM      6  C   UNL     1      46.168   5.210  12.971  0.00  0.00    +0.000 A 
ATOM      7  C   UNL     1      46.389   5.908  11.778  0.00  0.00    +0.000 A 
ATOM      8  C   UNL     1      45.707   5.558  10.611  0.00  0.00    +0.000 A 
ATOM      9  C   UNL     1      44.799   4.484  10.591  0.00  0.00    +0.000 A 
BRANCH   9  10
ATOM     10  C   UNL     1      44.073   4.176   9.297  0.00  0.00    +0.000 C 
BRANCH  10  11
ATOM     11  O   UNL     1      44.945   4.437   8.196  0.00  0.00    +0.000 OA
BRANCH  11  12
ATOM     12  C   UNL     1      45.712   3.338   7.858  0.00  0.00    +0.000 A 
ATOM     13  C   UNL     1      46.689   3.533   6.892  0.00  0.00    +0.000 A 
ATOM     14  C   UNL     1      47.490   2.451   6.533  0.00  0.00    +0.000 A 
ATOM     15  C   UNL     1      47.293   1.224   7.155  0.00  0.00    +0.000 A 
ATOM     16  C   UNL     1      46.293   1.126   8.109  0.00  0.00    +0.000 A 
ATOM     17  N   UNL     1      45.496   2.155   8.471  0.00  0.00    +0.000 NA
ENDBRANCH  11  12
ENDBRANCH  10  11
ENDBRANCH   9  10
ENDBRANCH   1   6
BRANCH   1  18
ATOM     18  N   UNL     1      48.137   6.295  13.920  0.00  0.00    +0.000 N 
ATOM     19  C   UNL     1      48.316   7.652  13.940  0.00  0.00    +0.000 C 
ATOM     20  O   UNL     1      47.414   8.432  14.234  0.00  0.00    +0.000 OA
ATOM     21  H   UNL     1      48.836   5.709  13.475  0.00  0.00    +0.000 HD
BRANCH  19  22
ATOM     22  C   UNL     1      49.679   8.133  13.665  0.00  0.00    +0.000 A 
ATOM     23  C   UNL     1      49.893   9.009  12.608  0.00  0.00    +0.000 A 
ATOM     24  S   UNL     1      51.516   9.500  12.441  0.00  0.00    +0.000 S 
ATOM     25  C   UNL     1      52.002   8.525  13.748  0.00  0.00    +0.000 A 
ATOM     26  N   UNL     1      53.307   8.461  14.123  0.00  0.00    +0.000 NA
ATOM     27  C   UNL     1      53.542   7.659  15.107  0.00  0.00    +0.000 A 
ATOM     28  N   UNL     1      52.585   6.928  15.762  0.00  0.00    +0.000 N 
ATOM     29  C   UNL     1      51.246   7.013  15.462  0.00  0.00    +0.000 A 
ATOM     30  O   UNL     1      50.408   6.434  16.146  0.00  0.00    +0.000 OA
ATOM     31  C   UNL     1      50.934   7.862  14.327  0.00  0.00    +0.000 A 
ATOM     32  H   UNL     1      52.830   6.340  16.544  0.00  0.00    +0.000 HD
ENDBRANCH  19  22
ENDBRANCH   1  18
TORSDOF 6
ENDMDL
MODEL 7
REMARK VINA RESULT:    -7.484      3.412      8.104
REMARK INTER + INTRA:         -11.196
REMARK INTER:                  -9.923
REMARK INTRA:                  -1.273
REMARK UNBOUND:                -1.087
REMARK  Name = 
REMARK  8 active torsions:
REMARK  status: ('A' for Active; 'I' for Inactive)
REMARK    1  A    between atoms: C_1  and  C_2
REMARK    2  A    between atoms: C_4  and  C_5
REMARK    3  A    between atoms: C_5  and  C_6
REMARK    4  A    between atoms: C_5  and  N_7
REMARK    5  A    between atoms: C_8  and  C_10
REMARK    6  A    between atoms: C_22  and  C_23
REMARK    7  A    between atoms: C_23  and  O_24
REMARK    8  A    between atoms: O_24  and  C_25
REMARK                            x       y       z     vdW  Elec       q    Type
REMARK                         _______ _______ _______ _____ _____    ______ ____
ROOT
ATOM      1  C   UNL     1      48.214   7.160  13.208  0.00  0.00    +0.000 C 
ATOM      2  C   UNL     1      49.436   7.567  12.377  0.00  0.00    +0.000 C 
ENDROOT
BRANCH   1   6
ATOM      3  C   UNL     1      47.284   3.956  17.014  0.00  0.00    +0.000 C 
ATOM      4  C   UNL     1      48.157   5.033  16.430  0.00  0.00    +0.000 A 
ATOM      5  C   UNL     1      47.786   5.602  15.197  0.00  0.00    +0.000 A 
ATOM      6  C   UNL     1      48.567   6.585  14.569  0.00  0.00    +0.000 A 
ATOM      7  C   UNL     1      49.708   7.045  15.236  0.00  0.00    +0.000 A 
ATOM      8  C   UNL     1      50.087   6.493  16.462  0.00  0.00    +0.000 A 
ATOM      9  C   UNL     1      49.326   5.481  17.072  0.00  0.00    +0.000 A 
BRANCH   9  10
ATOM     10  C   UNL     1      49.809   4.908  18.389  0.00  0.00    +0.000 C 
BRANCH  10  11
ATOM     11  O   UNL     1      51.235   4.817  18.367  0.00  0.00    +0.000 OA
BRANCH  11  12
ATOM     12  C   UNL     1      51.678   3.530  18.128  0.00  0.00    +0.000 A 
ATOM     13  C   UNL     1      50.761   2.647  17.575  0.00  0.00    +0.000 A 
ATOM     14  C   UNL     1      51.174   1.344  17.310  0.00  0.00    +0.000 A 
ATOM     15  C   UNL     1      52.482   0.974  17.596  0.00  0.00    +0.000 A 
ATOM     16  C   UNL     1      53.326   1.926  18.146  0.00  0.00    +0.000 A 
ATOM     17  N   UNL     1      52.952   3.193  18.422  0.00  0.00    +0.000 NA
ENDBRANCH  11  12
ENDBRANCH  10  11
ENDBRANCH   9  10
ENDBRANCH   1   6
BRANCH   1  18
ATOM     18  N   UNL     1      47.418   6.215  12.448  0.00  0.00    +0.000 N 
ATOM     19  C   UNL     1      46.334   6.580  11.694  0.00  0.00    +0.000 C 
ATOM     20  O   UNL     1      45.956   7.745  11.603  0.00  0.00    +0.000 OA
ATOM     21  H   UNL     1      47.566   5.234  12.661  0.00  0.00    +0.000 HD
BRANCH  19  22
ATOM     22  C   UNL     1      45.685   5.507  10.925  0.00  0.00    +0.000 A 
ATOM     23  C   UNL     1      45.765   5.517   9.538  0.00  0.00    +0.000 A 
ATOM     24  S   UNL     1      44.993   4.192   8.796  0.00  0.00    +0.000 S 
ATOM     25  C   UNL     1      44.485   3.577  10.299  0.00  0.00    +0.000 A 
ATOM     26  N   UNL     1      43.734   2.446  10.372  0.00  0.00    +0.000 NA
ATOM     27  C   UNL     1      43.390   2.109  11.569  0.00  0.00    +0.000 A 
ATOM     28  N   UNL     1      43.743   2.794  12.703  0.00  0.00    +0.000 N 
ATOM     29  C   UNL     1      44.556   3.902  12.683  0.00  0.00    +0.000 A 
ATOM     30  O   UNL     1      44.947   4.418  13.725  0.00  0.00    +0.000 OA
ATOM     31  C   UNL     1      44.929   4.354  11.355  0.00  0.00    +0.000 A 
ATOM     32  H   UNL     1      43.466   2.461  13.615  0.00  0.00    +0.000 HD
ENDBRANCH  19  22
ENDBRANCH   1  18
TORSDOF 6
ENDMDL
MODEL 8
REMARK VINA RESULT:    -7.466      2.451      3.861
REMARK INTER + INTRA:         -11.171
REMARK INTER:                  -9.866
REMARK INTRA:                  -1.306
REMARK UNBOUND:                -1.087
REMARK  Name = 
REMARK  8 active torsions:
REMARK  status: ('A' for Active; 'I' for Inactive)
REMARK    1  A    between atoms: C_1  and  C_2
REMARK    2  A    between atoms: C_4  and  C_5
REMARK    3  A    between atoms: C_5  and  C_6
REMARK    4  A    between atoms: C_5  and  N_7
REMARK    5  A    between atoms: C_8  and  C_10
REMARK    6  A    between atoms: C_22  and  C_23
REMARK    7  A    between atoms: C_23  and  O_24
REMARK    8  A    between atoms: O_24  and  C_25
REMARK                            x       y       z     vdW  Elec       q    Type
REMARK                         _______ _______ _______ _____ _____    ______ ____
ROOT
ATOM      1  C   UNL     1      47.195   4.332  15.818  0.00  0.00    +0.000 C 
ATOM      2  C   UNL     1      47.917   2.979  15.827  0.00  0.00    +0.000 C 
ENDROOT
BRANCH   1   6
ATOM      3  C   UNL     1      47.770   7.350  11.795  0.00  0.00    +0.000 C 
ATOM      4  C   UNL     1      47.025   6.222  12.455  0.00  0.00    +0.000 A 
ATOM      5  C   UNL     1      47.389   5.851  13.763  0.00  0.00    +0.000 A 
ATOM      6  C   UNL     1      46.768   4.785  14.432  0.00  0.00    +0.000 A 
ATOM      7  C   UNL     1      45.714   4.127  13.787  0.00  0.00    +0.000 A 
ATOM      8  C   UNL     1      45.339   4.486  12.490  0.00  0.00    +0.000 A 
ATOM      9  C   UNL     1      45.987   5.528  11.806  0.00  0.00    +0.000 A 
BRANCH   9  10
ATOM     10  C   UNL     1      45.547   5.847  10.391  0.00  0.00    +0.000 C 
BRANCH  10  11
ATOM     11  O   UNL     1      44.702   4.798   9.914  0.00  0.00    +0.000 OA
BRANCH  11  12
ATOM     12  C   UNL     1      45.356   3.951   9.039  0.00  0.00    +0.000 A 
ATOM     13  C   UNL     1      45.236   2.590   9.281  0.00  0.00    +0.000 A 
ATOM     14  C   UNL     1      45.871   1.705   8.414  0.00  0.00    +0.000 A 
ATOM     15  C   UNL     1      46.593   2.208   7.339  0.00  0.00    +0.000 A 
ATOM     16  C   UNL     1      46.656   3.582   7.177  0.00  0.00    +0.000 A 
ATOM     17  N   UNL     1      46.057   4.465   8.005  0.00  0.00    +0.000 NA
ENDBRANCH  11  12
ENDBRANCH  10  11
ENDBRANCH   9  10
ENDBRANCH   1   6
BRANCH   1  18
ATOM     18  N   UNL     1      48.048   5.328  16.438  0.00  0.00    +0.000 N 
ATOM     19  C   UNL     1      47.934   5.706  17.749  0.00  0.00    +0.000 C 
ATOM     20  O   UNL     1      47.093   5.222  18.504  0.00  0.00    +0.000 OA
ATOM     21  H   UNL     1      48.605   5.893  15.806  0.00  0.00    +0.000 HD
BRANCH  19  22
ATOM     22  C   UNL     1      48.928   6.673  18.238  0.00  0.00    +0.000 A 
ATOM     23  C   UNL     1      48.503   7.798  18.933  0.00  0.00    +0.000 A 
ATOM     24  S   UNL     1      49.776   8.801  19.460  0.00  0.00    +0.000 S 
ATOM     25  C   UNL     1      50.941   7.792  18.741  0.00  0.00    +0.000 A 
ATOM     26  N   UNL     1      52.264   8.103  18.798  0.00  0.00    +0.000 NA
ATOM     27  C   UNL     1      53.035   7.271  18.185  0.00  0.00    +0.000 A 
ATOM     28  N   UNL     1      52.605   6.145  17.531  0.00  0.00    +0.000 N 
ATOM     29  C   UNL     1      51.287   5.756  17.505  0.00  0.00    +0.000 A 
ATOM     30  O   UNL     1      50.955   4.682  17.013  0.00  0.00    +0.000 OA
ATOM     31  C   UNL     1      50.370   6.686  18.137  0.00  0.00    +0.000 A 
ATOM     32  H   UNL     1      53.264   5.518  17.095  0.00  0.00    +0.000 HD
ENDBRANCH  19  22
ENDBRANCH   1  18
TORSDOF 6
ENDMDL
MODEL 9
REMARK VINA RESULT:    -7.252      3.278      4.709
REMARK INTER + INTRA:         -10.882
REMARK INTER:                  -9.662
REMARK INTRA:                  -1.220
REMARK UNBOUND:                -1.087
REMARK  Name = 
REMARK  8 active torsions:
REMARK  status: ('A' for Active; 'I' for Inactive)
REMARK    1  A    between atoms: C_1  and  C_2
REMARK    2  A    between atoms: C_4  and  C_5
REMARK    3  A    between atoms: C_5  and  C_6
REMARK    4  A    between atoms: C_5  and  N_7
REMARK    5  A    between atoms: C_8  and  C_10
REMARK    6  A    between atoms: C_22  and  C_23
REMARK    7  A    between atoms: C_23  and  O_24
REMARK    8  A    between atoms: O_24  and  C_25
REMARK                            x       y       z     vdW  Elec       q    Type
REMARK                         _______ _______ _______ _____ _____    ______ ____
ROOT
ATOM      1  C   UNL     1      47.958   4.558  16.900  0.00  0.00    +0.000 C 
ATOM      2  C   UNL     1      47.144   3.330  17.325  0.00  0.00    +0.000 C 
ENDROOT
BRANCH   1   6
ATOM      3  C   UNL     1      48.729   7.773  13.069  0.00  0.00    +0.000 C 
ATOM      4  C   UNL     1      47.973   6.596  13.621  0.00  0.00    +0.000 A 
ATOM      5  C   UNL     1      48.253   6.175  14.935  0.00  0.00    +0.000 A 
ATOM      6  C   UNL     1      47.617   5.063  15.509  0.00  0.00    +0.000 A 
ATOM      7  C   UNL     1      46.633   4.408  14.759  0.00  0.00    +0.000 A 
ATOM      8  C   UNL     1      46.341   4.816  13.456  0.00  0.00    +0.000 A 
ATOM      9  C   UNL     1      47.005   5.906  12.868  0.00  0.00    +0.000 A 
BRANCH   9  10
ATOM     10  C   UNL     1      46.658   6.278  11.440  0.00  0.00    +0.000 C 
BRANCH  10  11
ATOM     11  O   UNL     1      45.323   5.858  11.156  0.00  0.00    +0.000 OA
BRANCH  11  12
ATOM     12  C   UNL     1      45.269   4.924  10.139  0.00  0.00    +0.000 A 
ATOM     13  C   UNL     1      44.521   3.780  10.381  0.00  0.00    +0.000 A 
ATOM     14  C   UNL     1      44.434   2.821   9.375  0.00  0.00    +0.000 A 
ATOM     15  C   UNL     1      45.087   3.041   8.168  0.00  0.00    +0.000 A 
ATOM     16  C   UNL     1      45.809   4.214   8.018  0.00  0.00    +0.000 A 
ATOM     17  N   UNL     1      45.917   5.158   8.978  0.00  0.00    +0.000 NA
ENDBRANCH  11  12
ENDBRANCH  10  11
ENDBRANCH   9  10
ENDBRANCH   1   6
BRANCH   1  18
ATOM     18  N   UNL     1      49.371   4.246  16.997  0.00  0.00    +0.000 N 
ATOM     19  C   UNL     1      50.147   4.595  18.071  0.00  0.00    +0.000 C 
ATOM     20  O   UNL     1      49.697   5.201  19.040  0.00  0.00    +0.000 OA
ATOM     21  H   UNL     1      49.819   3.939  16.141  0.00  0.00    +0.000 HD
BRANCH  19  22
ATOM     22  C   UNL     1      51.543   4.134  18.042  0.00  0.00    +0.000 A 
ATOM     23  C   UNL     1      52.564   5.033  18.325  0.00  0.00    +0.000 A 
ATOM     24  S   UNL     1      54.120   4.338  18.284  0.00  0.00    +0.000 S 
ATOM     25  C   UNL     1      53.491   2.821  17.843  0.00  0.00    +0.000 A 
ATOM     26  N   UNL     1      54.315   1.764  17.616  0.00  0.00    +0.000 NA
ATOM     27  C   UNL     1      53.709   0.682  17.257  0.00  0.00    +0.000 A 
ATOM     28  N   UNL     1      52.351   0.557  17.121  0.00  0.00    +0.000 N 
ATOM     29  C   UNL     1      51.476   1.578  17.405  0.00  0.00    +0.000 A 
ATOM     30  O   UNL     1      50.263   1.395  17.386  0.00  0.00    +0.000 OA
ATOM     31  C   UNL     1      52.109   2.834  17.763  0.00  0.00    +0.000 A 
ATOM     32  H   UNL     1      51.936  -0.326  16.865  0.00  0.00    +0.000 HD
ENDBRANCH  19  22
ENDBRANCH   1  18
TORSDOF 6
ENDMDL
