MODEL 1
REMARK VINA RESULT:    -8.024      0.000      0.000
REMARK INTER + INTRA:         -12.983
REMARK INTER:                 -12.011
REMARK INTRA:                  -0.972
REMARK UNBOUND:                -0.972
REMARK  Name = 
REMARK  9 active torsions:
REMARK  status: ('A' for Active; 'I' for Inactive)
REMARK    1  A    between atoms: C_2  and  C_22
REMARK    2  A    between atoms: N_3  and  C_4
REMARK    3  A    between atoms: C_4  and  C_5
REMARK    4  A    between atoms: C_8  and  C_9
REMARK    5  A    between atoms: C_9  and  N_10
REMARK    6  A    between atoms: N_10  and  CA_11
REMARK    7  A    between atoms: CA_11  and  C_12
REMARK    8  A    between atoms: CA_11  and  C_14
REMARK    9  A    between atoms: C_12  and  O_13
REMARK                            x       y       z     vdW  Elec       q    Type
REMARK                         _______ _______ _______ _____ _____    ______ ____
ROOT
ATOM      1  C   UNL     1      46.960   6.039  12.951  0.00  0.00    +0.000 A 
ATOM      2  N   UNL     1      46.016   5.263  13.522  0.00  0.00    +0.000 NA
ATOM      3  C   UNL     1      44.922   5.009  12.779  0.00  0.00    +0.000 A 
ATOM      4  C   UNL     1      44.729   5.477  11.493  0.00  0.00    +0.000 A 
ATOM      5  C   UNL     1      45.770   6.236  10.999  0.00  0.00    +0.000 A 
ATOM      6  N   UNL     1      46.890   6.522  11.699  0.00  0.00    +0.000 NA
ENDROOT
BRANCH   1   7
ATOM      7  C   UNL     1      48.243   6.287  13.711  0.00  0.00    +0.000 C 
BRANCH   7  10
ATOM      8  O   UNL     1      50.211   6.527  15.654  0.00  0.00    +0.000 OA
ATOM      9  C   UNL     1      49.036   6.544  16.006  0.00  0.00    +0.000 C 
ATOM     10  N   UNL     1      47.995   6.411  15.134  0.00  0.00    +0.000 N 
ATOM     11  H   UNL     1      47.074   6.182  15.477  0.00  0.00    +0.000 HD
BRANCH   9  12
ATOM     12  C   UNL     1      48.651   6.809  17.386  0.00  0.00    +0.000 A 
ATOM     13  C   UNL     1      48.524   8.074  17.937  0.00  0.00    +0.000 A 
ATOM     14  S   UNL     1      48.489   8.035  19.651  0.00  0.00    +0.000 S 
ATOM     15  C   UNL     1      48.558   6.332  19.669  0.00  0.00    +0.000 A 
ATOM     16  N   UNL     1      48.670   5.621  20.824  0.00  0.00    +0.000 NA
ATOM     17  C   UNL     1      48.651   4.339  20.654  0.00  0.00    +0.000 A 
ATOM     18  N   UNL     1      48.478   3.703  19.449  0.00  0.00    +0.000 N 
ATOM     19  C   UNL     1      48.299   4.383  18.266  0.00  0.00    +0.000 A 
ATOM     20  O   UNL     1      47.930   3.816  17.244  0.00  0.00    +0.000 OA
ATOM     21  C   UNL     1      48.470   5.813  18.395  0.00  0.00    +0.000 A 
ATOM     22  H   UNL     1      48.348   2.704  19.404  0.00  0.00    +0.000 HD
ENDBRANCH   9  12
ENDBRANCH   7  10
ENDBRANCH   1   7
BRANCH   4  23
ATOM     23  C   UNL     1      43.499   5.169  10.695  0.00  0.00    +0.000 C 
BRANCH  23  24
ATOM     24  N   UNL     1      43.843   4.367   9.523  0.00  0.00    +0.000 NA
ATOM     25  H   UNL     1      44.391   4.952   8.890  0.00  0.00    +0.000 HD
BRANCH  24  26
ATOM     26  CA  UNL     1      44.659   3.167   9.826  0.00  0.00    +0.000 C 
BRANCH  26  27
ATOM     27  C   UNL     1      45.554   2.800   8.634  0.00  0.00    +0.000 A 
ATOM     28  C   UNL     1      45.842   3.713   7.617  0.00  0.00    +0.000 A 
ATOM     29  C   UNL     1      46.648   3.312   6.554  0.00  0.00    +0.000 A 
ATOM     30  C   UNL     1      47.137   2.013   6.520  0.00  0.00    +0.000 A 
ATOM     31  C   UNL     1      46.790   1.160   7.552  0.00  0.00    +0.000 A 
ATOM     32  N   UNL     1      46.007   1.519   8.594  0.00  0.00    +0.000 NA
ENDBRANCH  26  27
BRANCH  26  33
ATOM     33  C   UNL     1      43.835   1.912  10.218  0.00  0.00    +0.000 C 
BRANCH  33  34
ATOM     34  O   UNL     1      43.242   2.010  11.515  0.00  0.00    +0.000 OA
ATOM     35  H   UNL     1      43.606   1.280  12.057  0.00  0.00    +0.000 HD
ENDBRANCH  33  34
ENDBRANCH  26  33
ENDBRANCH  24  26
ENDBRANCH  23  24
ENDBRANCH   4  23
TORSDOF 9
ENDMDL
MODEL 2
REMARK VINA RESULT:    -7.898      2.140      2.456
REMARK INTER + INTRA:         -12.794
REMARK INTER:                 -12.009
REMARK INTRA:                  -0.786
REMARK UNBOUND:                -0.972
REMARK  Name = 
REMARK  9 active torsions:
REMARK  status: ('A' for Active; 'I' for Inactive)
REMARK    1  A    between atoms: C_2  and  C_22
REMARK    2  A    between atoms: N_3  and  C_4
REMARK    3  A    between atoms: C_4  and  C_5
REMARK    4  A    between atoms: C_8  and  C_9
REMARK    5  A    between atoms: C_9  and  N_10
REMARK    6  A    between atoms: N_10  and  CA_11
REMARK    7  A    between atoms: CA_11  and  C_12
REMARK    8  A    between atoms: CA_11  and  C_14
REMARK    9  A    between atoms: C_12  and  O_13
REMARK                            x       y       z     vdW  Elec       q    Type
REMARK                         _______ _______ _______ _____ _____    ______ ____
ROOT
ATOM      1  C   UNL     1      47.183   6.014  13.811  0.00  0.00    +0.000 A 
ATOM      2  N   UNL     1      47.547   4.715  13.780  0.00  0.00    +0.000 NA
ATOM      3  C   UNL     1      46.680   3.865  13.197  0.00  0.00    +0.000 A 
ATOM      4  C   UNL     1      45.476   4.247  12.634  0.00  0.00    +0.000 A 
ATOM      5  C   UNL     1      45.220   5.601  12.697  0.00  0.00    +0.000 A 
ATOM      6  N   UNL     1      46.053   6.499  13.267  0.00  0.00    +0.000 NA
ENDROOT
BRANCH   1   7
ATOM      7  C   UNL     1      48.157   7.020  14.380  0.00  0.00    +0.000 C 
BRANCH   7  10
ATOM      8  O   UNL     1      48.482   7.493  17.095  0.00  0.00    +0.000 OA
ATOM      9  C   UNL     1      49.208   6.666  16.554  0.00  0.00    +0.000 C 
ATOM     10  N   UNL     1      49.145   6.376  15.222  0.00  0.00    +0.000 N 
ATOM     11  H   UNL     1      49.906   5.889  14.774  0.00  0.00    +0.000 HD
BRANCH   9  12
ATOM     12  C   UNL     1      50.141   5.846  17.317  0.00  0.00    +0.000 A 
ATOM     13  C   UNL     1      51.257   6.334  17.977  0.00  0.00    +0.000 A 
ATOM     14  S   UNL     1      52.358   5.088  18.398  0.00  0.00    +0.000 S 
ATOM     15  C   UNL     1      51.320   3.886  17.782  0.00  0.00    +0.000 A 
ATOM     16  N   UNL     1      51.683   2.576  17.717  0.00  0.00    +0.000 NA
ATOM     17  C   UNL     1      50.751   1.795  17.274  0.00  0.00    +0.000 A 
ATOM     18  N   UNL     1      49.478   2.192  16.942  0.00  0.00    +0.000 N 
ATOM     19  C   UNL     1      49.051   3.495  17.051  0.00  0.00    +0.000 A 
ATOM     20  O   UNL     1      47.866   3.798  16.963  0.00  0.00    +0.000 OA
ATOM     21  C   UNL     1      50.109   4.419  17.394  0.00  0.00    +0.000 A 
ATOM     22  H   UNL     1      48.764   1.514  16.723  0.00  0.00    +0.000 HD
ENDBRANCH   9  12
ENDBRANCH   7  10
ENDBRANCH   1   7
BRANCH   4  23
ATOM     23  C   UNL     1      44.539   3.272  11.989  0.00  0.00    +0.000 C 
BRANCH  23  24
ATOM     24  N   UNL     1      45.189   2.614  10.859  0.00  0.00    +0.000 NA
ATOM     25  H   UNL     1      44.980   1.615  10.912  0.00  0.00    +0.000 HD
BRANCH  24  26
ATOM     26  CA  UNL     1      44.726   3.087   9.532  0.00  0.00    +0.000 C 
BRANCH  26  27
ATOM     27  C   UNL     1      45.652   2.581   8.418  0.00  0.00    +0.000 A 
ATOM     28  C   UNL     1      46.021   3.388   7.339  0.00  0.00    +0.000 A 
ATOM     29  C   UNL     1      46.851   2.864   6.352  0.00  0.00    +0.000 A 
ATOM     30  C   UNL     1      47.285   1.549   6.452  0.00  0.00    +0.000 A 
ATOM     31  C   UNL     1      46.860   0.805   7.538  0.00  0.00    +0.000 A 
ATOM     32  N   UNL     1      46.051   1.285   8.510  0.00  0.00    +0.000 NA
ENDBRANCH  26  27
BRANCH  26  33
ATOM     33  C   UNL     1      44.611   4.629   9.404  0.00  0.00    +0.000 C 
BRANCH  33  34
ATOM     34  O   UNL     1      43.319   5.128   9.758  0.00  0.00    +0.000 OA
ATOM     35  H   UNL     1      43.053   4.683  10.589  0.00  0.00    +0.000 HD
ENDBRANCH  33  34
ENDBRANCH  26  33
ENDBRANCH  24  26
ENDBRANCH  23  24
ENDBRANCH   4  23
TORSDOF 9
ENDMDL
MODEL 3
REMARK VINA RESULT:    -7.786      3.279      4.157
REMARK INTER + INTRA:         -12.627
REMARK INTER:                 -11.301
REMARK INTRA:                  -1.326
REMARK UNBOUND:                -0.972
REMARK  Name = 
REMARK  9 active torsions:
REMARK  status: ('A' for Active; 'I' for Inactive)
REMARK    1  A    between atoms: C_2  and  C_22
REMARK    2  A    between atoms: N_3  and  C_4
REMARK    3  A    between atoms: C_4  and  C_5
REMARK    4  A    between atoms: C_8  and  C_9
REMARK    5  A    between atoms: C_9  and  N_10
REMARK    6  A    between atoms: N_10  and  CA_11
REMARK    7  A    between atoms: CA_11  and  C_12
REMARK    8  A    between atoms: CA_11  and  C_14
REMARK    9  A    between atoms: C_12  and  O_13
REMARK                            x       y       z     vdW  Elec       q    Type
REMARK                         _______ _______ _______ _____ _____    ______ ____
ROOT
ATOM      1  C   UNL     1      48.635   5.998  15.749  0.00  0.00    +0.000 A 
ATOM      2  N   UNL     1      47.994   4.894  16.189  0.00  0.00    +0.000 NA
ATOM      3  C   UNL     1      47.117   4.333  15.334  0.00  0.00    +0.000 A 
ATOM      4  C   UNL     1      46.858   4.808  14.062  0.00  0.00    +0.000 A 
ATOM      5  C   UNL     1      47.590   5.922  13.708  0.00  0.00    +0.000 A 
ATOM      6  N   UNL     1      48.483   6.526  14.523  0.00  0.00    +0.000 NA
ENDROOT
BRANCH   1   7
ATOM      7  C   UNL     1      49.690   6.618  16.637  0.00  0.00    +0.000 C 
BRANCH   7  10
ATOM      8  O   UNL     1      52.389   6.017  16.402  0.00  0.00    +0.000 OA
ATOM      9  C   UNL     1      51.724   5.404  17.230  0.00  0.00    +0.000 C 
ATOM     10  N   UNL     1      50.386   5.608  17.409  0.00  0.00    +0.000 N 
ATOM     11  H   UNL     1      49.834   4.927  17.909  0.00  0.00    +0.000 HD
BRANCH   9  12
ATOM     12  C   UNL     1      52.333   4.470  18.166  0.00  0.00    +0.000 A 
ATOM     13  C   UNL     1      53.168   4.835  19.210  0.00  0.00    +0.000 A 
ATOM     14  S   UNL     1      54.046   3.502  19.837  0.00  0.00    +0.000 S 
ATOM     15  C   UNL     1      53.260   2.418  18.783  0.00  0.00    +0.000 A 
ATOM     16  N   UNL     1      53.607   1.105  18.701  0.00  0.00    +0.000 NA
ATOM     17  C   UNL     1      52.868   0.417  17.890  0.00  0.00    +0.000 A 
ATOM     18  N   UNL     1      51.787   0.906  17.198  0.00  0.00    +0.000 N 
ATOM     19  C   UNL     1      51.366   2.212  17.298  0.00  0.00    +0.000 A 
ATOM     20  O   UNL     1      50.284   2.579  16.853  0.00  0.00    +0.000 OA
ATOM     21  C   UNL     1      52.259   3.045  18.073  0.00  0.00    +0.000 A 
ATOM     22  H   UNL     1      51.180   0.289  16.681  0.00  0.00    +0.000 HD
ENDBRANCH   9  12
ENDBRANCH   7  10
ENDBRANCH   1   7
BRANCH   4  23
ATOM     23  C   UNL     1      45.878   4.153  13.138  0.00  0.00    +0.000 C 
BRANCH  23  24
ATOM     24  N   UNL     1      44.934   5.138  12.617  0.00  0.00    +0.000 NA
ATOM     25  H   UNL     1      45.450   5.780  12.013  0.00  0.00    +0.000 HD
BRANCH  24  26
ATOM     26  CA  UNL     1      43.837   4.560  11.805  0.00  0.00    +0.000 C 
BRANCH  26  27
ATOM     27  C   UNL     1      44.373   4.008  10.477  0.00  0.00    +0.000 A 
ATOM     28  C   UNL     1      44.215   2.668  10.115  0.00  0.00    +0.000 A 
ATOM     29  C   UNL     1      44.740   2.226   8.903  0.00  0.00    +0.000 A 
ATOM     30  C   UNL     1      45.419   3.120   8.087  0.00  0.00    +0.000 A 
ATOM     31  C   UNL     1      45.555   4.426   8.523  0.00  0.00    +0.000 A 
ATOM     32  N   UNL     1      45.061   4.883   9.696  0.00  0.00    +0.000 NA
ENDBRANCH  26  27
BRANCH  26  33
ATOM     33  C   UNL     1      42.683   5.547  11.489  0.00  0.00    +0.000 C 
BRANCH  33  34
ATOM     34  O   UNL     1      43.141   6.856  11.142  0.00  0.00    +0.000 OA
ATOM     35  H   UNL     1      44.072   6.770  10.850  0.00  0.00    +0.000 HD
ENDBRANCH  33  34
ENDBRANCH  26  33
ENDBRANCH  24  26
ENDBRANCH  23  24
ENDBRANCH   4  23
TORSDOF 9
ENDMDL
MODEL 4
REMARK VINA RESULT:    -7.571      3.262      8.573
REMARK INTER + INTRA:         -12.305
REMARK INTER:                 -10.667
REMARK INTRA:                  -1.638
REMARK UNBOUND:                -0.972
REMARK  Name = 
REMARK  9 active torsions:
REMARK  status: ('A' for Active; 'I' for Inactive)
REMARK    1  A    between atoms: C_2  and  C_22
REMARK    2  A    between atoms: N_3  and  C_4
REMARK    3  A    between atoms: C_4  and  C_5
REMARK    4  A    between atoms: C_8  and  C_9
REMARK    5  A    between atoms: C_9  and  N_10
REMARK    6  A    between atoms: N_10  and  CA_11
REMARK    7  A    between atoms: CA_11  and  C_12
REMARK    8  A    between atoms: CA_11  and  C_14
REMARK    9  A    between atoms: C_12  and  O_13
REMARK                            x       y       z     vdW  Elec       q    Type
REMARK                         _______ _______ _______ _____ _____    ______ ____
ROOT
ATOM      1  C   UNL     1      48.329   8.075  13.855  0.00  0.00    +0.000 A 
ATOM      2  N   UNL     1      48.643   6.814  14.220  0.00  0.00    +0.000 NA
ATOM      3  C   UNL     1      49.062   6.647  15.489  0.00  0.00    +0.000 A 
ATOM      4  C   UNL     1      49.171   7.669  16.414  0.00  0.00    +0.000 A 
ATOM      5  C   UNL     1      48.796   8.909  15.940  0.00  0.00    +0.000 A 
ATOM      6  N   UNL     1      48.368   9.136  14.679  0.00  0.00    +0.000 NA
ENDROOT
BRANCH   1   7
ATOM      7  C   UNL     1      47.775   8.304  12.467  0.00  0.00    +0.000 C 
BRANCH   7  10
ATOM      8  O   UNL     1      45.127   7.696  11.905  0.00  0.00    +0.000 OA
ATOM      9  C   UNL     1      45.989   6.872  11.619  0.00  0.00    +0.000 C 
ATOM     10  N   UNL     1      47.316   7.064  11.873  0.00  0.00    +0.000 N 
ATOM     11  H   UNL     1      47.952   6.281  11.857  0.00  0.00    +0.000 HD
BRANCH   9  12
ATOM     12  C   UNL     1      45.675   5.652  10.888  0.00  0.00    +0.000 A 
ATOM     13  C   UNL     1      45.851   5.485   9.524  0.00  0.00    +0.000 A 
ATOM     14  S   UNL     1      44.996   4.127   8.920  0.00  0.00    +0.000 S 
ATOM     15  C   UNL     1      44.456   3.703  10.479  0.00  0.00    +0.000 A 
ATOM     16  N   UNL     1      43.578   2.686  10.693  0.00  0.00    +0.000 NA
ATOM     17  C   UNL     1      43.322   2.468  11.942  0.00  0.00    +0.000 A 
ATOM     18  N   UNL     1      43.899   3.134  12.996  0.00  0.00    +0.000 N 
ATOM     19  C   UNL     1      44.836   4.127  12.827  0.00  0.00    +0.000 A 
ATOM     20  O   UNL     1      45.499   4.558  13.764  0.00  0.00    +0.000 OA
ATOM     21  C   UNL     1      45.031   4.503  11.444  0.00  0.00    +0.000 A 
ATOM     22  H   UNL     1      43.749   2.831  13.946  0.00  0.00    +0.000 HD
ENDBRANCH   9  12
ENDBRANCH   7  10
ENDBRANCH   1   7
BRANCH   4  23
ATOM     23  C   UNL     1      49.636   7.442  17.819  0.00  0.00    +0.000 C 
BRANCH  23  24
ATOM     24  N   UNL     1      48.626   6.708  18.577  0.00  0.00    +0.000 NA
ATOM     25  H   UNL     1      47.903   6.402  17.924  0.00  0.00    +0.000 HD
BRANCH  24  26
ATOM     26  CA  UNL     1      49.140   5.497  19.260  0.00  0.00    +0.000 C 
BRANCH  26  27
ATOM     27  C   UNL     1      49.117   4.287  18.315  0.00  0.00    +0.000 A 
ATOM     28  C   UNL     1      50.285   3.618  17.941  0.00  0.00    +0.000 A 
ATOM     29  C   UNL     1      50.198   2.537  17.068  0.00  0.00    +0.000 A 
ATOM     30  C   UNL     1      48.957   2.154  16.577  0.00  0.00    +0.000 A 
ATOM     31  C   UNL     1      47.848   2.878  16.976  0.00  0.00    +0.000 A 
ATOM     32  N   UNL     1      47.901   3.935  17.819  0.00  0.00    +0.000 NA
ENDBRANCH  26  27
BRANCH  26  33
ATOM     33  C   UNL     1      48.374   5.116  20.554  0.00  0.00    +0.000 C 
BRANCH  33  34
ATOM     34  O   UNL     1      48.369   3.709  20.812  0.00  0.00    +0.000 OA
ATOM     35  H   UNL     1      47.819   3.289  20.118  0.00  0.00    +0.000 HD
ENDBRANCH  33  34
ENDBRANCH  26  33
ENDBRANCH  24  26
ENDBRANCH  23  24
ENDBRANCH   4  23
TORSDOF 9
ENDMDL
MODEL 5
REMARK VINA RESULT:    -7.226      1.969      2.362
REMARK INTER + INTRA:         -11.788
REMARK INTER:                 -10.886
REMARK INTRA:                  -0.903
REMARK UNBOUND:                -0.972
REMARK  Name = 
REMARK  9 active torsions:
REMARK  status: ('A' for Active; 'I' for Inactive)
REMARK    1  A    between atoms: C_2  and  C_22
REMARK    2  A    between atoms: N_3  and  C_4
REMARK    3  A    between atoms: C_4  and  C_5
REMARK    4  A    between atoms: C_8  and  C_9
REMARK    5  A    between atoms: C_9  and  N_10
REMARK    6  A    between atoms: N_10  and  CA_11
REMARK    7  A    between atoms: CA_11  and  C_12
REMARK    8  A    between atoms: CA_11  and  C_14
REMARK    9  A    between atoms: C_12  and  O_13
REMARK                            x       y       z     vdW  Elec       q    Type
REMARK                         _______ _______ _______ _____ _____    ______ ____
ROOT
ATOM      1  C   UNL     1      47.434   6.018  13.931  0.00  0.00    +0.000 A 
ATOM      2  N   UNL     1      47.510   4.687  14.144  0.00  0.00    +0.000 NA
ATOM      3  C   UNL     1      46.607   3.926  13.496  0.00  0.00    +0.000 A 
ATOM      4  C   UNL     1      45.644   4.423  12.638  0.00  0.00    +0.000 A 
ATOM      5  C   UNL     1      45.677   5.792  12.473  0.00  0.00    +0.000 A 
ATOM      6  N   UNL     1      46.559   6.604  13.096  0.00  0.00    +0.000 NA
ENDROOT
BRANCH   1   7
ATOM      7  C   UNL     1      48.475   6.908  14.570  0.00  0.00    +0.000 C 
BRANCH   7  10
ATOM      8  O   UNL     1      51.009   7.371  15.603  0.00  0.00    +0.000 OA
ATOM      9  C   UNL     1      50.253   6.627  16.219  0.00  0.00    +0.000 C 
ATOM     10  N   UNL     1      48.996   6.318  15.786  0.00  0.00    +0.000 N 
ATOM     11  H   UNL     1      48.508   5.526  16.176  0.00  0.00    +0.000 HD
BRANCH   9  12
ATOM     12  C   UNL     1      50.603   6.088  17.526  0.00  0.00    +0.000 A 
ATOM     13  C   UNL     1      51.742   5.344  17.791  0.00  0.00    +0.000 A 
ATOM     14  S   UNL     1      51.640   4.508  19.284  0.00  0.00    +0.000 S 
ATOM     15  C   UNL     1      50.118   5.194  19.628  0.00  0.00    +0.000 A 
ATOM     16  N   UNL     1      49.386   4.829  20.714  0.00  0.00    +0.000 NA
ATOM     17  C   UNL     1      48.283   5.491  20.850  0.00  0.00    +0.000 A 
ATOM     18  N   UNL     1      47.871   6.517  20.034  0.00  0.00    +0.000 N 
ATOM     19  C   UNL     1      48.610   6.958  18.960  0.00  0.00    +0.000 A 
ATOM     20  O   UNL     1      48.344   8.003  18.377  0.00  0.00    +0.000 OA
ATOM     21  C   UNL     1      49.770   6.140  18.687  0.00  0.00    +0.000 A 
ATOM     22  H   UNL     1      47.063   7.073  20.267  0.00  0.00    +0.000 HD
ENDBRANCH   9  12
ENDBRANCH   7  10
ENDBRANCH   1   7
BRANCH   4  23
ATOM     23  C   UNL     1      44.659   3.543  11.931  0.00  0.00    +0.000 C 
BRANCH  23  24
ATOM     24  N   UNL     1      45.300   2.862  10.809  0.00  0.00    +0.000 NA
ATOM     25  H   UNL     1      45.309   1.861  11.011  0.00  0.00    +0.000 HD
BRANCH  24  26
ATOM     26  CA  UNL     1      44.605   3.040   9.512  0.00  0.00    +0.000 C 
BRANCH  26  27
ATOM     27  C   UNL     1      45.529   2.674   8.342  0.00  0.00    +0.000 A 
ATOM     28  C   UNL     1      46.202   1.452   8.286  0.00  0.00    +0.000 A 
ATOM     29  C   UNL     1      47.039   1.188   7.205  0.00  0.00    +0.000 A 
ATOM     30  C   UNL     1      47.197   2.147   6.213  0.00  0.00    +0.000 A 
ATOM     31  C   UNL     1      46.514   3.342   6.349  0.00  0.00    +0.000 A 
ATOM     32  N   UNL     1      45.699   3.629   7.389  0.00  0.00    +0.000 NA
ENDBRANCH  26  27
BRANCH  26  33
ATOM     33  C   UNL     1      44.058   4.472   9.268  0.00  0.00    +0.000 C 
BRANCH  33  34
ATOM     34  O   UNL     1      45.088   5.458   9.168  0.00  0.00    +0.000 OA
ATOM     35  H   UNL     1      44.906   6.139   9.849  0.00  0.00    +0.000 HD
ENDBRANCH  33  34
ENDBRANCH  26  33
ENDBRANCH  24  26
ENDBRANCH  23  24
ENDBRANCH   4  23
TORSDOF 9
ENDMDL
MODEL 6
REMARK VINA RESULT:    -6.898      2.991      8.951
REMARK INTER + INTRA:         -11.297
REMARK INTER:                  -9.955
REMARK INTRA:                  -1.343
REMARK UNBOUND:                -0.972
REMARK  Name = 
REMARK  9 active torsions:
REMARK  status: ('A' for Active; 'I' for Inactive)
REMARK    1  A    between atoms: C_2  and  C_22
REMARK    2  A    between atoms: N_3  and  C_4
REMARK    3  A    between atoms: C_4  and  C_5
REMARK    4  A    between atoms: C_8  and  C_9
REMARK    5  A    between atoms: C_9  and  N_10
REMARK    6  A    between atoms: N_10  and  CA_11
REMARK    7  A    between atoms: CA_11  and  C_12
REMARK    8  A    between atoms: CA_11  and  C_14
REMARK    9  A    between atoms: C_12  and  O_13
REMARK                            x       y       z     vdW  Elec       q    Type
REMARK                         _______ _______ _______ _____ _____    ______ ____
ROOT
ATOM      1  C   UNL     1      48.212   7.568  13.162  0.00  0.00    +0.000 A 
ATOM      2  N   UNL     1      48.952   6.653  13.823  0.00  0.00    +0.000 NA
ATOM      3  C   UNL     1      49.195   6.910  15.123  0.00  0.00    +0.000 A 
ATOM      4  C   UNL     1      48.729   8.022  15.797  0.00  0.00    +0.000 A 
ATOM      5  C   UNL     1      47.961   8.874  15.031  0.00  0.00    +0.000 A 
ATOM      6  N   UNL     1      47.683   8.667  13.725  0.00  0.00    +0.000 NA
ENDROOT
BRANCH   1   7
ATOM      7  C   UNL     1      47.840   7.287  11.723  0.00  0.00    +0.000 C 
BRANCH   7  10
ATOM      8  O   UNL     1      45.101   7.608  11.417  0.00  0.00    +0.000 OA
ATOM      9  C   UNL     1      45.555   6.470  11.461  0.00  0.00    +0.000 C 
ATOM     10  N   UNL     1      46.883   6.203  11.630  0.00  0.00    +0.000 N 
ATOM     11  H   UNL     1      47.181   5.280  11.908  0.00  0.00    +0.000 HD
BRANCH   9  12
ATOM     12  C   UNL     1      44.718   5.299  11.233  0.00  0.00    +0.000 A 
ATOM     13  C   UNL     1      43.698   4.887  12.075  0.00  0.00    +0.000 A 
ATOM     14  S   UNL     1      43.211   3.272  11.764  0.00  0.00    +0.000 S 
ATOM     15  C   UNL     1      44.293   3.140  10.454  0.00  0.00    +0.000 A 
ATOM     16  N   UNL     1      44.483   1.971   9.784  0.00  0.00    +0.000 NA
ATOM     17  C   UNL     1      45.297   2.067   8.783  0.00  0.00    +0.000 A 
ATOM     18  N   UNL     1      45.896   3.228   8.359  0.00  0.00    +0.000 N 
ATOM     19  C   UNL     1      45.685   4.443   8.971  0.00  0.00    +0.000 A 
ATOM     20  O   UNL     1      46.046   5.497   8.459  0.00  0.00    +0.000 OA
ATOM     21  C   UNL     1      44.904   4.346  10.184  0.00  0.00    +0.000 A 
ATOM     22  H   UNL     1      46.421   3.257   7.499  0.00  0.00    +0.000 HD
ENDBRANCH   9  12
ENDBRANCH   7  10
ENDBRANCH   1   7
BRANCH   4  23
ATOM     23  C   UNL     1      49.018   8.271  17.246  0.00  0.00    +0.000 C 
BRANCH  23  24
ATOM     24  N   UNL     1      48.161   7.437  18.085  0.00  0.00    +0.000 NA
ATOM     25  H   UNL     1      47.484   6.971  17.479  0.00  0.00    +0.000 HD
BRANCH  24  26
ATOM     26  CA  UNL     1      48.883   6.378  18.829  0.00  0.00    +0.000 C 
BRANCH  26  27
ATOM     27  C   UNL     1      48.681   5.009  18.166  0.00  0.00    +0.000 A 
ATOM     28  C   UNL     1      49.750   4.154  17.891  0.00  0.00    +0.000 A 
ATOM     29  C   UNL     1      49.501   2.932  17.271  0.00  0.00    +0.000 A 
ATOM     30  C   UNL     1      48.199   2.593  16.929  0.00  0.00    +0.000 A 
ATOM     31  C   UNL     1      47.194   3.501  17.214  0.00  0.00    +0.000 A 
ATOM     32  N   UNL     1      47.406   4.696  17.809  0.00  0.00    +0.000 NA
ENDBRANCH  26  27
BRANCH  26  33
ATOM     33  C   UNL     1      48.484   6.256  20.323  0.00  0.00    +0.000 C 
BRANCH  33  34
ATOM     34  O   UNL     1      47.361   7.069  20.674  0.00  0.00    +0.000 OA
ATOM     35  H   UNL     1      47.153   7.628  19.896  0.00  0.00    +0.000 HD
ENDBRANCH  33  34
ENDBRANCH  26  33
ENDBRANCH  24  26
ENDBRANCH  23  24
ENDBRANCH   4  23
TORSDOF 9
ENDMDL
MODEL 7
REMARK VINA RESULT:    -6.571      3.915      9.551
REMARK INTER + INTRA:         -10.809
REMARK INTER:                  -9.771
REMARK INTRA:                  -1.038
REMARK UNBOUND:                -0.972
REMARK  Name = 
REMARK  9 active torsions:
REMARK  status: ('A' for Active; 'I' for Inactive)
REMARK    1  A    between atoms: C_2  and  C_22
REMARK    2  A    between atoms: N_3  and  C_4
REMARK    3  A    between atoms: C_4  and  C_5
REMARK    4  A    between atoms: C_8  and  C_9
REMARK    5  A    between atoms: C_9  and  N_10
REMARK    6  A    between atoms: N_10  and  CA_11
REMARK    7  A    between atoms: CA_11  and  C_12
REMARK    8  A    between atoms: CA_11  and  C_14
REMARK    9  A    between atoms: C_12  and  O_13
REMARK                            x       y       z     vdW  Elec       q    Type
REMARK                         _______ _______ _______ _____ _____    ______ ____
ROOT
ATOM      1  C   UNL     1      48.390   4.447  17.188  0.00  0.00    +0.000 A 
ATOM      2  N   UNL     1      48.600   4.112  18.479  0.00  0.00    +0.000 NA
ATOM      3  C   UNL     1      49.693   4.640  19.063  0.00  0.00    +0.000 A 
ATOM      4  C   UNL     1      50.578   5.492  18.430  0.00  0.00    +0.000 A 
ATOM      5  C   UNL     1      50.250   5.788  17.123  0.00  0.00    +0.000 A 
ATOM      6  N   UNL     1      49.167   5.289  16.487  0.00  0.00    +0.000 NA
ENDROOT
BRANCH   1   7
ATOM      7  C   UNL     1      47.134   3.947  16.512  0.00  0.00    +0.000 C 
BRANCH   7  10
ATOM      8  O   UNL     1      47.252   3.147  13.857  0.00  0.00    +0.000 OA
ATOM      9  C   UNL     1      46.858   4.280  14.109  0.00  0.00    +0.000 C 
ATOM     10  N   UNL     1      46.783   4.778  15.378  0.00  0.00    +0.000 N 
ATOM     11  H   UNL     1      46.696   5.772  15.526  0.00  0.00    +0.000 HD
BRANCH   9  12
ATOM     12  C   UNL     1      46.338   5.161  13.072  0.00  0.00    +0.000 A 
ATOM     13  C   UNL     1      46.992   6.287  12.597  0.00  0.00    +0.000 A 
ATOM     14  S   UNL     1      45.947   7.324  11.718  0.00  0.00    +0.000 S 
ATOM     15  C   UNL     1      44.640   6.243  11.891  0.00  0.00    +0.000 A 
ATOM     16  N   UNL     1      43.384   6.549  11.467  0.00  0.00    +0.000 NA
ATOM     17  C   UNL     1      42.529   5.591  11.627  0.00  0.00    +0.000 A 
ATOM     18  N   UNL     1      42.823   4.343  12.121  0.00  0.00    +0.000 N 
ATOM     19  C   UNL     1      44.091   3.973  12.505  0.00  0.00    +0.000 A 
ATOM     20  O   UNL     1      44.382   2.804  12.734  0.00  0.00    +0.000 OA
ATOM     21  C   UNL     1      45.039   5.065  12.485  0.00  0.00    +0.000 A 
ATOM     22  H   UNL     1      42.137   3.604  12.103  0.00  0.00    +0.000 HD
ENDBRANCH   9  12
ENDBRANCH   7  10
ENDBRANCH   1   7
BRANCH   4  23
ATOM     23  C   UNL     1      51.782   6.063  19.114  0.00  0.00    +0.000 C 
BRANCH  23  24
ATOM     24  N   UNL     1      52.752   5.009  19.400  0.00  0.00    +0.000 NA
ATOM     25  H   UNL     1      52.243   4.205  19.773  0.00  0.00    +0.000 HD
BRANCH  24  26
ATOM     26  CA  UNL     1      53.504   4.537  18.213  0.00  0.00    +0.000 C 
BRANCH  26  27
ATOM     27  C   UNL     1      53.402   3.012  18.073  0.00  0.00    +0.000 A 
ATOM     28  C   UNL     1      52.209   2.379  17.719  0.00  0.00    +0.000 A 
ATOM     29  C   UNL     1      52.179   0.990  17.625  0.00  0.00    +0.000 A 
ATOM     30  C   UNL     1      53.330   0.262  17.896  0.00  0.00    +0.000 A 
ATOM     31  C   UNL     1      54.468   0.958  18.262  0.00  0.00    +0.000 A 
ATOM     32  N   UNL     1      54.526   2.305  18.367  0.00  0.00    +0.000 NA
ENDBRANCH  26  27
BRANCH  26  33
ATOM     33  C   UNL     1      55.006   4.925  18.208  0.00  0.00    +0.000 C 
BRANCH  33  34
ATOM     34  O   UNL     1      55.432   5.511  16.975  0.00  0.00    +0.000 OA
ATOM     35  H   UNL     1      55.410   6.483  17.093  0.00  0.00    +0.000 HD
ENDBRANCH  33  34
ENDBRANCH  26  33
ENDBRANCH  24  26
ENDBRANCH  23  24
ENDBRANCH   4  23
TORSDOF 9
ENDMDL
MODEL 8
REMARK VINA RESULT:    -6.486      3.317      9.678
REMARK INTER + INTRA:         -10.682
REMARK INTER:                  -9.748
REMARK INTRA:                  -0.933
REMARK UNBOUND:                -0.972
REMARK  Name = 
REMARK  9 active torsions:
REMARK  status: ('A' for Active; 'I' for Inactive)
REMARK    1  A    between atoms: C_2  and  C_22
REMARK    2  A    between atoms: N_3  and  C_4
REMARK    3  A    between atoms: C_4  and  C_5
REMARK    4  A    between atoms: C_8  and  C_9
REMARK    5  A    between atoms: C_9  and  N_10
REMARK    6  A    between atoms: N_10  and  CA_11
REMARK    7  A    between atoms: CA_11  and  C_12
REMARK    8  A    between atoms: CA_11  and  C_14
REMARK    9  A    between atoms: C_12  and  O_13
REMARK                            x       y       z     vdW  Elec       q    Type
REMARK                         _______ _______ _______ _____ _____    ______ ____
ROOT
ATOM      1  C   UNL     1      45.893   5.154  12.464  0.00  0.00    +0.000 A 
ATOM      2  N   UNL     1      46.112   4.290  13.477  0.00  0.00    +0.000 NA
ATOM      3  C   UNL     1      46.985   4.689  14.423  0.00  0.00    +0.000 A 
ATOM      4  C   UNL     1      47.637   5.907  14.415  0.00  0.00    +0.000 A 
ATOM      5  C   UNL     1      47.315   6.721  13.349  0.00  0.00    +0.000 A 
ATOM      6  N   UNL     1      46.448   6.374  12.373  0.00  0.00    +0.000 NA
ENDROOT
BRANCH   1   7
ATOM      7  C   UNL     1      44.861   4.789  11.420  0.00  0.00    +0.000 C 
BRANCH   7  10
ATOM      8  O   UNL     1      43.476   2.615  10.394  0.00  0.00    +0.000 OA
ATOM      9  C   UNL     1      44.621   2.815  10.005  0.00  0.00    +0.000 C 
ATOM     10  N   UNL     1      45.395   3.842  10.463  0.00  0.00    +0.000 N 
ATOM     11  H   UNL     1      46.392   3.828  10.314  0.00  0.00    +0.000 HD
BRANCH   9  12
ATOM     12  C   UNL     1      45.220   2.023   8.939  0.00  0.00    +0.000 A 
ATOM     13  C   UNL     1      45.050   0.657   8.784  0.00  0.00    +0.000 A 
ATOM     14  S   UNL     1      46.210  -0.026   7.722  0.00  0.00    +0.000 S 
ATOM     15  C   UNL     1      46.893   1.501   7.396  0.00  0.00    +0.000 A 
ATOM     16  N   UNL     1      48.012   1.649   6.638  0.00  0.00    +0.000 NA
ATOM     17  C   UNL     1      48.357   2.881   6.448  0.00  0.00    +0.000 A 
ATOM     18  N   UNL     1      47.661   3.976   6.898  0.00  0.00    +0.000 N 
ATOM     19  C   UNL     1      46.491   3.872   7.616  0.00  0.00    +0.000 A 
ATOM     20  O   UNL     1      45.770   4.842   7.822  0.00  0.00    +0.000 OA
ATOM     21  C   UNL     1      46.160   2.513   7.979  0.00  0.00    +0.000 A 
ATOM     22  H   UNL     1      47.915   4.908   6.609  0.00  0.00    +0.000 HD
ENDBRANCH   9  12
ENDBRANCH   7  10
ENDBRANCH   1   7
BRANCH   4  23
ATOM     23  C   UNL     1      48.598   6.318  15.489  0.00  0.00    +0.000 C 
BRANCH  23  24
ATOM     24  N   UNL     1      47.982   6.172  16.805  0.00  0.00    +0.000 NA
ATOM     25  H   UNL     1      47.287   5.425  16.747  0.00  0.00    +0.000 HD
BRANCH  24  26
ATOM     26  CA  UNL     1      48.931   5.803  17.883  0.00  0.00    +0.000 C 
BRANCH  26  27
ATOM     27  C   UNL     1      49.527   4.411  17.634  0.00  0.00    +0.000 A 
ATOM     28  C   UNL     1      50.896   4.161  17.749  0.00  0.00    +0.000 A 
ATOM     29  C   UNL     1      51.376   2.879  17.493  0.00  0.00    +0.000 A 
ATOM     30  C   UNL     1      50.488   1.880  17.117  0.00  0.00    +0.000 A 
ATOM     31  C   UNL     1      49.149   2.209  17.003  0.00  0.00    +0.000 A 
ATOM     32  N   UNL     1      48.655   3.445  17.240  0.00  0.00    +0.000 NA
ENDBRANCH  26  27
BRANCH  26  33
ATOM     33  C   UNL     1      48.320   5.821  19.309  0.00  0.00    +0.000 C 
BRANCH  33  34
ATOM     34  O   UNL     1      47.017   5.236  19.371  0.00  0.00    +0.000 OA
ATOM     35  H   UNL     1      47.062   4.493  20.009  0.00  0.00    +0.000 HD
ENDBRANCH  33  34
ENDBRANCH  26  33
ENDBRANCH  24  26
ENDBRANCH  23  24
ENDBRANCH   4  23
TORSDOF 9
ENDMDL
MODEL 9
REMARK VINA RESULT:    -6.481      3.267      9.586
REMARK INTER + INTRA:         -10.673
REMARK INTER:                  -9.449
REMARK INTRA:                  -1.224
REMARK UNBOUND:                -0.972
REMARK  Name = 
REMARK  9 active torsions:
REMARK  status: ('A' for Active; 'I' for Inactive)
REMARK    1  A    between atoms: C_2  and  C_22
REMARK    2  A    between atoms: N_3  and  C_4
REMARK    3  A    between atoms: C_4  and  C_5
REMARK    4  A    between atoms: C_8  and  C_9
REMARK    5  A    between atoms: C_9  and  N_10
REMARK    6  A    between atoms: N_10  and  CA_11
REMARK    7  A    between atoms: CA_11  and  C_12
REMARK    8  A    between atoms: CA_11  and  C_14
REMARK    9  A    between atoms: C_12  and  O_13
REMARK                            x       y       z     vdW  Elec       q    Type
REMARK                         _______ _______ _______ _____ _____    ______ ____
ROOT
ATOM      1  C   UNL     1      48.312   6.838  14.187  0.00  0.00    +0.000 A 
ATOM      2  N   UNL     1      48.301   5.675  14.872  0.00  0.00    +0.000 NA
ATOM      3  C   UNL     1      48.578   5.754  16.187  0.00  0.00    +0.000 A 
ATOM      4  C   UNL     1      48.854   6.932  16.855  0.00  0.00    +0.000 A 
ATOM      5  C   UNL     1      48.810   8.061  16.064  0.00  0.00    +0.000 A 
ATOM      6  N   UNL     1      48.536   8.042  14.741  0.00  0.00    +0.000 NA
ENDROOT
BRANCH   1   7
ATOM      7  C   UNL     1      47.926   6.816  12.726  0.00  0.00    +0.000 C 
BRANCH   7  10
ATOM      8  O   UNL     1      45.458   7.333  11.567  0.00  0.00    +0.000 OA
ATOM      9  C   UNL     1      45.730   6.177  11.873  0.00  0.00    +0.000 C 
ATOM     10  N   UNL     1      46.906   5.821  12.467  0.00  0.00    +0.000 N 
ATOM     11  H   UNL     1      46.990   4.925  12.924  0.00  0.00    +0.000 HD
BRANCH   9  12
ATOM     12  C   UNL     1      44.852   5.066  11.534  0.00  0.00    +0.000 A 
ATOM     13  C   UNL     1      43.880   4.547  12.375  0.00  0.00    +0.000 A 
ATOM     14  S   UNL     1      43.334   3.004  11.864  0.00  0.00    +0.000 S 
ATOM     15  C   UNL     1      44.323   3.053  10.476  0.00  0.00    +0.000 A 
ATOM     16  N   UNL     1      44.439   1.995   9.629  0.00  0.00    +0.000 NA
ATOM     17  C   UNL     1      45.187   2.227   8.599  0.00  0.00    +0.000 A 
ATOM     18  N   UNL     1      45.785   3.430   8.311  0.00  0.00    +0.000 N 
ATOM     19  C   UNL     1      45.644   4.542   9.109  0.00  0.00    +0.000 A 
ATOM     20  O   UNL     1      45.995   5.655   8.734  0.00  0.00    +0.000 OA
ATOM     21  C   UNL     1      44.944   4.277  10.346  0.00  0.00    +0.000 A 
ATOM     22  H   UNL     1      46.251   3.579   7.430  0.00  0.00    +0.000 HD
ENDBRANCH   9  12
ENDBRANCH   7  10
ENDBRANCH   1   7
BRANCH   4  23
ATOM     23  C   UNL     1      49.154   6.979  18.322  0.00  0.00    +0.000 C 
BRANCH  23  24
ATOM     24  N   UNL     1      50.565   6.688  18.561  0.00  0.00    +0.000 NA
ATOM     25  H   UNL     1      51.029   7.562  18.816  0.00  0.00    +0.000 HD
BRANCH  24  26
ATOM     26  CA  UNL     1      50.809   5.727  19.663  0.00  0.00    +0.000 C 
BRANCH  26  27
ATOM     27  C   UNL     1      51.546   4.482  19.150  0.00  0.00    +0.000 A 
ATOM     28  C   UNL     1      52.743   4.043  19.720  0.00  0.00    +0.000 A 
ATOM     29  C   UNL     1      53.370   2.916  19.196  0.00  0.00    +0.000 A 
ATOM     30  C   UNL     1      52.802   2.259  18.113  0.00  0.00    +0.000 A 
ATOM     31  C   UNL     1      51.627   2.766  17.588  0.00  0.00    +0.000 A 
ATOM     32  N   UNL     1      50.997   3.861  18.072  0.00  0.00    +0.000 NA
ENDBRANCH  26  27
BRANCH  26  33
ATOM     33  C   UNL     1      49.528   5.261  20.404  0.00  0.00    +0.000 C 
BRANCH  33  34
ATOM     34  O   UNL     1      49.242   3.873  20.214  0.00  0.00    +0.000 OA
ATOM     35  H   UNL     1      50.050   3.374  20.457  0.00  0.00    +0.000 HD
ENDBRANCH  33  34
ENDBRANCH  26  33
ENDBRANCH  24  26
ENDBRANCH  23  24
ENDBRANCH   4  23
TORSDOF 9
ENDMDL
