MODEL 1
REMARK VINA RESULT:    -8.228      0.000      0.000
REMARK INTER + INTRA:         -13.463
REMARK INTER:                 -12.557
REMARK INTRA:                  -0.906
REMARK UNBOUND:                -0.906
REMARK  Name = 
REMARK  10 active torsions:
REMARK  status: ('A' for Active; 'I' for Inactive)
REMARK    1  A    between atoms: C_1  and  C_2
REMARK    2  A    between atoms: C_2  and  N_3
REMARK    3  A    between atoms: N_3  and  C_4
REMARK    4  A    between atoms: C_6  and  C_7
REMARK    5  A    between atoms: C_7  and  C_8
REMARK    6  A    between atoms: C_8  and  N_9
REMARK    7  A    between atoms: N_9  and  C_10
REMARK    8  A    between atoms: C_13  and  C_14
REMARK    9  A    between atoms: C_20  and  C_21
REMARK   10  A    between atoms: C_28  and  C_29
REMARK                            x       y       z     vdW  Elec       q    Type
REMARK                         _______ _______ _______ _____ _____    ______ ____
ROOT
ATOM      1  C   UNL     1      47.845   5.592  14.911  0.00  0.00    +0.000 A 
ATOM      2  C   UNL     1      46.853   4.780  14.343  0.00  0.00    +0.000 A 
ATOM      3  C   UNL     1      46.354   5.022  13.048  0.00  0.00    +0.000 A 
ATOM      4  C   UNL     1      46.907   6.080  12.312  0.00  0.00    +0.000 A 
ATOM      5  C   UNL     1      47.903   6.904  12.847  0.00  0.00    +0.000 A 
ATOM      6  C   UNL     1      48.364   6.646  14.144  0.00  0.00    +0.000 A 
ENDROOT
BRANCH   5   7
ATOM      7  C   UNL     1      48.465   8.050  12.044  0.00  0.00    +0.000 C 
ATOM      8  F   UNL     1      49.411   8.767  12.716  0.00  0.00    +0.000 F 
ATOM      9  F   UNL     1      49.067   7.634  10.895  0.00  0.00    +0.000 F 
ATOM     10  F   UNL     1      47.515   8.949  11.670  0.00  0.00    +0.000 F 
ENDBRANCH   5   7
BRANCH   1  11
ATOM     11  N   UNL     1      48.441   5.341  16.161  0.00  0.00    +0.000 N 
ATOM     12  H   UNL     1      48.949   6.150  16.527  0.00  0.00    +0.000 HD
BRANCH  11  14
ATOM     13  C   UNL     1      47.151   4.511  18.077  0.00  0.00    +0.000 C 
ATOM     14  C   UNL     1      48.273   4.248  17.093  0.00  0.00    +0.000 C 
ATOM     15  C   UNL     1      48.336   2.852  16.418  0.00  0.00    +0.000 C 
ATOM     16  O   UNL     1      49.768   2.765  16.671  0.00  0.00    +0.000 OA
ATOM     17  C   UNL     1      49.617   3.762  17.746  0.00  0.00    +0.000 C 
BRANCH  17  18
ATOM     18  C   UNL     1      50.814   4.680  17.930  0.00  0.00    +0.000 C 
ATOM     19  F   UNL     1      51.284   5.144  16.743  0.00  0.00    +0.000 F 
ATOM     20  F   UNL     1      50.453   5.767  18.659  0.00  0.00    +0.000 F 
ATOM     21  F   UNL     1      51.840   4.081  18.576  0.00  0.00    +0.000 F 
ENDBRANCH  17  18
ENDBRANCH  11  14
ENDBRANCH   1  11
BRANCH   3  22
ATOM     22  C   UNL     1      45.223   4.156  12.506  0.00  0.00    +0.000 C 
BRANCH  22  23
ATOM     23  C   UNL     1      44.299   4.866  11.505  0.00  0.00    +0.000 C 
BRANCH  23  24
ATOM     24  N   UNL     1      43.751   3.972  10.489  0.00  0.00    +0.000 N 
ATOM     25  H   UNL     1      43.104   3.266  10.828  0.00  0.00    +0.000 HD
BRANCH  24  26
ATOM     26  C   UNL     1      44.609   3.510   9.480  0.00  0.00    +0.000 A 
ATOM     27  C   UNL     1      44.985   2.172   9.325  0.00  0.00    +0.000 A 
ATOM     28  C   UNL     1      45.915   1.789   8.359  0.00  0.00    +0.000 A 
ATOM     29  C   UNL     1      46.480   2.776   7.570  0.00  0.00    +0.000 A 
ATOM     30  N   UNL     1      46.179   4.100   7.685  0.00  0.00    +0.000 NA
ATOM     31  C   UNL     1      45.268   4.420   8.641  0.00  0.00    +0.000 A 
BRANCH  29  32
ATOM     32  C   UNL     1      47.488   2.403   6.528  0.00  0.00    +0.000 C 
ATOM     33  N   UNL     1      47.415   3.109   5.361  0.00  0.00    +0.000 N 
ATOM     34  O   UNL     1      48.326   1.521   6.699  0.00  0.00    +0.000 OA
ATOM     35  H   UNL     1      46.705   3.828   5.259  0.00  0.00    +0.000 HD
ATOM     36  H   UNL     1      48.059   2.909   4.611  0.00  0.00    +0.000 HD
ENDBRANCH  29  32
ENDBRANCH  24  26
ENDBRANCH  23  24
ENDBRANCH  22  23
ENDBRANCH   3  22
TORSDOF 9
ENDMDL
MODEL 2
REMARK VINA RESULT:    -8.156      3.093      4.462
REMARK INTER + INTRA:         -13.353
REMARK INTER:                 -12.118
REMARK INTRA:                  -1.235
REMARK UNBOUND:                -0.906
REMARK  Name = 
REMARK  10 active torsions:
REMARK  status: ('A' for Active; 'I' for Inactive)
REMARK    1  A    between atoms: C_1  and  C_2
REMARK    2  A    between atoms: C_2  and  N_3
REMARK    3  A    between atoms: N_3  and  C_4
REMARK    4  A    between atoms: C_6  and  C_7
REMARK    5  A    between atoms: C_7  and  C_8
REMARK    6  A    between atoms: C_8  and  N_9
REMARK    7  A    between atoms: N_9  and  C_10
REMARK    8  A    between atoms: C_13  and  C_14
REMARK    9  A    between atoms: C_20  and  C_21
REMARK   10  A    between atoms: C_28  and  C_29
REMARK                            x       y       z     vdW  Elec       q    Type
REMARK                         _______ _______ _______ _____ _____    ______ ____
ROOT
ATOM      1  C   UNL     1      46.256   8.658  13.049  0.00  0.00    +0.000 A 
ATOM      2  C   UNL     1      46.061   7.279  12.891  0.00  0.00    +0.000 A 
ATOM      3  C   UNL     1      45.050   6.767  12.055  0.00  0.00    +0.000 A 
ATOM      4  C   UNL     1      44.258   7.677  11.340  0.00  0.00    +0.000 A 
ATOM      5  C   UNL     1      44.432   9.059  11.469  0.00  0.00    +0.000 A 
ATOM      6  C   UNL     1      45.435   9.534  12.322  0.00  0.00    +0.000 A 
ENDROOT
BRANCH   5   7
ATOM      7  C   UNL     1      43.552  10.018  10.706  0.00  0.00    +0.000 C 
ATOM      8  F   UNL     1      42.385   9.454  10.276  0.00  0.00    +0.000 F 
ATOM      9  F   UNL     1      43.185  11.095  11.454  0.00  0.00    +0.000 F 
ATOM     10  F   UNL     1      44.155  10.516   9.593  0.00  0.00    +0.000 F 
ENDBRANCH   5   7
BRANCH   1  11
ATOM     11  N   UNL     1      47.306   9.220  13.798  0.00  0.00    +0.000 N 
ATOM     12  H   UNL     1      47.104   9.253  14.800  0.00  0.00    +0.000 HD
BRANCH  11  14
ATOM     13  C   UNL     1      48.867   9.555  11.934  0.00  0.00    +0.000 C 
ATOM     14  C   UNL     1      48.670   9.537  13.436  0.00  0.00    +0.000 C 
ATOM     15  C   UNL     1      49.267  10.708  14.262  0.00  0.00    +0.000 C 
ATOM     16  O   UNL     1      49.810   9.776  15.241  0.00  0.00    +0.000 OA
ATOM     17  C   UNL     1      49.743   8.707  14.228  0.00  0.00    +0.000 C 
BRANCH  17  18
ATOM     18  C   UNL     1      49.455   7.323  14.787  0.00  0.00    +0.000 C 
ATOM     19  F   UNL     1      49.016   6.470  13.826  0.00  0.00    +0.000 F 
ATOM     20  F   UNL     1      50.593   6.784  15.295  0.00  0.00    +0.000 F 
ATOM     21  F   UNL     1      48.536   7.338  15.779  0.00  0.00    +0.000 F 
ENDBRANCH  17  18
ENDBRANCH  11  14
ENDBRANCH   1  11
BRANCH   3  22
ATOM     22  C   UNL     1      44.832   5.261  11.976  0.00  0.00    +0.000 C 
BRANCH  22  23
ATOM     23  C   UNL     1      43.567   4.838  11.214  0.00  0.00    +0.000 C 
BRANCH  23  24
ATOM     24  N   UNL     1      43.729   4.866   9.763  0.00  0.00    +0.000 N 
ATOM     25  H   UNL     1      42.873   4.977   9.228  0.00  0.00    +0.000 HD
BRANCH  24  26
ATOM     26  C   UNL     1      44.646   3.979   9.181  0.00  0.00    +0.000 A 
ATOM     27  C   UNL     1      45.594   4.352   8.223  0.00  0.00    +0.000 A 
ATOM     28  C   UNL     1      46.417   3.405   7.613  0.00  0.00    +0.000 A 
ATOM     29  C   UNL     1      46.251   2.076   7.961  0.00  0.00    +0.000 A 
ATOM     30  N   UNL     1      45.330   1.641   8.867  0.00  0.00    +0.000 NA
ATOM     31  C   UNL     1      44.555   2.603   9.433  0.00  0.00    +0.000 A 
BRANCH  29  32
ATOM     32  C   UNL     1      47.110   1.031   7.321  0.00  0.00    +0.000 C 
ATOM     33  N   UNL     1      46.777  -0.262   7.610  0.00  0.00    +0.000 N 
ATOM     34  O   UNL     1      48.056   1.306   6.587  0.00  0.00    +0.000 OA
ATOM     35  H   UNL     1      45.990  -0.447   8.225  0.00  0.00    +0.000 HD
ATOM     36  H   UNL     1      47.315  -1.020   7.218  0.00  0.00    +0.000 HD
ENDBRANCH  29  32
ENDBRANCH  24  26
ENDBRANCH  23  24
ENDBRANCH  22  23
ENDBRANCH   3  22
TORSDOF 9
ENDMDL
MODEL 3
REMARK VINA RESULT:    -8.075      1.837      2.385
REMARK INTER + INTRA:         -13.230
REMARK INTER:                 -12.406
REMARK INTRA:                  -0.824
REMARK UNBOUND:                -0.906
REMARK  Name = 
REMARK  10 active torsions:
REMARK  status: ('A' for Active; 'I' for Inactive)
REMARK    1  A    between atoms: C_1  and  C_2
REMARK    2  A    between atoms: C_2  and  N_3
REMARK    3  A    between atoms: N_3  and  C_4
REMARK    4  A    between atoms: C_6  and  C_7
REMARK    5  A    between atoms: C_7  and  C_8
REMARK    6  A    between atoms: C_8  and  N_9
REMARK    7  A    between atoms: N_9  and  C_10
REMARK    8  A    between atoms: C_13  and  C_14
REMARK    9  A    between atoms: C_20  and  C_21
REMARK   10  A    between atoms: C_28  and  C_29
REMARK                            x       y       z     vdW  Elec       q    Type
REMARK                         _______ _______ _______ _____ _____    ______ ____
ROOT
ATOM      1  C   UNL     1      47.790   5.915  14.808  0.00  0.00    +0.000 A 
ATOM      2  C   UNL     1      46.752   5.234  14.157  0.00  0.00    +0.000 A 
ATOM      3  C   UNL     1      46.442   5.479  12.805  0.00  0.00    +0.000 A 
ATOM      4  C   UNL     1      47.232   6.400  12.101  0.00  0.00    +0.000 A 
ATOM      5  C   UNL     1      48.280   7.090  12.719  0.00  0.00    +0.000 A 
ATOM      6  C   UNL     1      48.550   6.835  14.069  0.00  0.00    +0.000 A 
ENDROOT
BRANCH   5   7
ATOM      7  C   UNL     1      49.100   8.093  11.946  0.00  0.00    +0.000 C 
ATOM      8  F   UNL     1      48.347   9.072  11.365  0.00  0.00    +0.000 F 
ATOM      9  F   UNL     1      50.004   8.741  12.731  0.00  0.00    +0.000 F 
ATOM     10  F   UNL     1      49.812   7.525  10.936  0.00  0.00    +0.000 F 
ENDBRANCH   5   7
BRANCH   1  11
ATOM     11  N   UNL     1      48.199   5.643  16.127  0.00  0.00    +0.000 N 
ATOM     12  H   UNL     1      47.949   4.699  16.432  0.00  0.00    +0.000 HD
BRANCH  11  14
ATOM     13  C   UNL     1      50.522   5.904  16.876  0.00  0.00    +0.000 C 
ATOM     14  C   UNL     1      49.084   6.362  17.016  0.00  0.00    +0.000 C 
ATOM     15  C   UNL     1      48.807   7.889  17.053  0.00  0.00    +0.000 C 
ATOM     16  O   UNL     1      47.906   7.725  18.185  0.00  0.00    +0.000 OA
ATOM     17  C   UNL     1      48.563   6.443  18.496  0.00  0.00    +0.000 C 
BRANCH  17  18
ATOM     18  C   UNL     1      47.647   5.391  19.098  0.00  0.00    +0.000 C 
ATOM     19  F   UNL     1      48.120   4.134  18.900  0.00  0.00    +0.000 F 
ATOM     20  F   UNL     1      47.560   5.568  20.441  0.00  0.00    +0.000 F 
ATOM     21  F   UNL     1      46.390   5.443  18.600  0.00  0.00    +0.000 F 
ENDBRANCH  17  18
ENDBRANCH  11  14
ENDBRANCH   1  11
BRANCH   3  22
ATOM     22  C   UNL     1      45.256   4.767  12.166  0.00  0.00    +0.000 C 
BRANCH  22  23
ATOM     23  C   UNL     1      44.492   5.605  11.129  0.00  0.00    +0.000 C 
BRANCH  23  24
ATOM     24  N   UNL     1      43.851   4.800  10.093  0.00  0.00    +0.000 N 
ATOM     25  H   UNL     1      42.982   4.349  10.363  0.00  0.00    +0.000 HD
BRANCH  24  26
ATOM     26  C   UNL     1      44.666   4.005   9.272  0.00  0.00    +0.000 A 
ATOM     27  C   UNL     1      44.757   2.614   9.375  0.00  0.00    +0.000 A 
ATOM     28  C   UNL     1      45.655   1.889   8.591  0.00  0.00    +0.000 A 
ATOM     29  C   UNL     1      46.477   2.589   7.724  0.00  0.00    +0.000 A 
ATOM     30  N   UNL     1      46.457   3.945   7.593  0.00  0.00    +0.000 NA
ATOM     31  C   UNL     1      45.565   4.604   8.379  0.00  0.00    +0.000 A 
BRANCH  29  32
ATOM     32  C   UNL     1      47.459   1.845   6.874  0.00  0.00    +0.000 C 
ATOM     33  N   UNL     1      48.544   2.566   6.462  0.00  0.00    +0.000 N 
ATOM     34  O   UNL     1      47.307   0.667   6.558  0.00  0.00    +0.000 OA
ATOM     35  H   UNL     1      48.629   3.538   6.742  0.00  0.00    +0.000 HD
ATOM     36  H   UNL     1      49.245   2.132   5.881  0.00  0.00    +0.000 HD
ENDBRANCH  29  32
ENDBRANCH  24  26
ENDBRANCH  23  24
ENDBRANCH  22  23
ENDBRANCH   3  22
TORSDOF 9
ENDMDL
MODEL 4
REMARK VINA RESULT:    -8.000      1.672      2.177
REMARK INTER + INTRA:         -13.115
REMARK INTER:                 -11.942
REMARK INTRA:                  -1.174
REMARK UNBOUND:                -0.906
REMARK  Name = 
REMARK  10 active torsions:
REMARK  status: ('A' for Active; 'I' for Inactive)
REMARK    1  A    between atoms: C_1  and  C_2
REMARK    2  A    between atoms: C_2  and  N_3
REMARK    3  A    between atoms: N_3  and  C_4
REMARK    4  A    between atoms: C_6  and  C_7
REMARK    5  A    between atoms: C_7  and  C_8
REMARK    6  A    between atoms: C_8  and  N_9
REMARK    7  A    between atoms: N_9  and  C_10
REMARK    8  A    between atoms: C_13  and  C_14
REMARK    9  A    between atoms: C_20  and  C_21
REMARK   10  A    between atoms: C_28  and  C_29
REMARK                            x       y       z     vdW  Elec       q    Type
REMARK                         _______ _______ _______ _____ _____    ______ ____
ROOT
ATOM      1  C   UNL     1      47.449   5.298  14.743  0.00  0.00    +0.000 A 
ATOM      2  C   UNL     1      46.225   4.791  14.285  0.00  0.00    +0.000 A 
ATOM      3  C   UNL     1      45.583   5.325  13.151  0.00  0.00    +0.000 A 
ATOM      4  C   UNL     1      46.223   6.361  12.454  0.00  0.00    +0.000 A 
ATOM      5  C   UNL     1      47.448   6.884  12.881  0.00  0.00    +0.000 A 
ATOM      6  C   UNL     1      48.051   6.341  14.022  0.00  0.00    +0.000 A 
ENDROOT
BRANCH   5   7
ATOM      7  C   UNL     1      48.105   8.013  12.126  0.00  0.00    +0.000 C 
ATOM      8  F   UNL     1      47.226   8.977  11.725  0.00  0.00    +0.000 F 
ATOM      9  F   UNL     1      49.044   8.660  12.871  0.00  0.00    +0.000 F 
ATOM     10  F   UNL     1      48.737   7.596  10.997  0.00  0.00    +0.000 F 
ENDBRANCH   5   7
BRANCH   1  11
ATOM     11  N   UNL     1      48.176   4.743  15.814  0.00  0.00    +0.000 N 
ATOM     12  H   UNL     1      48.434   3.767  15.652  0.00  0.00    +0.000 HD
BRANCH  11  14
ATOM     13  C   UNL     1      50.231   5.763  16.684  0.00  0.00    +0.000 C 
ATOM     14  C   UNL     1      48.797   5.361  16.963  0.00  0.00    +0.000 C 
ATOM     15  C   UNL     1      47.880   6.390  17.678  0.00  0.00    +0.000 C 
ATOM     16  O   UNL     1      47.382   5.360  18.579  0.00  0.00    +0.000 OA
ATOM     17  C   UNL     1      48.589   4.562  18.300  0.00  0.00    +0.000 C 
BRANCH  17  18
ATOM     18  C   UNL     1      48.374   3.058  18.327  0.00  0.00    +0.000 C 
ATOM     19  F   UNL     1      49.409   2.388  17.756  0.00  0.00    +0.000 F 
ATOM     20  F   UNL     1      48.291   2.626  19.611  0.00  0.00    +0.000 F 
ATOM     21  F   UNL     1      47.238   2.679  17.698  0.00  0.00    +0.000 F 
ENDBRANCH  17  18
ENDBRANCH  11  14
ENDBRANCH   1  11
BRANCH   3  22
ATOM     22  C   UNL     1      44.218   4.788  12.739  0.00  0.00    +0.000 C 
BRANCH  22  23
ATOM     23  C   UNL     1      44.261   3.462  11.964  0.00  0.00    +0.000 C 
BRANCH  23  24
ATOM     24  N   UNL     1      43.850   3.595  10.569  0.00  0.00    +0.000 N 
ATOM     25  H   UNL     1      42.930   3.225  10.346  0.00  0.00    +0.000 HD
BRANCH  24  26
ATOM     26  C   UNL     1      44.807   3.362   9.570  0.00  0.00    +0.000 A 
ATOM     27  C   UNL     1      45.340   4.361   8.750  0.00  0.00    +0.000 A 
ATOM     28  C   UNL     1      46.219   4.052   7.713  0.00  0.00    +0.000 A 
ATOM     29  C   UNL     1      46.532   2.721   7.496  0.00  0.00    +0.000 A 
ATOM     30  N   UNL     1      46.029   1.697   8.241  0.00  0.00    +0.000 NA
ATOM     31  C   UNL     1      45.177   2.051   9.239  0.00  0.00    +0.000 A 
BRANCH  29  32
ATOM     32  C   UNL     1      47.466   2.352   6.387  0.00  0.00    +0.000 C 
ATOM     33  N   UNL     1      47.368   3.116   5.258  0.00  0.00    +0.000 N 
ATOM     34  O   UNL     1      48.266   1.424   6.472  0.00  0.00    +0.000 OA
ATOM     35  H   UNL     1      46.690   3.871   5.226  0.00  0.00    +0.000 HD
ATOM     36  H   UNL     1      47.963   2.922   4.467  0.00  0.00    +0.000 HD
ENDBRANCH  29  32
ENDBRANCH  24  26
ENDBRANCH  23  24
ENDBRANCH  22  23
ENDBRANCH   3  22
TORSDOF 9
ENDMDL
MODEL 5
REMARK VINA RESULT:    -8.000      2.704      5.289
REMARK INTER + INTRA:         -13.115
REMARK INTER:                 -12.032
REMARK INTRA:                  -1.082
REMARK UNBOUND:                -0.906
REMARK  Name = 
REMARK  10 active torsions:
REMARK  status: ('A' for Active; 'I' for Inactive)
REMARK    1  A    between atoms: C_1  and  C_2
REMARK    2  A    between atoms: C_2  and  N_3
REMARK    3  A    between atoms: N_3  and  C_4
REMARK    4  A    between atoms: C_6  and  C_7
REMARK    5  A    between atoms: C_7  and  C_8
REMARK    6  A    between atoms: C_8  and  N_9
REMARK    7  A    between atoms: N_9  and  C_10
REMARK    8  A    between atoms: C_13  and  C_14
REMARK    9  A    between atoms: C_20  and  C_21
REMARK   10  A    between atoms: C_28  and  C_29
REMARK                            x       y       z     vdW  Elec       q    Type
REMARK                         _______ _______ _______ _____ _____    ______ ____
ROOT
ATOM      1  C   UNL     1      46.945   6.417  12.770  0.00  0.00    +0.000 A 
ATOM      2  C   UNL     1      45.620   6.120  12.421  0.00  0.00    +0.000 A 
ATOM      3  C   UNL     1      44.882   5.130  13.099  0.00  0.00    +0.000 A 
ATOM      4  C   UNL     1      45.494   4.468  14.174  0.00  0.00    +0.000 A 
ATOM      5  C   UNL     1      46.811   4.746  14.552  0.00  0.00    +0.000 A 
ATOM      6  C   UNL     1      47.522   5.724  13.846  0.00  0.00    +0.000 A 
ENDROOT
BRANCH   5   7
ATOM      7  C   UNL     1      47.454   4.004  15.697  0.00  0.00    +0.000 C 
ATOM      8  F   UNL     1      48.573   4.620  16.179  0.00  0.00    +0.000 F 
ATOM      9  F   UNL     1      46.619   3.870  16.765  0.00  0.00    +0.000 F 
ATOM     10  F   UNL     1      47.842   2.745  15.358  0.00  0.00    +0.000 F 
ENDBRANCH   5   7
BRANCH   1  11
ATOM     11  N   UNL     1      47.694   7.456  12.187  0.00  0.00    +0.000 N 
ATOM     12  H   UNL     1      47.735   7.390  11.167  0.00  0.00    +0.000 HD
BRANCH  11  14
ATOM     13  C   UNL     1      48.624   8.524  14.192  0.00  0.00    +0.000 C 
ATOM     14  C   UNL     1      48.207   8.688  12.745  0.00  0.00    +0.000 C 
ATOM     15  C   UNL     1      49.174   9.437  11.789  0.00  0.00    +0.000 C 
ATOM     16  O   UNL     1      48.072  10.216  11.241  0.00  0.00    +0.000 OA
ATOM     17  C   UNL     1      47.295   9.936  12.462  0.00  0.00    +0.000 C 
BRANCH  17  18
ATOM     18  C   UNL     1      45.796   9.819  12.246  0.00  0.00    +0.000 C 
ATOM     19  F   UNL     1      45.499   9.087  11.142  0.00  0.00    +0.000 F 
ATOM     20  F   UNL     1      45.225   9.183  13.301  0.00  0.00    +0.000 F 
ATOM     21  F   UNL     1      45.188  11.021  12.121  0.00  0.00    +0.000 F 
ENDBRANCH  17  18
ENDBRANCH  11  14
ENDBRANCH   1  11
BRANCH   3  22
ATOM     22  C   UNL     1      43.471   4.794  12.632  0.00  0.00    +0.000 C 
BRANCH  22  23
ATOM     23  C   UNL     1      43.403   3.741  11.514  0.00  0.00    +0.000 C 
BRANCH  23  24
ATOM     24  N   UNL     1      43.592   4.302  10.179  0.00  0.00    +0.000 N 
ATOM     25  H   UNL     1      42.749   4.632   9.719  0.00  0.00    +0.000 HD
BRANCH  24  26
ATOM     26  C   UNL     1      44.494   3.666   9.314  0.00  0.00    +0.000 A 
ATOM     27  C   UNL     1      44.790   2.300   9.361  0.00  0.00    +0.000 A 
ATOM     28  C   UNL     1      45.766   1.743   8.533  0.00  0.00    +0.000 A 
ATOM     29  C   UNL     1      46.457   2.586   7.681  0.00  0.00    +0.000 A 
ATOM     30  N   UNL     1      46.236   3.929   7.603  0.00  0.00    +0.000 NA
ATOM     31  C   UNL     1      45.276   4.421   8.429  0.00  0.00    +0.000 A 
BRANCH  29  32
ATOM     32  C   UNL     1      47.517   2.025   6.785  0.00  0.00    +0.000 C 
ATOM     33  N   UNL     1      48.542   2.876   6.483  0.00  0.00    +0.000 N 
ATOM     34  O   UNL     1      47.475   0.880   6.342  0.00  0.00    +0.000 OA
ATOM     35  H   UNL     1      48.536   3.817   6.866  0.00  0.00    +0.000 HD
ATOM     36  H   UNL     1      49.289   2.569   5.880  0.00  0.00    +0.000 HD
ENDBRANCH  29  32
ENDBRANCH  24  26
ENDBRANCH  23  24
ENDBRANCH  22  23
ENDBRANCH   3  22
TORSDOF 9
ENDMDL
MODEL 6
REMARK VINA RESULT:    -7.983      2.486      4.272
REMARK INTER + INTRA:         -13.090
REMARK INTER:                 -11.660
REMARK INTRA:                  -1.430
REMARK UNBOUND:                -0.906
REMARK  Name = 
REMARK  10 active torsions:
REMARK  status: ('A' for Active; 'I' for Inactive)
REMARK    1  A    between atoms: C_1  and  C_2
REMARK    2  A    between atoms: C_2  and  N_3
REMARK    3  A    between atoms: N_3  and  C_4
REMARK    4  A    between atoms: C_6  and  C_7
REMARK    5  A    between atoms: C_7  and  C_8
REMARK    6  A    between atoms: C_8  and  N_9
REMARK    7  A    between atoms: N_9  and  C_10
REMARK    8  A    between atoms: C_13  and  C_14
REMARK    9  A    between atoms: C_20  and  C_21
REMARK   10  A    between atoms: C_28  and  C_29
REMARK                            x       y       z     vdW  Elec       q    Type
REMARK                         _______ _______ _______ _____ _____    ______ ____
ROOT
ATOM      1  C   UNL     1      47.480   6.672  13.724  0.00  0.00    +0.000 A 
ATOM      2  C   UNL     1      46.429   6.203  12.923  0.00  0.00    +0.000 A 
ATOM      3  C   UNL     1      45.810   4.963  13.170  0.00  0.00    +0.000 A 
ATOM      4  C   UNL     1      46.243   4.214  14.274  0.00  0.00    +0.000 A 
ATOM      5  C   UNL     1      47.285   4.656  15.096  0.00  0.00    +0.000 A 
ATOM      6  C   UNL     1      47.890   5.886  14.813  0.00  0.00    +0.000 A 
ENDROOT
BRANCH   5   7
ATOM      7  C   UNL     1      47.748   3.821  16.264  0.00  0.00    +0.000 C 
ATOM      8  F   UNL     1      46.774   3.610  17.196  0.00  0.00    +0.000 F 
ATOM      9  F   UNL     1      48.168   2.583  15.884  0.00  0.00    +0.000 F 
ATOM     10  F   UNL     1      48.787   4.385  16.936  0.00  0.00    +0.000 F 
ENDBRANCH   5   7
BRANCH   1  11
ATOM     11  N   UNL     1      48.071   7.941  13.577  0.00  0.00    +0.000 N 
ATOM     12  H   UNL     1      47.707   8.626  14.244  0.00  0.00    +0.000 HD
BRANCH  11  14
ATOM     13  C   UNL     1      49.615   7.366  11.758  0.00  0.00    +0.000 C 
ATOM     14  C   UNL     1      49.229   8.370  12.825  0.00  0.00    +0.000 C 
ATOM     15  C   UNL     1      49.181   9.870  12.429  0.00  0.00    +0.000 C 
ATOM     16  O   UNL     1      49.906  10.240  13.636  0.00  0.00    +0.000 OA
ATOM     17  C   UNL     1      50.420   8.861  13.724  0.00  0.00    +0.000 C 
BRANCH  17  18
ATOM     18  C   UNL     1      50.636   8.355  15.141  0.00  0.00    +0.000 C 
ATOM     19  F   UNL     1      50.869   7.018  15.171  0.00  0.00    +0.000 F 
ATOM     20  F   UNL     1      51.727   8.954  15.684  0.00  0.00    +0.000 F 
ATOM     21  F   UNL     1      49.586   8.611  15.955  0.00  0.00    +0.000 F 
ENDBRANCH  17  18
ENDBRANCH  11  14
ENDBRANCH   1  11
BRANCH   3  22
ATOM     22  C   UNL     1      44.722   4.466  12.225  0.00  0.00    +0.000 C 
BRANCH  22  23
ATOM     23  C   UNL     1      44.321   5.467  11.131  0.00  0.00    +0.000 C 
BRANCH  23  24
ATOM     24  N   UNL     1      43.754   4.832   9.945  0.00  0.00    +0.000 N 
ATOM     25  H   UNL     1      42.818   4.454  10.055  0.00  0.00    +0.000 HD
BRANCH  24  26
ATOM     26  C   UNL     1      44.595   4.033   9.155  0.00  0.00    +0.000 A 
ATOM     27  C   UNL     1      44.593   2.635   9.180  0.00  0.00    +0.000 A 
ATOM     28  C   UNL     1      45.517   1.898   8.439  0.00  0.00    +0.000 A 
ATOM     29  C   UNL     1      46.459   2.590   7.697  0.00  0.00    +0.000 A 
ATOM     30  N   UNL     1      46.533   3.950   7.649  0.00  0.00    +0.000 NA
ATOM     31  C   UNL     1      45.610   4.620   8.388  0.00  0.00    +0.000 A 
BRANCH  29  32
ATOM     32  C   UNL     1      47.471   1.832   6.897  0.00  0.00    +0.000 C 
ATOM     33  N   UNL     1      48.461   2.588   6.335  0.00  0.00    +0.000 N 
ATOM     34  O   UNL     1      47.423   0.614   6.745  0.00  0.00    +0.000 OA
ATOM     35  H   UNL     1      48.462   3.593   6.481  0.00  0.00    +0.000 HD
ATOM     36  H   UNL     1      49.176   2.146   5.777  0.00  0.00    +0.000 HD
ENDBRANCH  29  32
ENDBRANCH  24  26
ENDBRANCH  23  24
ENDBRANCH  22  23
ENDBRANCH   3  22
TORSDOF 9
ENDMDL
MODEL 7
REMARK VINA RESULT:    -7.602      2.509      3.465
REMARK INTER + INTRA:         -12.508
REMARK INTER:                 -11.749
REMARK INTRA:                  -0.759
REMARK UNBOUND:                -0.906
REMARK  Name = 
REMARK  10 active torsions:
REMARK  status: ('A' for Active; 'I' for Inactive)
REMARK    1  A    between atoms: C_1  and  C_2
REMARK    2  A    between atoms: C_2  and  N_3
REMARK    3  A    between atoms: N_3  and  C_4
REMARK    4  A    between atoms: C_6  and  C_7
REMARK    5  A    between atoms: C_7  and  C_8
REMARK    6  A    between atoms: C_8  and  N_9
REMARK    7  A    between atoms: N_9  and  C_10
REMARK    8  A    between atoms: C_13  and  C_14
REMARK    9  A    between atoms: C_20  and  C_21
REMARK   10  A    between atoms: C_28  and  C_29
REMARK                            x       y       z     vdW  Elec       q    Type
REMARK                         _______ _______ _______ _____ _____    ______ ____
ROOT
ATOM      1  C   UNL     1      47.226   7.852  13.261  0.00  0.00    +0.000 A 
ATOM      2  C   UNL     1      46.813   6.532  13.027  0.00  0.00    +0.000 A 
ATOM      3  C   UNL     1      45.654   6.243  12.282  0.00  0.00    +0.000 A 
ATOM      4  C   UNL     1      44.935   7.315  11.733  0.00  0.00    +0.000 A 
ATOM      5  C   UNL     1      45.325   8.642  11.940  0.00  0.00    +0.000 A 
ATOM      6  C   UNL     1      46.473   8.895  12.701  0.00  0.00    +0.000 A 
ENDROOT
BRANCH   5   7
ATOM      7  C   UNL     1      44.521   9.778  11.359  0.00  0.00    +0.000 C 
ATOM      8  F   UNL     1      43.581   9.368  10.458  0.00  0.00    +0.000 F 
ATOM      9  F   UNL     1      43.839  10.474  12.310  0.00  0.00    +0.000 F 
ATOM     10  F   UNL     1      45.291  10.687  10.702  0.00  0.00    +0.000 F 
ENDBRANCH   5   7
BRANCH   1  11
ATOM     11  N   UNL     1      48.423   8.193  13.920  0.00  0.00    +0.000 N 
ATOM     12  H   UNL     1      49.054   8.744  13.333  0.00  0.00    +0.000 HD
BRANCH  11  14
ATOM     13  C   UNL     1      48.199   9.215  16.140  0.00  0.00    +0.000 C 
ATOM     14  C   UNL     1      48.802   8.099  15.311  0.00  0.00    +0.000 C 
ATOM     15  C   UNL     1      48.723   6.653  15.872  0.00  0.00    +0.000 C 
ATOM     16  O   UNL     1      50.122   6.419  15.539  0.00  0.00    +0.000 OA
ATOM     17  C   UNL     1      50.342   7.877  15.533  0.00  0.00    +0.000 C 
BRANCH  17  18
ATOM     18  C   UNL     1      51.386   8.355  14.539  0.00  0.00    +0.000 C 
ATOM     19  F   UNL     1      51.493   9.709  14.527  0.00  0.00    +0.000 F 
ATOM     20  F   UNL     1      52.607   7.871  14.883  0.00  0.00    +0.000 F 
ATOM     21  F   UNL     1      51.132   7.949  13.274  0.00  0.00    +0.000 F 
ENDBRANCH  17  18
ENDBRANCH  11  14
ENDBRANCH   1  11
BRANCH   3  22
ATOM     22  C   UNL     1      45.208   4.795  12.120  0.00  0.00    +0.000 C 
BRANCH  22  23
ATOM     23  C   UNL     1      43.820   4.622  11.482  0.00  0.00    +0.000 C 
BRANCH  23  24
ATOM     24  N   UNL     1      43.819   4.829  10.037  0.00  0.00    +0.000 N 
ATOM     25  H   UNL     1      42.912   5.030   9.624  0.00  0.00    +0.000 HD
BRANCH  24  26
ATOM     26  C   UNL     1      44.626   3.998   9.247  0.00  0.00    +0.000 A 
ATOM     27  C   UNL     1      44.723   2.613   9.416  0.00  0.00    +0.000 A 
ATOM     28  C   UNL     1      45.614   1.853   8.658  0.00  0.00    +0.000 A 
ATOM     29  C   UNL     1      46.424   2.512   7.749  0.00  0.00    +0.000 A 
ATOM     30  N   UNL     1      46.398   3.860   7.553  0.00  0.00    +0.000 NA
ATOM     31  C   UNL     1      45.513   4.554   8.315  0.00  0.00    +0.000 A 
BRANCH  29  32
ATOM     32  C   UNL     1      47.398   1.730   6.925  0.00  0.00    +0.000 C 
ATOM     33  N   UNL     1      48.482   2.429   6.476  0.00  0.00    +0.000 N 
ATOM     34  O   UNL     1      47.241   0.540   6.661  0.00  0.00    +0.000 OA
ATOM     35  H   UNL     1      48.572   3.413   6.713  0.00  0.00    +0.000 HD
ATOM     36  H   UNL     1      49.178   1.969   5.909  0.00  0.00    +0.000 HD
ENDBRANCH  29  32
ENDBRANCH  24  26
ENDBRANCH  23  24
ENDBRANCH  22  23
ENDBRANCH   3  22
TORSDOF 9
ENDMDL
MODEL 8
REMARK VINA RESULT:    -7.591      2.242      4.890
REMARK INTER + INTRA:         -12.492
REMARK INTER:                 -11.603
REMARK INTRA:                  -0.889
REMARK UNBOUND:                -0.906
REMARK  Name = 
REMARK  10 active torsions:
REMARK  status: ('A' for Active; 'I' for Inactive)
REMARK    1  A    between atoms: C_1  and  C_2
REMARK    2  A    between atoms: C_2  and  N_3
REMARK    3  A    between atoms: N_3  and  C_4
REMARK    4  A    between atoms: C_6  and  C_7
REMARK    5  A    between atoms: C_7  and  C_8
REMARK    6  A    between atoms: C_8  and  N_9
REMARK    7  A    between atoms: N_9  and  C_10
REMARK    8  A    between atoms: C_13  and  C_14
REMARK    9  A    between atoms: C_20  and  C_21
REMARK   10  A    between atoms: C_28  and  C_29
REMARK                            x       y       z     vdW  Elec       q    Type
REMARK                         _______ _______ _______ _____ _____    ______ ____
ROOT
ATOM      1  C   UNL     1      48.168   6.349  14.250  0.00  0.00    +0.000 A 
ATOM      2  C   UNL     1      47.342   5.744  13.293  0.00  0.00    +0.000 A 
ATOM      3  C   UNL     1      46.569   4.607  13.598  0.00  0.00    +0.000 A 
ATOM      4  C   UNL     1      46.611   4.110  14.909  0.00  0.00    +0.000 A 
ATOM      5  C   UNL     1      47.420   4.695  15.890  0.00  0.00    +0.000 A 
ATOM      6  C   UNL     1      48.188   5.815  15.548  0.00  0.00    +0.000 A 
ENDROOT
BRANCH   5   7
ATOM      7  C   UNL     1      47.465   4.128  17.286  0.00  0.00    +0.000 C 
ATOM      8  F   UNL     1      48.721   4.109  17.821  0.00  0.00    +0.000 F 
ATOM      9  F   UNL     1      46.704   4.841  18.162  0.00  0.00    +0.000 F 
ATOM     10  F   UNL     1      47.016   2.846  17.350  0.00  0.00    +0.000 F 
ENDBRANCH   5   7
BRANCH   1  11
ATOM     11  N   UNL     1      48.889   7.538  14.024  0.00  0.00    +0.000 N 
ATOM     12  H   UNL     1      49.896   7.381  13.947  0.00  0.00    +0.000 HD
BRANCH  11  14
ATOM     13  C   UNL     1      46.963   8.901  13.348  0.00  0.00    +0.000 C 
ATOM     14  C   UNL     1      48.444   8.865  13.665  0.00  0.00    +0.000 C 
ATOM     15  C   UNL     1      49.017   9.975  14.587  0.00  0.00    +0.000 C 
ATOM     16  O   UNL     1      50.145  10.177  13.689  0.00  0.00    +0.000 OA
ATOM     17  C   UNL     1      49.359   9.571  12.599  0.00  0.00    +0.000 C 
BRANCH  17  18
ATOM     18  C   UNL     1      50.178   8.792  11.584  0.00  0.00    +0.000 C 
ATOM     19  F   UNL     1      50.710   9.603  10.633  0.00  0.00    +0.000 F 
ATOM     20  F   UNL     1      51.221   8.182  12.203  0.00  0.00    +0.000 F 
ATOM     21  F   UNL     1      49.462   7.832  10.957  0.00  0.00    +0.000 F 
ENDBRANCH  17  18
ENDBRANCH  11  14
ENDBRANCH   1  11
BRANCH   3  22
ATOM     22  C   UNL     1      45.745   3.943  12.502  0.00  0.00    +0.000 C 
BRANCH  22  23
ATOM     23  C   UNL     1      44.840   4.903  11.714  0.00  0.00    +0.000 C 
BRANCH  23  24
ATOM     24  N   UNL     1      44.124   4.256  10.619  0.00  0.00    +0.000 N 
ATOM     25  H   UNL     1      43.338   3.673  10.893  0.00  0.00    +0.000 HD
BRANCH  24  26
ATOM     26  C   UNL     1      44.873   3.726   9.558  0.00  0.00    +0.000 A 
ATOM     27  C   UNL     1      45.098   2.360   9.365  0.00  0.00    +0.000 A 
ATOM     28  C   UNL     1      45.929   1.901   8.343  0.00  0.00    +0.000 A 
ATOM     29  C   UNL     1      46.550   2.839   7.537  0.00  0.00    +0.000 A 
ATOM     30  N   UNL     1      46.395   4.185   7.686  0.00  0.00    +0.000 NA
ATOM     31  C   UNL     1      45.576   4.579   8.695  0.00  0.00    +0.000 A 
BRANCH  29  32
ATOM     32  C   UNL     1      47.456   2.383   6.436  0.00  0.00    +0.000 C 
ATOM     33  N   UNL     1      47.337   3.065   5.258  0.00  0.00    +0.000 N 
ATOM     34  O   UNL     1      48.253   1.458   6.569  0.00  0.00    +0.000 OA
ATOM     35  H   UNL     1      46.662   3.821   5.187  0.00  0.00    +0.000 HD
ATOM     36  H   UNL     1      47.911   2.810   4.469  0.00  0.00    +0.000 HD
ENDBRANCH  29  32
ENDBRANCH  24  26
ENDBRANCH  23  24
ENDBRANCH  22  23
ENDBRANCH   3  22
TORSDOF 9
ENDMDL
MODEL 9
REMARK VINA RESULT:    -7.456      4.383      8.135
REMARK INTER + INTRA:         -12.286
REMARK INTER:                 -10.841
REMARK INTRA:                  -1.445
REMARK UNBOUND:                -0.906
REMARK  Name = 
REMARK  10 active torsions:
REMARK  status: ('A' for Active; 'I' for Inactive)
REMARK    1  A    between atoms: C_1  and  C_2
REMARK    2  A    between atoms: C_2  and  N_3
REMARK    3  A    between atoms: N_3  and  C_4
REMARK    4  A    between atoms: C_6  and  C_7
REMARK    5  A    between atoms: C_7  and  C_8
REMARK    6  A    between atoms: C_8  and  N_9
REMARK    7  A    between atoms: N_9  and  C_10
REMARK    8  A    between atoms: C_13  and  C_14
REMARK    9  A    between atoms: C_20  and  C_21
REMARK   10  A    between atoms: C_28  and  C_29
REMARK                            x       y       z     vdW  Elec       q    Type
REMARK                         _______ _______ _______ _____ _____    ______ ____
ROOT
ATOM      1  C   UNL     1      45.529   6.587  11.443  0.00  0.00    +0.000 A 
ATOM      2  C   UNL     1      46.536   7.077  12.286  0.00  0.00    +0.000 A 
ATOM      3  C   UNL     1      46.578   8.429  12.678  0.00  0.00    +0.000 A 
ATOM      4  C   UNL     1      45.553   9.278  12.236  0.00  0.00    +0.000 A 
ATOM      5  C   UNL     1      44.529   8.819  11.400  0.00  0.00    +0.000 A 
ATOM      6  C   UNL     1      44.527   7.473  11.016  0.00  0.00    +0.000 A 
ENDROOT
BRANCH   5   7
ATOM      7  C   UNL     1      43.451   9.759  10.920  0.00  0.00    +0.000 C 
ATOM      8  F   UNL     1      42.263   9.134  10.672  0.00  0.00    +0.000 F 
ATOM      9  F   UNL     1      43.170  10.735  11.827  0.00  0.00    +0.000 F 
ATOM     10  F   UNL     1      43.782  10.396   9.766  0.00  0.00    +0.000 F 
ENDBRANCH   5   7
BRANCH   1  11
ATOM     11  N   UNL     1      45.389   5.230  11.095  0.00  0.00    +0.000 N 
ATOM     12  H   UNL     1      45.874   4.992  10.226  0.00  0.00    +0.000 HD
BRANCH  11  14
ATOM     13  C   UNL     1      45.919   3.574  12.828  0.00  0.00    +0.000 C 
ATOM     14  C   UNL     1      44.890   4.102  11.849  0.00  0.00    +0.000 C 
ATOM     15  C   UNL     1      43.436   4.299  12.358  0.00  0.00    +0.000 C 
ATOM     16  O   UNL     1      42.902   3.659  11.164  0.00  0.00    +0.000 OA
ATOM     17  C   UNL     1      44.206   3.001  10.960  0.00  0.00    +0.000 C 
BRANCH  17  18
ATOM     18  C   UNL     1      44.582   2.778   9.504  0.00  0.00    +0.000 C 
ATOM     19  F   UNL     1      44.194   3.814   8.717  0.00  0.00    +0.000 F 
ATOM     20  F   UNL     1      45.931   2.681   9.386  0.00  0.00    +0.000 F 
ATOM     21  F   UNL     1      44.048   1.646   8.992  0.00  0.00    +0.000 F 
ENDBRANCH  17  18
ENDBRANCH  11  14
ENDBRANCH   1  11
BRANCH   3  22
ATOM     22  C   UNL     1      47.735   8.927  13.535  0.00  0.00    +0.000 C 
BRANCH  22  23
ATOM     23  C   UNL     1      48.890   7.925  13.691  0.00  0.00    +0.000 C 
BRANCH  23  24
ATOM     24  N   UNL     1      49.298   7.725  15.078  0.00  0.00    +0.000 N 
ATOM     25  H   UNL     1      50.247   8.011  15.302  0.00  0.00    +0.000 HD
BRANCH  24  26
ATOM     26  C   UNL     1      48.900   6.544  15.723  0.00  0.00    +0.000 A 
ATOM     27  C   UNL     1      47.960   5.649  15.203  0.00  0.00    +0.000 A 
ATOM     28  C   UNL     1      47.537   4.539  15.934  0.00  0.00    +0.000 A 
ATOM     29  C   UNL     1      48.053   4.361  17.206  0.00  0.00    +0.000 A 
ATOM     30  N   UNL     1      48.952   5.208  17.782  0.00  0.00    +0.000 NA
ATOM     31  C   UNL     1      49.332   6.272  17.028  0.00  0.00    +0.000 A 
BRANCH  29  32
ATOM     32  C   UNL     1      47.615   3.186  18.024  0.00  0.00    +0.000 C 
ATOM     33  N   UNL     1      48.304   2.991  19.188  0.00  0.00    +0.000 N 
ATOM     34  O   UNL     1      46.703   2.438  17.679  0.00  0.00    +0.000 OA
ATOM     35  H   UNL     1      49.054   3.630  19.434  0.00  0.00    +0.000 HD
ATOM     36  H   UNL     1      48.068   2.216  19.788  0.00  0.00    +0.000 HD
ENDBRANCH  29  32
ENDBRANCH  24  26
ENDBRANCH  23  24
ENDBRANCH  22  23
ENDBRANCH   3  22
TORSDOF 9
ENDMDL
