MODEL 1
REMARK VINA RESULT:    -7.338      0.000      0.000
REMARK INTER + INTRA:         -10.640
REMARK INTER:                  -9.482
REMARK INTRA:                  -1.158
REMARK UNBOUND:                -1.158
REMARK  Name = 
REMARK  7 active torsions:
REMARK  status: ('A' for Active; 'I' for Inactive)
REMARK    1  A    between atoms: C_1  and  C_2
REMARK    2  A    between atoms: C_2  and  C_3
REMARK    3  A    between atoms: C_2  and  C_4
REMARK    4  A    between atoms: C_2  and  C_22
REMARK    5  A    between atoms: C_4  and  N_5
REMARK    6  A    between atoms: C_10  and  C_11
REMARK    7  A    between atoms: C_15  and  C_16
REMARK                            x       y       z     vdW  Elec       q    Type
REMARK                         _______ _______ _______ _____ _____    ______ ____
ROOT
ATOM      1  N   UNL     1      48.031   5.920  15.559  0.00  0.00    +0.000 N 
ATOM      2  C   UNL     1      47.858   6.460  14.287  0.00  0.00    +0.000 A 
ATOM      3  C   UNL     1      48.719   7.429  13.774  0.00  0.00    +0.000 A 
ATOM      4  C   UNL     1      48.523   7.928  12.501  0.00  0.00    +0.000 A 
ATOM      5  C   UNL     1      47.501   7.405  11.732  0.00  0.00    +0.000 A 
ATOM      6  C   UNL     1      46.693   6.400  12.262  0.00  0.00    +0.000 A 
ATOM      7  N   UNL     1      46.839   5.965  13.546  0.00  0.00    +0.000 NA
ATOM      8  H   UNL     1      47.112   5.884  16.011  0.00  0.00    +0.000 HD
ENDROOT
BRANCH   6   9
ATOM      9  C   UNL     1      45.673   5.723  11.433  0.00  0.00    +0.000 A 
ATOM     10  C   UNL     1      44.303   5.771  11.780  0.00  0.00    +0.000 A 
ATOM     11  C   UNL     1      43.330   5.115  11.026  0.00  0.00    +0.000 A 
ATOM     12  C   UNL     1      43.691   4.418   9.885  0.00  0.00    +0.000 A 
ATOM     13  C   UNL     1      45.035   4.370   9.472  0.00  0.00    +0.000 A 
ATOM     14  C   UNL     1      46.010   5.020  10.260  0.00  0.00    +0.000 A 
BRANCH  13  15
ATOM     15  C   UNL     1      45.426   3.665   8.204  0.00  0.00    +0.000 C 
ATOM     16  F   UNL     1      46.404   4.311   7.506  0.00  0.00    +0.000 F 
ATOM     17  F   UNL     1      45.903   2.408   8.425  0.00  0.00    +0.000 F 
ATOM     18  F   UNL     1      44.386   3.527   7.337  0.00  0.00    +0.000 F 
ENDBRANCH  13  15
ENDBRANCH   6   9
BRANCH   1  19
ATOM     19  C   UNL     1      49.077   6.469  16.419  0.00  0.00    +0.000 C 
BRANCH  19  21
ATOM     20  C   UNL     1      50.127   6.566  18.724  0.00  0.00    +0.000 C 
ATOM     21  C   UNL     1      49.252   5.728  17.772  0.00  0.00    +0.000 C 
ATOM     22  C   UNL     1      47.832   5.604  18.379  0.00  0.00    +0.000 C 
BRANCH  21  23
ATOM     23  C   UNL     1      49.843   4.328  17.572  0.00  0.00    +0.000 A 
ATOM     24  C   UNL     1      51.142   4.029  17.983  0.00  0.00    +0.000 A 
ATOM     25  C   UNL     1      51.641   2.743  17.783  0.00  0.00    +0.000 A 
ATOM     26  C   UNL     1      50.838   1.787  17.179  0.00  0.00    +0.000 A 
ATOM     27  C   UNL     1      49.563   2.153  16.800  0.00  0.00    +0.000 A 
ATOM     28  N   UNL     1      49.056   3.390  16.989  0.00  0.00    +0.000 NA
ENDBRANCH  21  23
ENDBRANCH  19  21
ENDBRANCH   1  19
TORSDOF 5
ENDMDL
MODEL 2
REMARK VINA RESULT:    -7.146      1.662      2.537
REMARK INTER + INTRA:         -10.392
REMARK INTER:                  -9.219
REMARK INTRA:                  -1.173
REMARK UNBOUND:                -1.158
REMARK  Name = 
REMARK  7 active torsions:
REMARK  status: ('A' for Active; 'I' for Inactive)
REMARK    1  A    between atoms: C_1  and  C_2
REMARK    2  A    between atoms: C_2  and  C_3
REMARK    3  A    between atoms: C_2  and  C_4
REMARK    4  A    between atoms: C_2  and  C_22
REMARK    5  A    between atoms: C_4  and  N_5
REMARK    6  A    between atoms: C_10  and  C_11
REMARK    7  A    between atoms: C_15  and  C_16
REMARK                            x       y       z     vdW  Elec       q    Type
REMARK                         _______ _______ _______ _____ _____    ______ ____
ROOT
ATOM      1  N   UNL     1      47.906   6.949  14.222  0.00  0.00    +0.000 N 
ATOM      2  C   UNL     1      46.858   7.128  13.322  0.00  0.00    +0.000 A 
ATOM      3  C   UNL     1      46.308   8.385  13.073  0.00  0.00    +0.000 A 
ATOM      4  C   UNL     1      45.279   8.524  12.161  0.00  0.00    +0.000 A 
ATOM      5  C   UNL     1      44.856   7.410  11.463  0.00  0.00    +0.000 A 
ATOM      6  C   UNL     1      45.467   6.180  11.703  0.00  0.00    +0.000 A 
ATOM      7  N   UNL     1      46.427   6.031  12.659  0.00  0.00    +0.000 NA
ATOM      8  H   UNL     1      47.691   6.125  14.792  0.00  0.00    +0.000 HD
ENDROOT
BRANCH   6   9
ATOM      9  C   UNL     1      45.135   4.990  10.889  0.00  0.00    +0.000 A 
ATOM     10  C   UNL     1      44.141   4.075  11.307  0.00  0.00    +0.000 A 
ATOM     11  C   UNL     1      43.834   2.934  10.568  0.00  0.00    +0.000 A 
ATOM     12  C   UNL     1      44.488   2.686   9.372  0.00  0.00    +0.000 A 
ATOM     13  C   UNL     1      45.459   3.583   8.890  0.00  0.00    +0.000 A 
ATOM     14  C   UNL     1      45.773   4.722   9.663  0.00  0.00    +0.000 A 
BRANCH  13  15
ATOM     15  C   UNL     1      46.130   3.350   7.566  0.00  0.00    +0.000 C 
ATOM     16  F   UNL     1      45.253   3.246   6.526  0.00  0.00    +0.000 F 
ATOM     17  F   UNL     1      46.984   4.355   7.225  0.00  0.00    +0.000 F 
ATOM     18  F   UNL     1      46.864   2.205   7.542  0.00  0.00    +0.000 F 
ENDBRANCH  13  15
ENDBRANCH   6   9
BRANCH   1  19
ATOM     19  C   UNL     1      48.361   8.094  15.008  0.00  0.00    +0.000 C 
BRANCH  19  21
ATOM     20  C   UNL     1      50.753   7.520  15.620  0.00  0.00    +0.000 C 
ATOM     21  C   UNL     1      49.329   7.734  16.167  0.00  0.00    +0.000 C 
ATOM     22  C   UNL     1      49.338   8.961  17.113  0.00  0.00    +0.000 C 
BRANCH  21  23
ATOM     23  C   UNL     1      48.846   6.501  16.939  0.00  0.00    +0.000 A 
ATOM     24  C   UNL     1      48.250   6.624  18.193  0.00  0.00    +0.000 A 
ATOM     25  C   UNL     1      47.825   5.477  18.861  0.00  0.00    +0.000 A 
ATOM     26  C   UNL     1      48.003   4.236  18.267  0.00  0.00    +0.000 A 
ATOM     27  C   UNL     1      48.598   4.191  17.023  0.00  0.00    +0.000 A 
ATOM     28  N   UNL     1      49.013   5.288  16.354  0.00  0.00    +0.000 NA
ENDBRANCH  21  23
ENDBRANCH  19  21
ENDBRANCH   1  19
TORSDOF 5
ENDMDL
MODEL 3
REMARK VINA RESULT:    -6.869      4.129      7.778
REMARK INTER + INTRA:         -10.035
REMARK INTER:                  -8.897
REMARK INTRA:                  -1.138
REMARK UNBOUND:                -1.158
REMARK  Name = 
REMARK  7 active torsions:
REMARK  status: ('A' for Active; 'I' for Inactive)
REMARK    1  A    between atoms: C_1  and  C_2
REMARK    2  A    between atoms: C_2  and  C_3
REMARK    3  A    between atoms: C_2  and  C_4
REMARK    4  A    between atoms: C_2  and  C_22
REMARK    5  A    between atoms: C_4  and  N_5
REMARK    6  A    between atoms: C_10  and  C_11
REMARK    7  A    between atoms: C_15  and  C_16
REMARK                            x       y       z     vdW  Elec       q    Type
REMARK                         _______ _______ _______ _____ _____    ______ ____
ROOT
ATOM      1  N   UNL     1      46.086   5.695  11.646  0.00  0.00    +0.000 N 
ATOM      2  C   UNL     1      47.107   6.241  12.421  0.00  0.00    +0.000 A 
ATOM      3  C   UNL     1      47.272   5.906  13.764  0.00  0.00    +0.000 A 
ATOM      4  C   UNL     1      48.308   6.457  14.495  0.00  0.00    +0.000 A 
ATOM      5  C   UNL     1      49.203   7.291  13.853  0.00  0.00    +0.000 A 
ATOM      6  C   UNL     1      49.034   7.561  12.496  0.00  0.00    +0.000 A 
ATOM      7  N   UNL     1      47.967   7.078  11.797  0.00  0.00    +0.000 NA
ATOM      8  H   UNL     1      45.669   6.454  11.099  0.00  0.00    +0.000 HD
ENDROOT
BRANCH   6   9
ATOM      9  C   UNL     1      50.038   8.342  11.741  0.00  0.00    +0.000 A 
ATOM     10  C   UNL     1      50.015   9.755  11.746  0.00  0.00    +0.000 A 
ATOM     11  C   UNL     1      50.936  10.508  11.018  0.00  0.00    +0.000 A 
ATOM     12  C   UNL     1      51.927   9.873  10.287  0.00  0.00    +0.000 A 
ATOM     13  C   UNL     1      52.019   8.469  10.278  0.00  0.00    +0.000 A 
ATOM     14  C   UNL     1      51.064   7.722  11.003  0.00  0.00    +0.000 A 
BRANCH  13  15
ATOM     15  C   UNL     1      53.126   7.776   9.536  0.00  0.00    +0.000 C 
ATOM     16  F   UNL     1      54.084   7.256  10.356  0.00  0.00    +0.000 F 
ATOM     17  F   UNL     1      52.682   6.732   8.783  0.00  0.00    +0.000 F 
ATOM     18  F   UNL     1      53.786   8.605   8.681  0.00  0.00    +0.000 F 
ENDBRANCH  13  15
ENDBRANCH   6   9
BRANCH   1  19
ATOM     19  C   UNL     1      45.096   4.836  12.293  0.00  0.00    +0.000 C 
BRANCH  19  21
ATOM     20  C   UNL     1      43.356   3.013  12.024  0.00  0.00    +0.000 C 
ATOM     21  C   UNL     1      44.087   4.171  11.319  0.00  0.00    +0.000 C 
ATOM     22  C   UNL     1      43.054   5.268  10.958  0.00  0.00    +0.000 C 
BRANCH  21  23
ATOM     23  C   UNL     1      44.779   3.686  10.040  0.00  0.00    +0.000 A 
ATOM     24  C   UNL     1      44.962   2.326   9.792  0.00  0.00    +0.000 A 
ATOM     25  C   UNL     1      45.596   1.927   8.617  0.00  0.00    +0.000 A 
ATOM     26  C   UNL     1      46.034   2.888   7.718  0.00  0.00    +0.000 A 
ATOM     27  C   UNL     1      45.817   4.215   8.029  0.00  0.00    +0.000 A 
ATOM     28  N   UNL     1      45.200   4.625   9.157  0.00  0.00    +0.000 NA
ENDBRANCH  21  23
ENDBRANCH  19  21
ENDBRANCH   1  19
TORSDOF 5
ENDMDL
MODEL 4
REMARK VINA RESULT:    -6.741      4.241      8.549
REMARK INTER + INTRA:          -9.869
REMARK INTER:                  -8.830
REMARK INTRA:                  -1.039
REMARK UNBOUND:                -1.158
REMARK  Name = 
REMARK  7 active torsions:
REMARK  status: ('A' for Active; 'I' for Inactive)
REMARK    1  A    between atoms: C_1  and  C_2
REMARK    2  A    between atoms: C_2  and  C_3
REMARK    3  A    between atoms: C_2  and  C_4
REMARK    4  A    between atoms: C_2  and  C_22
REMARK    5  A    between atoms: C_4  and  N_5
REMARK    6  A    between atoms: C_10  and  C_11
REMARK    7  A    between atoms: C_15  and  C_16
REMARK                            x       y       z     vdW  Elec       q    Type
REMARK                         _______ _______ _______ _____ _____    ______ ____
ROOT
ATOM      1  N   UNL     1      45.698   5.950  13.231  0.00  0.00    +0.000 N 
ATOM      2  C   UNL     1      47.007   6.425  13.273  0.00  0.00    +0.000 A 
ATOM      3  C   UNL     1      47.572   7.122  12.206  0.00  0.00    +0.000 A 
ATOM      4  C   UNL     1      48.869   7.591  12.293  0.00  0.00    +0.000 A 
ATOM      5  C   UNL     1      49.564   7.409  13.473  0.00  0.00    +0.000 A 
ATOM      6  C   UNL     1      48.945   6.752  14.536  0.00  0.00    +0.000 A 
ATOM      7  N   UNL     1      47.694   6.221  14.420  0.00  0.00    +0.000 NA
ATOM      8  H   UNL     1      45.700   4.994  13.599  0.00  0.00    +0.000 HD
ENDROOT
BRANCH   6   9
ATOM      9  C   UNL     1      49.602   6.648  15.858  0.00  0.00    +0.000 A 
ATOM     10  C   UNL     1      50.786   7.366  16.140  0.00  0.00    +0.000 A 
ATOM     11  C   UNL     1      51.435   7.260  17.370  0.00  0.00    +0.000 A 
ATOM     12  C   UNL     1      50.904   6.457  18.366  0.00  0.00    +0.000 A 
ATOM     13  C   UNL     1      49.706   5.750  18.152  0.00  0.00    +0.000 A 
ATOM     14  C   UNL     1      49.076   5.852  16.893  0.00  0.00    +0.000 A 
BRANCH  13  15
ATOM     15  C   UNL     1      49.094   4.924  19.247  0.00  0.00    +0.000 C 
ATOM     16  F   UNL     1      47.992   5.501  19.808  0.00  0.00    +0.000 F 
ATOM     17  F   UNL     1      48.687   3.698  18.818  0.00  0.00    +0.000 F 
ATOM     18  F   UNL     1      49.954   4.698  20.278  0.00  0.00    +0.000 F 
ENDBRANCH  13  15
ENDBRANCH   6   9
BRANCH   1  19
ATOM     19  C   UNL     1      44.940   6.089  11.989  0.00  0.00    +0.000 C 
BRANCH  19  21
ATOM     20  C   UNL     1      43.991   3.896  12.831  0.00  0.00    +0.000 C 
ATOM     21  C   UNL     1      44.053   4.865  11.636  0.00  0.00    +0.000 C 
ATOM     22  C   UNL     1      42.633   5.426  11.375  0.00  0.00    +0.000 C 
BRANCH  21  23
ATOM     23  C   UNL     1      44.556   4.152  10.376  0.00  0.00    +0.000 A 
ATOM     24  C   UNL     1      45.291   4.834   9.408  0.00  0.00    +0.000 A 
ATOM     25  C   UNL     1      45.731   4.147   8.277  0.00  0.00    +0.000 A 
ATOM     26  C   UNL     1      45.429   2.801   8.136  0.00  0.00    +0.000 A 
ATOM     27  C   UNL     1      44.699   2.191   9.135  0.00  0.00    +0.000 A 
ATOM     28  N   UNL     1      44.268   2.833  10.242  0.00  0.00    +0.000 NA
ENDBRANCH  21  23
ENDBRANCH  19  21
ENDBRANCH   1  19
TORSDOF 5
ENDMDL
MODEL 5
REMARK VINA RESULT:    -6.517      4.556      8.863
REMARK INTER + INTRA:          -9.580
REMARK INTER:                  -8.678
REMARK INTRA:                  -0.902
REMARK UNBOUND:                -1.158
REMARK  Name = 
REMARK  7 active torsions:
REMARK  status: ('A' for Active; 'I' for Inactive)
REMARK    1  A    between atoms: C_1  and  C_2
REMARK    2  A    between atoms: C_2  and  C_3
REMARK    3  A    between atoms: C_2  and  C_4
REMARK    4  A    between atoms: C_2  and  C_22
REMARK    5  A    between atoms: C_4  and  N_5
REMARK    6  A    between atoms: C_10  and  C_11
REMARK    7  A    between atoms: C_15  and  C_16
REMARK                            x       y       z     vdW  Elec       q    Type
REMARK                         _______ _______ _______ _____ _____    ______ ____
ROOT
ATOM      1  N   UNL     1      45.963   4.978  13.251  0.00  0.00    +0.000 N 
ATOM      2  C   UNL     1      47.045   5.667  13.793  0.00  0.00    +0.000 A 
ATOM      3  C   UNL     1      47.546   6.830  13.209  0.00  0.00    +0.000 A 
ATOM      4  C   UNL     1      48.612   7.493  13.787  0.00  0.00    +0.000 A 
ATOM      5  C   UNL     1      49.124   7.017  14.978  0.00  0.00    +0.000 A 
ATOM      6  C   UNL     1      48.562   5.880  15.557  0.00  0.00    +0.000 A 
ATOM      7  N   UNL     1      47.563   5.183  14.946  0.00  0.00    +0.000 NA
ATOM      8  H   UNL     1      46.188   3.979  13.267  0.00  0.00    +0.000 HD
ENDROOT
BRANCH   6   9
ATOM      9  C   UNL     1      48.993   5.411  16.893  0.00  0.00    +0.000 A 
ATOM     10  C   UNL     1      48.050   4.968  17.849  0.00  0.00    +0.000 A 
ATOM     11  C   UNL     1      48.434   4.549  19.122  0.00  0.00    +0.000 A 
ATOM     12  C   UNL     1      49.774   4.529  19.469  0.00  0.00    +0.000 A 
ATOM     13  C   UNL     1      50.759   4.923  18.543  0.00  0.00    +0.000 A 
ATOM     14  C   UNL     1      50.349   5.366  17.267  0.00  0.00    +0.000 A 
BRANCH  13  15
ATOM     15  C   UNL     1      52.218   4.848  18.894  0.00  0.00    +0.000 C 
ATOM     16  F   UNL     1      53.035   4.813  17.801  0.00  0.00    +0.000 F 
ATOM     17  F   UNL     1      52.638   5.913  19.631  0.00  0.00    +0.000 F 
ATOM     18  F   UNL     1      52.528   3.740  19.620  0.00  0.00    +0.000 F 
ENDBRANCH  13  15
ENDBRANCH   6   9
BRANCH   1  19
ATOM     19  C   UNL     1      45.413   5.427  11.973  0.00  0.00    +0.000 C 
BRANCH  19  21
ATOM     20  C   UNL     1      44.055   3.315  12.312  0.00  0.00    +0.000 C 
ATOM     21  C   UNL     1      44.418   4.433  11.317  0.00  0.00    +0.000 C 
ATOM     22  C   UNL     1      43.142   5.253  10.999  0.00  0.00    +0.000 C 
BRANCH  21  23
ATOM     23  C   UNL     1      44.983   3.849  10.017  0.00  0.00    +0.000 A 
ATOM     24  C   UNL     1      44.961   2.477   9.775  0.00  0.00    +0.000 A 
ATOM     25  C   UNL     1      45.485   1.987   8.580  0.00  0.00    +0.000 A 
ATOM     26  C   UNL     1      46.019   2.873   7.656  0.00  0.00    +0.000 A 
ATOM     27  C   UNL     1      46.005   4.218   7.962  0.00  0.00    +0.000 A 
ATOM     28  N   UNL     1      45.497   4.716   9.110  0.00  0.00    +0.000 NA
ENDBRANCH  21  23
ENDBRANCH  19  21
ENDBRANCH   1  19
TORSDOF 5
ENDMDL
MODEL 6
REMARK VINA RESULT:    -6.501      4.966      9.300
REMARK INTER + INTRA:          -9.559
REMARK INTER:                  -8.626
REMARK INTRA:                  -0.933
REMARK UNBOUND:                -1.158
REMARK  Name = 
REMARK  7 active torsions:
REMARK  status: ('A' for Active; 'I' for Inactive)
REMARK    1  A    between atoms: C_1  and  C_2
REMARK    2  A    between atoms: C_2  and  C_3
REMARK    3  A    between atoms: C_2  and  C_4
REMARK    4  A    between atoms: C_2  and  C_22
REMARK    5  A    between atoms: C_4  and  N_5
REMARK    6  A    between atoms: C_10  and  C_11
REMARK    7  A    between atoms: C_15  and  C_16
REMARK                            x       y       z     vdW  Elec       q    Type
REMARK                         _______ _______ _______ _____ _____    ______ ____
ROOT
ATOM      1  N   UNL     1      46.488   5.098  14.436  0.00  0.00    +0.000 N 
ATOM      2  C   UNL     1      47.147   4.418  15.458  0.00  0.00    +0.000 A 
ATOM      3  C   UNL     1      47.649   3.129  15.281  0.00  0.00    +0.000 A 
ATOM      4  C   UNL     1      48.311   2.494  16.315  0.00  0.00    +0.000 A 
ATOM      5  C   UNL     1      48.514   3.182  17.495  0.00  0.00    +0.000 A 
ATOM      6  C   UNL     1      48.042   4.488  17.615  0.00  0.00    +0.000 A 
ATOM      7  N   UNL     1      47.321   5.084  16.622  0.00  0.00    +0.000 NA
ATOM      8  H   UNL     1      45.657   5.540  14.839  0.00  0.00    +0.000 HD
ENDROOT
BRANCH   6   9
ATOM      9  C   UNL     1      48.349   5.305  18.809  0.00  0.00    +0.000 A 
ATOM     10  C   UNL     1      49.130   4.785  19.866  0.00  0.00    +0.000 A 
ATOM     11  C   UNL     1      49.407   5.530  21.012  0.00  0.00    +0.000 A 
ATOM     12  C   UNL     1      48.937   6.828  21.124  0.00  0.00    +0.000 A 
ATOM     13  C   UNL     1      48.186   7.409  20.085  0.00  0.00    +0.000 A 
ATOM     14  C   UNL     1      47.897   6.632  18.943  0.00  0.00    +0.000 A 
BRANCH  13  15
ATOM     15  C   UNL     1      47.723   8.836  20.176  0.00  0.00    +0.000 C 
ATOM     16  F   UNL     1      47.177   9.301  19.015  0.00  0.00    +0.000 F 
ATOM     17  F   UNL     1      46.769   9.021  21.129  0.00  0.00    +0.000 F 
ATOM     18  F   UNL     1      48.732   9.698  20.477  0.00  0.00    +0.000 F 
ENDBRANCH  13  15
ENDBRANCH   6   9
BRANCH   1  19
ATOM     19  C   UNL     1      46.220   4.395  13.183  0.00  0.00    +0.000 C 
BRANCH  19  21
ATOM     20  C   UNL     1      43.837   5.215  12.914  0.00  0.00    +0.000 C 
ATOM     21  C   UNL     1      45.220   5.118  12.241  0.00  0.00    +0.000 C 
ATOM     22  C   UNL     1      45.779   6.549  12.041  0.00  0.00    +0.000 C 
BRANCH  21  23
ATOM     23  C   UNL     1      45.122   4.417  10.882  0.00  0.00    +0.000 A 
ATOM     24  C   UNL     1      45.568   5.039   9.717  0.00  0.00    +0.000 A 
ATOM     25  C   UNL     1      45.460   4.365   8.501  0.00  0.00    +0.000 A 
ATOM     26  C   UNL     1      44.912   3.092   8.473  0.00  0.00    +0.000 A 
ATOM     27  C   UNL     1      44.493   2.538   9.665  0.00  0.00    +0.000 A 
ATOM     28  N   UNL     1      44.593   3.168  10.855  0.00  0.00    +0.000 NA
ENDBRANCH  21  23
ENDBRANCH  19  21
ENDBRANCH   1  19
TORSDOF 5
ENDMDL
MODEL 7
REMARK VINA RESULT:    -6.352      4.573      8.604
REMARK INTER + INTRA:          -9.367
REMARK INTER:                  -8.281
REMARK INTRA:                  -1.086
REMARK UNBOUND:                -1.158
REMARK  Name = 
REMARK  7 active torsions:
REMARK  status: ('A' for Active; 'I' for Inactive)
REMARK    1  A    between atoms: C_1  and  C_2
REMARK    2  A    between atoms: C_2  and  C_3
REMARK    3  A    between atoms: C_2  and  C_4
REMARK    4  A    between atoms: C_2  and  C_22
REMARK    5  A    between atoms: C_4  and  N_5
REMARK    6  A    between atoms: C_10  and  C_11
REMARK    7  A    between atoms: C_15  and  C_16
REMARK                            x       y       z     vdW  Elec       q    Type
REMARK                         _______ _______ _______ _____ _____    ______ ____
ROOT
ATOM      1  N   UNL     1      45.649   6.138  13.209  0.00  0.00    +0.000 N 
ATOM      2  C   UNL     1      46.964   6.589  13.119  0.00  0.00    +0.000 A 
ATOM      3  C   UNL     1      47.438   7.257  11.991  0.00  0.00    +0.000 A 
ATOM      4  C   UNL     1      48.745   7.703  11.947  0.00  0.00    +0.000 A 
ATOM      5  C   UNL     1      49.544   7.528  13.060  0.00  0.00    +0.000 A 
ATOM      6  C   UNL     1      49.017   6.901  14.188  0.00  0.00    +0.000 A 
ATOM      7  N   UNL     1      47.752   6.393  14.201  0.00  0.00    +0.000 NA
ATOM      8  H   UNL     1      45.669   5.189  13.594  0.00  0.00    +0.000 HD
ENDROOT
BRANCH   6   9
ATOM      9  C   UNL     1      49.794   6.809  15.444  0.00  0.00    +0.000 A 
ATOM     10  C   UNL     1      49.230   6.242  16.610  0.00  0.00    +0.000 A 
ATOM     11  C   UNL     1      49.937   6.171  17.810  0.00  0.00    +0.000 A 
ATOM     12  C   UNL     1      51.239   6.636  17.875  0.00  0.00    +0.000 A 
ATOM     13  C   UNL     1      51.863   7.175  16.734  0.00  0.00    +0.000 A 
ATOM     14  C   UNL     1      51.125   7.260  15.534  0.00  0.00    +0.000 A 
BRANCH  13  15
ATOM     15  C   UNL     1      53.295   7.628  16.783  0.00  0.00    +0.000 C 
ATOM     16  F   UNL     1      53.825   7.611  18.040  0.00  0.00    +0.000 F 
ATOM     17  F   UNL     1      54.119   6.850  16.027  0.00  0.00    +0.000 F 
ATOM     18  F   UNL     1      53.460   8.902  16.333  0.00  0.00    +0.000 F 
ENDBRANCH  13  15
ENDBRANCH   6   9
BRANCH   1  19
ATOM     19  C   UNL     1      44.779   6.270  12.042  0.00  0.00    +0.000 C 
BRANCH  19  21
ATOM     20  C   UNL     1      43.954   4.038  12.911  0.00  0.00    +0.000 C 
ATOM     21  C   UNL     1      43.954   4.999  11.708  0.00  0.00    +0.000 C 
ATOM     22  C   UNL     1      42.504   5.484  11.456  0.00  0.00    +0.000 C 
BRANCH  21  23
ATOM     23  C   UNL     1      44.482   4.302  10.449  0.00  0.00    +0.000 A 
ATOM     24  C   UNL     1      45.275   4.984   9.527  0.00  0.00    +0.000 A 
ATOM     25  C   UNL     1      45.735   4.312   8.396  0.00  0.00    +0.000 A 
ATOM     26  C   UNL     1      45.394   2.981   8.206  0.00  0.00    +0.000 A 
ATOM     27  C   UNL     1      44.607   2.371   9.161  0.00  0.00    +0.000 A 
ATOM     28  N   UNL     1      44.155   2.998  10.267  0.00  0.00    +0.000 NA
ENDBRANCH  21  23
ENDBRANCH  19  21
ENDBRANCH   1  19
TORSDOF 5
ENDMDL
MODEL 8
REMARK VINA RESULT:    -6.302      2.571      4.585
REMARK INTER + INTRA:          -9.302
REMARK INTER:                  -7.952
REMARK INTRA:                  -1.351
REMARK UNBOUND:                -1.158
REMARK  Name = 
REMARK  7 active torsions:
REMARK  status: ('A' for Active; 'I' for Inactive)
REMARK    1  A    between atoms: C_1  and  C_2
REMARK    2  A    between atoms: C_2  and  C_3
REMARK    3  A    between atoms: C_2  and  C_4
REMARK    4  A    between atoms: C_2  and  C_22
REMARK    5  A    between atoms: C_4  and  N_5
REMARK    6  A    between atoms: C_10  and  C_11
REMARK    7  A    between atoms: C_15  and  C_16
REMARK                            x       y       z     vdW  Elec       q    Type
REMARK                         _______ _______ _______ _____ _____    ______ ____
ROOT
ATOM      1  N   UNL     1      49.204   6.594  17.123  0.00  0.00    +0.000 N 
ATOM      2  C   UNL     1      48.560   5.541  16.476  0.00  0.00    +0.000 A 
ATOM      3  C   UNL     1      48.389   4.298  17.084  0.00  0.00    +0.000 A 
ATOM      4  C   UNL     1      47.730   3.284  16.414  0.00  0.00    +0.000 A 
ATOM      5  C   UNL     1      47.197   3.548  15.168  0.00  0.00    +0.000 A 
ATOM      6  C   UNL     1      47.344   4.820  14.617  0.00  0.00    +0.000 A 
ATOM      7  N   UNL     1      48.062   5.794  15.245  0.00  0.00    +0.000 NA
ATOM      8  H   UNL     1      49.844   7.029  16.452  0.00  0.00    +0.000 HD
ENDROOT
BRANCH   6   9
ATOM      9  C   UNL     1      46.681   5.184  13.345  0.00  0.00    +0.000 A 
ATOM     10  C   UNL     1      46.892   6.448  12.749  0.00  0.00    +0.000 A 
ATOM     11  C   UNL     1      46.254   6.819  11.566  0.00  0.00    +0.000 A 
ATOM     12  C   UNL     1      45.409   5.928  10.926  0.00  0.00    +0.000 A 
ATOM     13  C   UNL     1      45.192   4.642  11.455  0.00  0.00    +0.000 A 
ATOM     14  C   UNL     1      45.829   4.292  12.666  0.00  0.00    +0.000 A 
BRANCH  13  15
ATOM     15  C   UNL     1      44.323   3.651  10.735  0.00  0.00    +0.000 C 
ATOM     16  F   UNL     1      45.004   2.552  10.300  0.00  0.00    +0.000 F 
ATOM     17  F   UNL     1      43.314   3.171  11.514  0.00  0.00    +0.000 F 
ATOM     18  F   UNL     1      43.730   4.177   9.629  0.00  0.00    +0.000 F 
ENDBRANCH  13  15
ENDBRANCH   6   9
BRANCH   1  19
ATOM     19  C   UNL     1      49.814   6.348  18.428  0.00  0.00    +0.000 C 
BRANCH  19  21
ATOM     20  C   UNL     1      47.919   6.189  20.103  0.00  0.00    +0.000 C 
ATOM     21  C   UNL     1      49.100   7.049  19.615  0.00  0.00    +0.000 C 
ATOM     22  C   UNL     1      50.150   7.147  20.749  0.00  0.00    +0.000 C 
BRANCH  21  23
ATOM     23  C   UNL     1      48.631   8.458  19.233  0.00  0.00    +0.000 A 
ATOM     24  C   UNL     1      47.430   8.974  19.719  0.00  0.00    +0.000 A 
ATOM     25  C   UNL     1      47.042  10.260  19.348  0.00  0.00    +0.000 A 
ATOM     26  C   UNL     1      47.855  11.001  18.503  0.00  0.00    +0.000 A 
ATOM     27  C   UNL     1      49.030  10.427  18.063  0.00  0.00    +0.000 A 
ATOM     28  N   UNL     1      49.430   9.186  18.414  0.00  0.00    +0.000 NA
ENDBRANCH  21  23
ENDBRANCH  19  21
ENDBRANCH   1  19
TORSDOF 5
ENDMDL
MODEL 9
REMARK VINA RESULT:    -6.163      1.707      3.306
REMARK INTER + INTRA:          -9.123
REMARK INTER:                  -7.928
REMARK INTRA:                  -1.195
REMARK UNBOUND:                -1.158
REMARK  Name = 
REMARK  7 active torsions:
REMARK  status: ('A' for Active; 'I' for Inactive)
REMARK    1  A    between atoms: C_1  and  C_2
REMARK    2  A    between atoms: C_2  and  C_3
REMARK    3  A    between atoms: C_2  and  C_4
REMARK    4  A    between atoms: C_2  and  C_22
REMARK    5  A    between atoms: C_4  and  N_5
REMARK    6  A    between atoms: C_10  and  C_11
REMARK    7  A    between atoms: C_15  and  C_16
REMARK                            x       y       z     vdW  Elec       q    Type
REMARK                         _______ _______ _______ _____ _____    ______ ____
ROOT
ATOM      1  N   UNL     1      47.974   4.683  16.351  0.00  0.00    +0.000 N 
ATOM      2  C   UNL     1      47.732   5.528  15.270  0.00  0.00    +0.000 A 
ATOM      3  C   UNL     1      48.536   6.635  15.006  0.00  0.00    +0.000 A 
ATOM      4  C   UNL     1      48.272   7.440  13.914  0.00  0.00    +0.000 A 
ATOM      5  C   UNL     1      47.241   7.089  13.064  0.00  0.00    +0.000 A 
ATOM      6  C   UNL     1      46.492   5.945  13.334  0.00  0.00    +0.000 A 
ATOM      7  N   UNL     1      46.704   5.197  14.455  0.00  0.00    +0.000 NA
ATOM      8  H   UNL     1      47.076   4.488  16.803  0.00  0.00    +0.000 HD
ENDROOT
BRANCH   6   9
ATOM      9  C   UNL     1      45.465   5.462  12.385  0.00  0.00    +0.000 A 
ATOM     10  C   UNL     1      44.093   5.481  12.724  0.00  0.00    +0.000 A 
ATOM     11  C   UNL     1      43.114   5.004  11.854  0.00  0.00    +0.000 A 
ATOM     12  C   UNL     1      43.472   4.521  10.606  0.00  0.00    +0.000 A 
ATOM     13  C   UNL     1      44.820   4.514  10.202  0.00  0.00    +0.000 A 
ATOM     14  C   UNL     1      45.800   4.980  11.105  0.00  0.00    +0.000 A 
BRANCH  13  15
ATOM     15  C   UNL     1      45.208   4.047   8.828  0.00  0.00    +0.000 C 
ATOM     16  F   UNL     1      45.660   2.759   8.803  0.00  0.00    +0.000 F 
ATOM     17  F   UNL     1      44.173   4.089   7.944  0.00  0.00    +0.000 F 
ATOM     18  F   UNL     1      46.205   4.795   8.280  0.00  0.00    +0.000 F 
ENDBRANCH  13  15
ENDBRANCH   6   9
BRANCH   1  19
ATOM     19  C   UNL     1      49.032   5.037  17.295  0.00  0.00    +0.000 C 
BRANCH  19  21
ATOM     20  C   UNL     1      47.035   5.482  18.791  0.00  0.00    +0.000 C 
ATOM     21  C   UNL     1      48.535   5.758  18.577  0.00  0.00    +0.000 C 
ATOM     22  C   UNL     1      49.330   5.137  19.753  0.00  0.00    +0.000 C 
BRANCH  21  23
ATOM     23  C   UNL     1      48.813   7.265  18.516  0.00  0.00    +0.000 A 
ATOM     24  C   UNL     1      47.769   8.190  18.514  0.00  0.00    +0.000 A 
ATOM     25  C   UNL     1      48.066   9.551  18.458  0.00  0.00    +0.000 A 
ATOM     26  C   UNL     1      49.390   9.959  18.404  0.00  0.00    +0.000 A 
ATOM     27  C   UNL     1      50.370   8.987  18.410  0.00  0.00    +0.000 A 
ATOM     28  N   UNL     1      50.108   7.665  18.471  0.00  0.00    +0.000 NA
ENDBRANCH  21  23
ENDBRANCH  19  21
ENDBRANCH   1  19
TORSDOF 5
ENDMDL
