MODEL 1
REMARK VINA RESULT:    -6.587      0.000      0.000
REMARK INTER + INTRA:          -9.950
REMARK INTER:                  -9.090
REMARK INTRA:                  -0.860
REMARK UNBOUND:                -0.860
REMARK  Name = 
REMARK  10 active torsions:
REMARK  status: ('A' for Active; 'I' for Inactive)
REMARK    1  A    between atoms: C_1  and  C_2
REMARK    2  A    between atoms: C_2  and  C_3
REMARK    3  A    between atoms: C_2  and  C_4
REMARK    4  A    between atoms: C_2  and  C_5
REMARK    5  A    between atoms: C_9  and  C_10
REMARK    6  A    between atoms: N_16  and  C_17
REMARK    7  A    between atoms: C_17  and  C_18
REMARK    8  A    between atoms: N_21  and  C_22
REMARK    9  A    between atoms: C_22  and  C_23
REMARK   10  A    between atoms: C_23  and  N_24
REMARK                            x       y       z     vdW  Elec       q    Type
REMARK                         _______ _______ _______ _____ _____    ______ ____
ROOT
ATOM      1  C   UNL     1      47.686   4.238  15.228  0.00  0.00    +0.000 A 
ATOM      2  N   UNL     1      47.263   3.250  14.442  0.00  0.00    +0.000 NA
ATOM      3  C   UNL     1      46.446   3.845  13.526  0.00  0.00    +0.000 A 
ATOM      4  C   UNL     1      45.681   3.309  12.482  0.00  0.00    +0.000 A 
ATOM      5  C   UNL     1      44.892   4.206  11.753  0.00  0.00    +0.000 A 
ATOM      6  C   UNL     1      44.824   5.540  12.180  0.00  0.00    +0.000 A 
ATOM      7  N   UNL     1      45.577   6.104  13.168  0.00  0.00    +0.000 NA
ATOM      8  C   UNL     1      46.412   5.219  13.740  0.00  0.00    +0.000 A 
ATOM      9  N   UNL     1      47.479   5.451  14.573  0.00  0.00    +0.000 N 
ENDROOT
BRANCH   5  10
ATOM     10  C   UNL     1      44.192   3.854  10.493  0.00  0.00    +0.000 C 
ATOM     11  N   UNL     1      43.910   4.845   9.596  0.00  0.00    +0.000 N 
ATOM     12  O   UNL     1      43.795   2.712  10.287  0.00  0.00    +0.000 OA
ATOM     13  H   UNL     1      44.148   5.820   9.702  0.00  0.00    +0.000 HD
ATOM     14  H   UNL     1      43.359   4.583   8.785  0.00  0.00    +0.000 HD
ENDBRANCH   5  10
BRANCH   1  16
ATOM     15  C   UNL     1      48.547   2.533  16.844  0.00  0.00    +0.000 C 
ATOM     16  C   UNL     1      48.226   4.019  16.641  0.00  0.00    +0.000 C 
ATOM     17  C   UNL     1      47.126   4.433  17.654  0.00  0.00    +0.000 C 
ATOM     18  C   UNL     1      49.448   4.888  17.002  0.00  0.00    +0.000 C 
ENDBRANCH   1  16
BRANCH   9  19
ATOM     19  C   UNL     1      48.128   6.716  14.842  0.00  0.00    +0.000 C 
BRANCH  19  20
ATOM     20  C   UNL     1      49.206   7.393  13.939  0.00  0.00    +0.000 C 
ATOM     21  C   UNL     1      49.591   8.838  14.228  0.00  0.00    +0.000 C 
ATOM     22  C   UNL     1      48.719   9.884  13.539  0.00  0.00    +0.000 C 
ATOM     23  N   UNL     1      48.244   9.614  12.179  0.00  0.00    +0.000 NA
ATOM     24  C   UNL     1      47.957   8.201  11.892  0.00  0.00    +0.000 C 
ATOM     25  C   UNL     1      49.006   7.243  12.429  0.00  0.00    +0.000 C 
BRANCH  23  26
ATOM     26  C   UNL     1      47.013  10.394  11.901  0.00  0.00    +0.000 C 
BRANCH  26  27
ATOM     27  C   UNL     1      45.708   9.587  11.730  0.00  0.00    +0.000 C 
BRANCH  27  28
ATOM     28  N   UNL     1      44.955   9.463  12.986  0.00  0.00    +0.000 NA
ATOM     29  H   UNL     1      45.577   9.189  13.743  0.00  0.00    +0.000 HD
ATOM     30  H   UNL     1      44.570  10.375  13.237  0.00  0.00    +0.000 HD
ENDBRANCH  27  28
ENDBRANCH  26  27
ENDBRANCH  23  26
ENDBRANCH  19  20
ENDBRANCH   9  19
TORSDOF 7
ENDMDL
MODEL 2
REMARK VINA RESULT:    -6.534      2.904      6.728
REMARK INTER + INTRA:          -9.876
REMARK INTER:                  -9.049
REMARK INTRA:                  -0.828
REMARK UNBOUND:                -0.860
REMARK  Name = 
REMARK  10 active torsions:
REMARK  status: ('A' for Active; 'I' for Inactive)
REMARK    1  A    between atoms: C_1  and  C_2
REMARK    2  A    between atoms: C_2  and  C_3
REMARK    3  A    between atoms: C_2  and  C_4
REMARK    4  A    between atoms: C_2  and  C_5
REMARK    5  A    between atoms: C_9  and  C_10
REMARK    6  A    between atoms: N_16  and  C_17
REMARK    7  A    between atoms: C_17  and  C_18
REMARK    8  A    between atoms: N_21  and  C_22
REMARK    9  A    between atoms: C_22  and  C_23
REMARK   10  A    between atoms: C_23  and  N_24
REMARK                            x       y       z     vdW  Elec       q    Type
REMARK                         _______ _______ _______ _____ _____    ______ ____
ROOT
ATOM      1  C   UNL     1      48.021   6.709  13.829  0.00  0.00    +0.000 A 
ATOM      2  N   UNL     1      48.904   6.781  14.823  0.00  0.00    +0.000 NA
ATOM      3  C   UNL     1      48.524   5.817  15.710  0.00  0.00    +0.000 A 
ATOM      4  C   UNL     1      49.042   5.454  16.960  0.00  0.00    +0.000 A 
ATOM      5  C   UNL     1      48.369   4.441  17.652  0.00  0.00    +0.000 A 
ATOM      6  C   UNL     1      47.172   3.944  17.117  0.00  0.00    +0.000 A 
ATOM      7  N   UNL     1      46.655   4.249  15.891  0.00  0.00    +0.000 NA
ATOM      8  C   UNL     1      47.421   5.127  15.220  0.00  0.00    +0.000 A 
ATOM      9  N   UNL     1      47.374   5.476  13.892  0.00  0.00    +0.000 N 
ENDROOT
BRANCH   5  10
ATOM     10  C   UNL     1      48.894   3.789  18.876  0.00  0.00    +0.000 C 
ATOM     11  N   UNL     1      48.184   2.763  19.434  0.00  0.00    +0.000 N 
ATOM     12  O   UNL     1      49.902   4.208  19.435  0.00  0.00    +0.000 OA
ATOM     13  H   UNL     1      47.318   2.385  19.078  0.00  0.00    +0.000 HD
ATOM     14  H   UNL     1      48.528   2.395  20.315  0.00  0.00    +0.000 HD
ENDBRANCH   5  10
BRANCH   1  16
ATOM     15  C   UNL     1      48.165   7.444  11.441  0.00  0.00    +0.000 C 
ATOM     16  C   UNL     1      47.749   7.858  12.859  0.00  0.00    +0.000 C 
ATOM     17  C   UNL     1      48.607   9.076  13.292  0.00  0.00    +0.000 C 
ATOM     18  C   UNL     1      46.295   8.373  12.865  0.00  0.00    +0.000 C 
ENDBRANCH   1  16
BRANCH   9  19
ATOM     19  C   UNL     1      46.660   4.804  12.829  0.00  0.00    +0.000 C 
BRANCH  19  20
ATOM     20  C   UNL     1      45.197   5.113  12.381  0.00  0.00    +0.000 C 
ATOM     21  C   UNL     1      44.112   4.091  12.694  0.00  0.00    +0.000 C 
ATOM     22  C   UNL     1      43.937   2.999  11.642  0.00  0.00    +0.000 C 
ATOM     23  N   UNL     1      44.081   3.359  10.229  0.00  0.00    +0.000 NA
ATOM     24  C   UNL     1      45.075   4.406   9.955  0.00  0.00    +0.000 C 
ATOM     25  C   UNL     1      45.023   5.569  10.930  0.00  0.00    +0.000 C 
BRANCH  23  26
ATOM     26  C   UNL     1      44.448   2.163   9.430  0.00  0.00    +0.000 C 
BRANCH  26  27
ATOM     27  C   UNL     1      45.653   2.313   8.476  0.00  0.00    +0.000 C 
BRANCH  27  28
ATOM     28  N   UNL     1      46.307   1.028   8.192  0.00  0.00    +0.000 NA
ATOM     29  H   UNL     1      45.844   0.563   7.414  0.00  0.00    +0.000 HD
ATOM     30  H   UNL     1      47.271   1.199   7.901  0.00  0.00    +0.000 HD
ENDBRANCH  27  28
ENDBRANCH  26  27
ENDBRANCH  23  26
ENDBRANCH  19  20
ENDBRANCH   9  19
TORSDOF 7
ENDMDL
MODEL 3
REMARK VINA RESULT:    -6.340      2.054      5.646
REMARK INTER + INTRA:          -9.610
REMARK INTER:                  -8.716
REMARK INTRA:                  -0.894
REMARK UNBOUND:                -0.860
REMARK  Name = 
REMARK  10 active torsions:
REMARK  status: ('A' for Active; 'I' for Inactive)
REMARK    1  A    between atoms: C_1  and  C_2
REMARK    2  A    between atoms: C_2  and  C_3
REMARK    3  A    between atoms: C_2  and  C_4
REMARK    4  A    between atoms: C_2  and  C_5
REMARK    5  A    between atoms: C_9  and  C_10
REMARK    6  A    between atoms: N_16  and  C_17
REMARK    7  A    between atoms: C_17  and  C_18
REMARK    8  A    between atoms: N_21  and  C_22
REMARK    9  A    between atoms: C_22  and  C_23
REMARK   10  A    between atoms: C_23  and  N_24
REMARK                            x       y       z     vdW  Elec       q    Type
REMARK                         _______ _______ _______ _____ _____    ______ ____
ROOT
ATOM      1  C   UNL     1      48.315   8.521  12.830  0.00  0.00    +0.000 A 
ATOM      2  N   UNL     1      47.006   8.582  12.591  0.00  0.00    +0.000 NA
ATOM      3  C   UNL     1      46.537   7.326  12.843  0.00  0.00    +0.000 A 
ATOM      4  C   UNL     1      45.255   6.776  12.722  0.00  0.00    +0.000 A 
ATOM      5  C   UNL     1      45.123   5.413  13.010  0.00  0.00    +0.000 A 
ATOM      6  C   UNL     1      46.281   4.669  13.282  0.00  0.00    +0.000 A 
ATOM      7  N   UNL     1      47.538   5.175  13.440  0.00  0.00    +0.000 NA
ATOM      8  C   UNL     1      47.574   6.510  13.282  0.00  0.00    +0.000 A 
ATOM      9  N   UNL     1      48.577   7.392  13.604  0.00  0.00    +0.000 N 
ENDROOT
BRANCH   5  10
ATOM     10  C   UNL     1      43.818   4.719  13.141  0.00  0.00    +0.000 C 
ATOM     11  N   UNL     1      42.669   5.456  13.069  0.00  0.00    +0.000 N 
ATOM     12  O   UNL     1      43.760   3.521  13.394  0.00  0.00    +0.000 OA
ATOM     13  H   UNL     1      42.617   6.453  12.918  0.00  0.00    +0.000 HD
ATOM     14  H   UNL     1      41.800   4.964  13.244  0.00  0.00    +0.000 HD
ENDBRANCH   5  10
BRANCH   1  16
ATOM     15  C   UNL     1      49.895  10.380  13.384  0.00  0.00    +0.000 C 
ATOM     16  C   UNL     1      49.323   9.514  12.254  0.00  0.00    +0.000 C 
ATOM     17  C   UNL     1      48.583  10.435  11.249  0.00  0.00    +0.000 C 
ATOM     18  C   UNL     1      50.463   8.870  11.439  0.00  0.00    +0.000 C 
ENDBRANCH   1  16
BRANCH   9  19
ATOM     19  C   UNL     1      49.741   7.140  14.424  0.00  0.00    +0.000 C 
BRANCH  19  20
ATOM     20  C   UNL     1      49.839   7.389  15.962  0.00  0.00    +0.000 C 
ATOM     21  C   UNL     1      51.185   7.182  16.645  0.00  0.00    +0.000 C 
ATOM     22  C   UNL     1      51.455   5.754  17.112  0.00  0.00    +0.000 C 
ATOM     23  N   UNL     1      50.340   4.973  17.657  0.00  0.00    +0.000 NA
ATOM     24  C   UNL     1      49.034   5.246  17.040  0.00  0.00    +0.000 C 
ATOM     25  C   UNL     1      48.759   6.723  16.818  0.00  0.00    +0.000 C 
BRANCH  23  26
ATOM     26  C   UNL     1      50.615   3.521  17.516  0.00  0.00    +0.000 C 
BRANCH  26  27
ATOM     27  C   UNL     1      49.394   2.608  17.269  0.00  0.00    +0.000 C 
BRANCH  27  28
ATOM     28  N   UNL     1      49.523   1.820  16.036  0.00  0.00    +0.000 NA
ATOM     29  H   UNL     1      48.988   2.252  15.286  0.00  0.00    +0.000 HD
ATOM     30  H   UNL     1      50.499   1.819  15.739  0.00  0.00    +0.000 HD
ENDBRANCH  27  28
ENDBRANCH  26  27
ENDBRANCH  23  26
ENDBRANCH  19  20
ENDBRANCH   9  19
TORSDOF 7
ENDMDL
MODEL 4
REMARK VINA RESULT:    -6.173      2.111      5.844
REMARK INTER + INTRA:          -9.378
REMARK INTER:                  -8.834
REMARK INTRA:                  -0.544
REMARK UNBOUND:                -0.860
REMARK  Name = 
REMARK  10 active torsions:
REMARK  status: ('A' for Active; 'I' for Inactive)
REMARK    1  A    between atoms: C_1  and  C_2
REMARK    2  A    between atoms: C_2  and  C_3
REMARK    3  A    between atoms: C_2  and  C_4
REMARK    4  A    between atoms: C_2  and  C_5
REMARK    5  A    between atoms: C_9  and  C_10
REMARK    6  A    between atoms: N_16  and  C_17
REMARK    7  A    between atoms: C_17  and  C_18
REMARK    8  A    between atoms: N_21  and  C_22
REMARK    9  A    between atoms: C_22  and  C_23
REMARK   10  A    between atoms: C_23  and  N_24
REMARK                            x       y       z     vdW  Elec       q    Type
REMARK                         _______ _______ _______ _____ _____    ______ ____
ROOT
ATOM      1  C   UNL     1      47.628   7.638  13.636  0.00  0.00    +0.000 A 
ATOM      2  N   UNL     1      46.428   7.636  13.057  0.00  0.00    +0.000 NA
ATOM      3  C   UNL     1      46.087   6.319  12.945  0.00  0.00    +0.000 A 
ATOM      4  C   UNL     1      44.966   5.700  12.379  0.00  0.00    +0.000 A 
ATOM      5  C   UNL     1      44.953   4.301  12.376  0.00  0.00    +0.000 A 
ATOM      6  C   UNL     1      46.093   3.618  12.823  0.00  0.00    +0.000 A 
ATOM      7  N   UNL     1      47.187   4.184  13.410  0.00  0.00    +0.000 NA
ATOM      8  C   UNL     1      47.079   5.521  13.504  0.00  0.00    +0.000 A 
ATOM      9  N   UNL     1      47.835   6.399  14.241  0.00  0.00    +0.000 N 
ENDROOT
BRANCH   5  10
ATOM     10  C   UNL     1      43.765   3.487  12.016  0.00  0.00    +0.000 C 
ATOM     11  N   UNL     1      43.688   2.197  12.463  0.00  0.00    +0.000 N 
ATOM     12  O   UNL     1      42.902   3.925  11.263  0.00  0.00    +0.000 OA
ATOM     13  H   UNL     1      44.373   1.733  13.041  0.00  0.00    +0.000 HD
ATOM     14  H   UNL     1      42.905   1.646  12.131  0.00  0.00    +0.000 HD
ENDBRANCH   5  10
BRANCH   1  16
ATOM     15  C   UNL     1      49.997   8.290  13.168  0.00  0.00    +0.000 C 
ATOM     16  C   UNL     1      48.604   8.810  13.545  0.00  0.00    +0.000 C 
ATOM     17  C   UNL     1      48.687   9.485  14.940  0.00  0.00    +0.000 C 
ATOM     18  C   UNL     1      48.169   9.934  12.583  0.00  0.00    +0.000 C 
ENDBRANCH   1  16
BRANCH   9  19
ATOM     19  C   UNL     1      48.775   6.084  15.295  0.00  0.00    +0.000 C 
BRANCH  19  20
ATOM     20  C   UNL     1      48.399   5.652  16.747  0.00  0.00    +0.000 C 
ATOM     21  C   UNL     1      49.518   5.485  17.766  0.00  0.00    +0.000 C 
ATOM     22  C   UNL     1      50.163   4.102  17.790  0.00  0.00    +0.000 C 
ATOM     23  N   UNL     1      49.309   2.928  17.587  0.00  0.00    +0.000 NA
ATOM     24  C   UNL     1      48.186   3.132  16.662  0.00  0.00    +0.000 C 
ATOM     25  C   UNL     1      47.458   4.450  16.866  0.00  0.00    +0.000 C 
BRANCH  23  26
ATOM     26  C   UNL     1      50.116   1.790  17.079  0.00  0.00    +0.000 C 
BRANCH  26  27
ATOM     27  C   UNL     1      51.593   1.737  17.525  0.00  0.00    +0.000 C 
BRANCH  27  28
ATOM     28  N   UNL     1      51.962   0.432  18.091  0.00  0.00    +0.000 NA
ATOM     29  H   UNL     1      52.961   0.271  17.981  0.00  0.00    +0.000 HD
ATOM     30  H   UNL     1      51.774   0.436  19.095  0.00  0.00    +0.000 HD
ENDBRANCH  27  28
ENDBRANCH  26  27
ENDBRANCH  23  26
ENDBRANCH  19  20
ENDBRANCH   9  19
TORSDOF 7
ENDMDL
MODEL 5
REMARK VINA RESULT:    -5.858      1.361      1.908
REMARK INTER + INTRA:          -8.944
REMARK INTER:                  -8.281
REMARK INTRA:                  -0.662
REMARK UNBOUND:                -0.860
REMARK  Name = 
REMARK  10 active torsions:
REMARK  status: ('A' for Active; 'I' for Inactive)
REMARK    1  A    between atoms: C_1  and  C_2
REMARK    2  A    between atoms: C_2  and  C_3
REMARK    3  A    between atoms: C_2  and  C_4
REMARK    4  A    between atoms: C_2  and  C_5
REMARK    5  A    between atoms: C_9  and  C_10
REMARK    6  A    between atoms: N_16  and  C_17
REMARK    7  A    between atoms: C_17  and  C_18
REMARK    8  A    between atoms: N_21  and  C_22
REMARK    9  A    between atoms: C_22  and  C_23
REMARK   10  A    between atoms: C_23  and  N_24
REMARK                            x       y       z     vdW  Elec       q    Type
REMARK                         _______ _______ _______ _____ _____    ______ ____
ROOT
ATOM      1  C   UNL     1      47.633   4.284  15.251  0.00  0.00    +0.000 A 
ATOM      2  N   UNL     1      47.164   3.268  14.529  0.00  0.00    +0.000 NA
ATOM      3  C   UNL     1      46.416   3.844  13.543  0.00  0.00    +0.000 A 
ATOM      4  C   UNL     1      45.646   3.281  12.517  0.00  0.00    +0.000 A 
ATOM      5  C   UNL     1      44.943   4.169  11.696  0.00  0.00    +0.000 A 
ATOM      6  C   UNL     1      44.957   5.534  12.017  0.00  0.00    +0.000 A 
ATOM      7  N   UNL     1      45.719   6.121  12.985  0.00  0.00    +0.000 NA
ATOM      8  C   UNL     1      46.473   5.229  13.650  0.00  0.00    +0.000 A 
ATOM      9  N   UNL     1      47.530   5.453  14.498  0.00  0.00    +0.000 N 
ENDROOT
BRANCH   5  10
ATOM     10  C   UNL     1      44.256   3.767  10.444  0.00  0.00    +0.000 C 
ATOM     11  N   UNL     1      44.023   4.714   9.486  0.00  0.00    +0.000 N 
ATOM     12  O   UNL     1      43.826   2.629  10.294  0.00  0.00    +0.000 OA
ATOM     13  H   UNL     1      44.291   5.686   9.542  0.00  0.00    +0.000 HD
ATOM     14  H   UNL     1      43.480   4.424   8.680  0.00  0.00    +0.000 HD
ENDBRANCH   5  10
BRANCH   1  16
ATOM     15  C   UNL     1      48.257   2.653  17.042  0.00  0.00    +0.000 C 
ATOM     16  C   UNL     1      48.115   4.140  16.693  0.00  0.00    +0.000 C 
ATOM     17  C   UNL     1      47.050   4.770  17.630  0.00  0.00    +0.000 C 
ATOM     18  C   UNL     1      49.422   4.895  17.011  0.00  0.00    +0.000 C 
ENDBRANCH   1  16
BRANCH   9  19
ATOM     19  C   UNL     1      48.258   6.688  14.692  0.00  0.00    +0.000 C 
BRANCH  19  20
ATOM     20  C   UNL     1      49.288   7.300  13.692  0.00  0.00    +0.000 C 
ATOM     21  C   UNL     1      50.545   7.952  14.254  0.00  0.00    +0.000 C 
ATOM     22  C   UNL     1      50.395   9.428  14.614  0.00  0.00    +0.000 C 
ATOM     23  N   UNL     1      49.570  10.279  13.751  0.00  0.00    +0.000 NA
ATOM     24  C   UNL     1      48.407   9.610  13.152  0.00  0.00    +0.000 C 
ATOM     25  C   UNL     1      48.710   8.222  12.615  0.00  0.00    +0.000 C 
BRANCH  23  26
ATOM     26  C   UNL     1      49.076  11.454  14.512  0.00  0.00    +0.000 C 
BRANCH  26  27
ATOM     27  C   UNL     1      49.452  11.516  16.008  0.00  0.00    +0.000 C 
BRANCH  27  28
ATOM     28  N   UNL     1      48.273  11.516  16.885  0.00  0.00    +0.000 NA
ATOM     29  H   UNL     1      48.550  11.707  17.846  0.00  0.00    +0.000 HD
ATOM     30  H   UNL     1      47.646  12.270  16.604  0.00  0.00    +0.000 HD
ENDBRANCH  27  28
ENDBRANCH  26  27
ENDBRANCH  23  26
ENDBRANCH  19  20
ENDBRANCH   9  19
TORSDOF 7
ENDMDL
MODEL 6
REMARK VINA RESULT:    -5.815      3.285      4.891
REMARK INTER + INTRA:          -8.885
REMARK INTER:                  -8.584
REMARK INTRA:                  -0.301
REMARK UNBOUND:                -0.860
REMARK  Name = 
REMARK  10 active torsions:
REMARK  status: ('A' for Active; 'I' for Inactive)
REMARK    1  A    between atoms: C_1  and  C_2
REMARK    2  A    between atoms: C_2  and  C_3
REMARK    3  A    between atoms: C_2  and  C_4
REMARK    4  A    between atoms: C_2  and  C_5
REMARK    5  A    between atoms: C_9  and  C_10
REMARK    6  A    between atoms: N_16  and  C_17
REMARK    7  A    between atoms: C_17  and  C_18
REMARK    8  A    between atoms: N_21  and  C_22
REMARK    9  A    between atoms: C_22  and  C_23
REMARK   10  A    between atoms: C_23  and  N_24
REMARK                            x       y       z     vdW  Elec       q    Type
REMARK                         _______ _______ _______ _____ _____    ______ ____
ROOT
ATOM      1  C   UNL     1      44.673   4.285  11.116  0.00  0.00    +0.000 A 
ATOM      2  N   UNL     1      44.890   3.030  10.729  0.00  0.00    +0.000 NA
ATOM      3  C   UNL     1      45.565   3.130   9.547  0.00  0.00    +0.000 A 
ATOM      4  C   UNL     1      46.020   2.151   8.656  0.00  0.00    +0.000 A 
ATOM      5  C   UNL     1      46.636   2.602   7.484  0.00  0.00    +0.000 A 
ATOM      6  C   UNL     1      46.654   3.980   7.222  0.00  0.00    +0.000 A 
ATOM      7  N   UNL     1      46.253   4.962   8.079  0.00  0.00    +0.000 NA
ATOM      8  C   UNL     1      45.794   4.467   9.243  0.00  0.00    +0.000 A 
ATOM      9  N   UNL     1      45.544   5.124  10.423  0.00  0.00    +0.000 N 
ENDROOT
BRANCH   5  10
ATOM     10  C   UNL     1      47.360   1.717   6.538  0.00  0.00    +0.000 C 
ATOM     11  N   UNL     1      48.302   2.263   5.711  0.00  0.00    +0.000 N 
ATOM     12  O   UNL     1      47.069   0.530   6.432  0.00  0.00    +0.000 OA
ATOM     13  H   UNL     1      48.571   3.236   5.688  0.00  0.00    +0.000 HD
ATOM     14  H   UNL     1      48.717   1.646   5.023  0.00  0.00    +0.000 HD
ENDBRANCH   5  10
BRANCH   1  16
ATOM     15  C   UNL     1      44.213   5.294  13.359  0.00  0.00    +0.000 C 
ATOM     16  C   UNL     1      43.577   4.685  12.103  0.00  0.00    +0.000 C 
ATOM     17  C   UNL     1      42.797   3.407  12.510  0.00  0.00    +0.000 C 
ATOM     18  C   UNL     1      42.510   5.636  11.524  0.00  0.00    +0.000 C 
ENDBRANCH   1  16
BRANCH   9  19
ATOM     19  C   UNL     1      45.949   6.464  10.788  0.00  0.00    +0.000 C 
BRANCH  19  20
ATOM     20  C   UNL     1      46.573   6.882  12.156  0.00  0.00    +0.000 C 
ATOM     21  C   UNL     1      46.128   8.197  12.784  0.00  0.00    +0.000 C 
ATOM     22  C   UNL     1      46.919   9.423  12.334  0.00  0.00    +0.000 C 
ATOM     23  N   UNL     1      48.360   9.282  12.110  0.00  0.00    +0.000 NA
ATOM     24  C   UNL     1      48.780   7.977  11.580  0.00  0.00    +0.000 C 
ATOM     25  C   UNL     1      48.099   6.797  12.251  0.00  0.00    +0.000 C 
BRANCH  23  26
ATOM     26  C   UNL     1      48.837  10.329  11.171  0.00  0.00    +0.000 C 
BRANCH  26  27
ATOM     27  C   UNL     1      49.696  11.460  11.776  0.00  0.00    +0.000 C 
BRANCH  27  28
ATOM     28  N   UNL     1      50.674  10.961  12.753  0.00  0.00    +0.000 NA
ATOM     29  H   UNL     1      50.296  11.032  13.696  0.00  0.00    +0.000 HD
ATOM     30  H   UNL     1      50.847   9.971  12.579  0.00  0.00    +0.000 HD
ENDBRANCH  27  28
ENDBRANCH  26  27
ENDBRANCH  23  26
ENDBRANCH  19  20
ENDBRANCH   9  19
TORSDOF 7
ENDMDL
MODEL 7
REMARK VINA RESULT:    -5.721      1.669      2.881
REMARK INTER + INTRA:          -8.756
REMARK INTER:                  -8.469
REMARK INTRA:                  -0.287
REMARK UNBOUND:                -0.860
REMARK  Name = 
REMARK  10 active torsions:
REMARK  status: ('A' for Active; 'I' for Inactive)
REMARK    1  A    between atoms: C_1  and  C_2
REMARK    2  A    between atoms: C_2  and  C_3
REMARK    3  A    between atoms: C_2  and  C_4
REMARK    4  A    between atoms: C_2  and  C_5
REMARK    5  A    between atoms: C_9  and  C_10
REMARK    6  A    between atoms: N_16  and  C_17
REMARK    7  A    between atoms: C_17  and  C_18
REMARK    8  A    between atoms: N_21  and  C_22
REMARK    9  A    between atoms: C_22  and  C_23
REMARK   10  A    between atoms: C_23  and  N_24
REMARK                            x       y       z     vdW  Elec       q    Type
REMARK                         _______ _______ _______ _____ _____    ______ ____
ROOT
ATOM      1  C   UNL     1      47.651   4.289  15.178  0.00  0.00    +0.000 A 
ATOM      2  N   UNL     1      47.214   3.273  14.437  0.00  0.00    +0.000 NA
ATOM      3  C   UNL     1      46.425   3.841  13.479  0.00  0.00    +0.000 A 
ATOM      4  C   UNL     1      45.662   3.271  12.452  0.00  0.00    +0.000 A 
ATOM      5  C   UNL     1      44.906   4.149  11.667  0.00  0.00    +0.000 A 
ATOM      6  C   UNL     1      44.865   5.505  12.025  0.00  0.00    +0.000 A 
ATOM      7  N   UNL     1      45.618   6.099  12.995  0.00  0.00    +0.000 NA
ATOM      8  C   UNL     1      46.422   5.224  13.623  0.00  0.00    +0.000 A 
ATOM      9  N   UNL     1      47.483   5.472  14.460  0.00  0.00    +0.000 N 
ENDROOT
BRANCH   5  10
ATOM     10  C   UNL     1      44.215   3.750  10.416  0.00  0.00    +0.000 C 
ATOM     11  N   UNL     1      43.906   4.714   9.497  0.00  0.00    +0.000 N 
ATOM     12  O   UNL     1      43.848   2.594  10.235  0.00  0.00    +0.000 OA
ATOM     13  H   UNL     1      44.118   5.697   9.581  0.00  0.00    +0.000 HD
ATOM     14  H   UNL     1      43.362   4.420   8.693  0.00  0.00    +0.000 HD
ENDBRANCH   5  10
BRANCH   1  16
ATOM     15  C   UNL     1      48.454   2.649  16.888  0.00  0.00    +0.000 C 
ATOM     16  C   UNL     1      48.165   4.129  16.608  0.00  0.00    +0.000 C 
ATOM     17  C   UNL     1      47.057   4.611  17.582  0.00  0.00    +0.000 C 
ATOM     18  C   UNL     1      49.397   4.992  16.947  0.00  0.00    +0.000 C 
ENDBRANCH   1  16
BRANCH   9  19
ATOM     19  C   UNL     1      48.160   6.733  14.675  0.00  0.00    +0.000 C 
BRANCH  19  20
ATOM     20  C   UNL     1      48.177   7.935  13.679  0.00  0.00    +0.000 C 
ATOM     21  C   UNL     1      48.638   7.685  12.249  0.00  0.00    +0.000 C 
ATOM     22  C   UNL     1      50.144   7.807  12.030  0.00  0.00    +0.000 C 
ATOM     23  N   UNL     1      50.876   8.845  12.761  0.00  0.00    +0.000 NA
ATOM     24  C   UNL     1      50.365   9.131  14.109  0.00  0.00    +0.000 C 
ATOM     25  C   UNL     1      48.850   9.214  14.184  0.00  0.00    +0.000 C 
BRANCH  23  26
ATOM     26  C   UNL     1      52.307   8.472  12.887  0.00  0.00    +0.000 C 
BRANCH  26  27
ATOM     27  C   UNL     1      52.903   8.492  14.311  0.00  0.00    +0.000 C 
BRANCH  27  28
ATOM     28  N   UNL     1      53.467   7.192  14.703  0.00  0.00    +0.000 NA
ATOM     29  H   UNL     1      53.198   6.966  15.658  0.00  0.00    +0.000 HD
ATOM     30  H   UNL     1      53.076   6.463  14.106  0.00  0.00    +0.000 HD
ENDBRANCH  27  28
ENDBRANCH  26  27
ENDBRANCH  23  26
ENDBRANCH  19  20
ENDBRANCH   9  19
TORSDOF 7
ENDMDL
MODEL 8
REMARK VINA RESULT:    -5.582      2.360      3.695
REMARK INTER + INTRA:          -8.563
REMARK INTER:                  -7.694
REMARK INTRA:                  -0.869
REMARK UNBOUND:                -0.860
REMARK  Name = 
REMARK  10 active torsions:
REMARK  status: ('A' for Active; 'I' for Inactive)
REMARK    1  A    between atoms: C_1  and  C_2
REMARK    2  A    between atoms: C_2  and  C_3
REMARK    3  A    between atoms: C_2  and  C_4
REMARK    4  A    between atoms: C_2  and  C_5
REMARK    5  A    between atoms: C_9  and  C_10
REMARK    6  A    between atoms: N_16  and  C_17
REMARK    7  A    between atoms: C_17  and  C_18
REMARK    8  A    between atoms: N_21  and  C_22
REMARK    9  A    between atoms: C_22  and  C_23
REMARK   10  A    between atoms: C_23  and  N_24
REMARK                            x       y       z     vdW  Elec       q    Type
REMARK                         _______ _______ _______ _____ _____    ______ ____
ROOT
ATOM      1  C   UNL     1      48.231   6.496  14.568  0.00  0.00    +0.000 A 
ATOM      2  N   UNL     1      47.876   5.219  14.437  0.00  0.00    +0.000 NA
ATOM      3  C   UNL     1      46.706   5.243  13.735  0.00  0.00    +0.000 A 
ATOM      4  C   UNL     1      45.844   4.212  13.338  0.00  0.00    +0.000 A 
ATOM      5  C   UNL     1      44.675   4.591  12.668  0.00  0.00    +0.000 A 
ATOM      6  C   UNL     1      44.385   5.957  12.544  0.00  0.00    +0.000 A 
ATOM      7  N   UNL     1      45.213   6.986  12.887  0.00  0.00    +0.000 NA
ATOM      8  C   UNL     1      46.377   6.552  13.402  0.00  0.00    +0.000 A 
ATOM      9  N   UNL     1      47.538   7.252  13.625  0.00  0.00    +0.000 N 
ENDROOT
BRANCH   5  10
ATOM     10  C   UNL     1      43.764   3.633  11.995  0.00  0.00    +0.000 C 
ATOM     11  N   UNL     1      43.754   2.330  12.405  0.00  0.00    +0.000 N 
ATOM     12  O   UNL     1      43.088   3.974  11.030  0.00  0.00    +0.000 OA
ATOM     13  H   UNL     1      44.313   1.945  13.153  0.00  0.00    +0.000 HD
ATOM     14  H   UNL     1      43.181   1.687  11.870  0.00  0.00    +0.000 HD
ENDBRANCH   5  10
BRANCH   1  16
ATOM     15  C   UNL     1      49.305   5.945  16.760  0.00  0.00    +0.000 C 
ATOM     16  C   UNL     1      49.187   6.997  15.649  0.00  0.00    +0.000 C 
ATOM     17  C   UNL     1      48.599   8.298  16.257  0.00  0.00    +0.000 C 
ATOM     18  C   UNL     1      50.586   7.396  15.134  0.00  0.00    +0.000 C 
ENDBRANCH   1  16
BRANCH   9  19
ATOM     19  C   UNL     1      47.882   8.567  13.129  0.00  0.00    +0.000 C 
BRANCH  19  20
ATOM     20  C   UNL     1      48.525   8.873  11.740  0.00  0.00    +0.000 C 
ATOM     21  C   UNL     1      49.424   7.817  11.108  0.00  0.00    +0.000 C 
ATOM     22  C   UNL     1      50.891   7.892  11.523  0.00  0.00    +0.000 C 
ATOM     23  N   UNL     1      51.499   9.213  11.712  0.00  0.00    +0.000 NA
ATOM     24  C   UNL     1      50.594  10.241  12.245  0.00  0.00    +0.000 C 
ATOM     25  C   UNL     1      49.216  10.233  11.606  0.00  0.00    +0.000 C 
BRANCH  23  26
ATOM     26  C   UNL     1      52.664   9.115  12.625  0.00  0.00    +0.000 C 
BRANCH  26  27
ATOM     27  C   UNL     1      53.738   8.065  12.265  0.00  0.00    +0.000 C 
BRANCH  27  28
ATOM     28  N   UNL     1      54.158   7.269  13.426  0.00  0.00    +0.000 NA
ATOM     29  H   UNL     1      54.818   7.797  13.993  0.00  0.00    +0.000 HD
ATOM     30  H   UNL     1      53.346   7.083  14.017  0.00  0.00    +0.000 HD
ENDBRANCH  27  28
ENDBRANCH  26  27
ENDBRANCH  23  26
ENDBRANCH  19  20
ENDBRANCH   9  19
TORSDOF 7
ENDMDL
MODEL 9
REMARK VINA RESULT:    -5.485      2.085      5.436
REMARK INTER + INTRA:          -8.429
REMARK INTER:                  -7.675
REMARK INTRA:                  -0.754
REMARK UNBOUND:                -0.860
REMARK  Name = 
REMARK  10 active torsions:
REMARK  status: ('A' for Active; 'I' for Inactive)
REMARK    1  A    between atoms: C_1  and  C_2
REMARK    2  A    between atoms: C_2  and  C_3
REMARK    3  A    between atoms: C_2  and  C_4
REMARK    4  A    between atoms: C_2  and  C_5
REMARK    5  A    between atoms: C_9  and  C_10
REMARK    6  A    between atoms: N_16  and  C_17
REMARK    7  A    between atoms: C_17  and  C_18
REMARK    8  A    between atoms: N_21  and  C_22
REMARK    9  A    between atoms: C_22  and  C_23
REMARK   10  A    between atoms: C_23  and  N_24
REMARK                            x       y       z     vdW  Elec       q    Type
REMARK                         _______ _______ _______ _____ _____    ______ ____
ROOT
ATOM      1  C   UNL     1      49.047   8.473  13.343  0.00  0.00    +0.000 A 
ATOM      2  N   UNL     1      48.295   8.135  12.298  0.00  0.00    +0.000 NA
ATOM      3  C   UNL     1      47.642   6.998  12.679  0.00  0.00    +0.000 A 
ATOM      4  C   UNL     1      46.755   6.164  11.987  0.00  0.00    +0.000 A 
ATOM      5  C   UNL     1      46.304   5.024  12.661  0.00  0.00    +0.000 A 
ATOM      6  C   UNL     1      46.850   4.729  13.919  0.00  0.00    +0.000 A 
ATOM      7  N   UNL     1      47.688   5.531  14.637  0.00  0.00    +0.000 NA
ATOM      8  C   UNL     1      47.977   6.674  13.989  0.00  0.00    +0.000 A 
ATOM      9  N   UNL     1      48.564   7.817  14.475  0.00  0.00    +0.000 N 
ENDROOT
BRANCH   5  10
ATOM     10  C   UNL     1      45.209   4.153  12.168  0.00  0.00    +0.000 C 
ATOM     11  N   UNL     1      45.223   2.826  12.496  0.00  0.00    +0.000 N 
ATOM     12  O   UNL     1      44.348   4.585  11.411  0.00  0.00    +0.000 OA
ATOM     13  H   UNL     1      45.918   2.368  13.068  0.00  0.00    +0.000 HD
ATOM     14  H   UNL     1      44.507   2.245  12.076  0.00  0.00    +0.000 HD
ENDBRANCH   5  10
BRANCH   1  16
ATOM     15  C   UNL     1      51.535   8.569  13.589  0.00  0.00    +0.000 C 
ATOM     16  C   UNL     1      50.277   9.374  13.239  0.00  0.00    +0.000 C 
ATOM     17  C   UNL     1      50.125  10.529  14.263  0.00  0.00    +0.000 C 
ATOM     18  C   UNL     1      50.446  10.072  11.874  0.00  0.00    +0.000 C 
ENDBRANCH   1  16
BRANCH   9  19
ATOM     19  C   UNL     1      48.789   8.173  15.858  0.00  0.00    +0.000 C 
BRANCH  19  20
ATOM     20  C   UNL     1      49.996   7.706  16.731  0.00  0.00    +0.000 C 
ATOM     21  C   UNL     1      50.651   6.370  16.406  0.00  0.00    +0.000 C 
ATOM     22  C   UNL     1      50.014   5.161  17.086  0.00  0.00    +0.000 C 
ATOM     23  N   UNL     1      49.521   5.308  18.459  0.00  0.00    +0.000 NA
ATOM     24  C   UNL     1      48.966   6.631  18.778  0.00  0.00    +0.000 C 
ATOM     25  C   UNL     1      49.797   7.787  18.247  0.00  0.00    +0.000 C 
BRANCH  23  26
ATOM     26  C   UNL     1      48.472   4.296  18.738  0.00  0.00    +0.000 C 
BRANCH  26  27
ATOM     27  C   UNL     1      47.335   4.175  17.699  0.00  0.00    +0.000 C 
BRANCH  27  28
ATOM     28  N   UNL     1      46.658   2.873  17.757  0.00  0.00    +0.000 NA
ATOM     29  H   UNL     1      45.651   2.996  17.669  0.00  0.00    +0.000 HD
ATOM     30  H   UNL     1      46.955   2.304  16.963  0.00  0.00    +0.000 HD
ENDBRANCH  27  28
ENDBRANCH  26  27
ENDBRANCH  23  26
ENDBRANCH  19  20
ENDBRANCH   9  19
TORSDOF 7
ENDMDL
