MODEL 1
REMARK VINA RESULT:    -7.604      0.000      0.000
REMARK INTER + INTRA:         -11.301
REMARK INTER:                 -10.271
REMARK INTRA:                  -1.030
REMARK UNBOUND:                -1.030
REMARK  Name = 
REMARK  8 active torsions:
REMARK  status: ('A' for Active; 'I' for Inactive)
REMARK    1  A    between atoms: C_1  and  C_2
REMARK    2  A    between atoms: C_7  and  C_8
REMARK    3  A    between atoms: N_10  and  C_11
REMARK    4  A    between atoms: C_11  and  C_12
REMARK    5  A    between atoms: C_11  and  C_13
REMARK    6  A    between atoms: C_16  and  C_17
REMARK    7  A    between atoms: C_17  and  N_18
REMARK    8  A    between atoms: C_19  and  C_21
REMARK                            x       y       z     vdW  Elec       q    Type
REMARK                         _______ _______ _______ _____ _____    ______ ____
ROOT
ATOM      1  C   UNL     1      46.770   7.967  13.474  0.00  0.00    +0.000 C 
ATOM      2  C   UNL     1      46.974   9.045  12.403  0.00  0.00    +0.000 C 
ENDROOT
BRANCH   1   3
ATOM      3  C   UNL     1      45.988   6.792  12.883  0.00  0.00    +0.000 A 
ATOM      4  C   UNL     1      44.964   7.030  11.948  0.00  0.00    +0.000 A 
ATOM      5  C   UNL     1      44.268   5.971  11.341  0.00  0.00    +0.000 A 
ATOM      6  C   UNL     1      44.569   4.642  11.662  0.00  0.00    +0.000 A 
ATOM      7  C   UNL     1      45.590   4.400  12.584  0.00  0.00    +0.000 A 
ATOM      8  C   UNL     1      46.289   5.455  13.175  0.00  0.00    +0.000 A 
BRANCH   6   9
ATOM      9  C   UNL     1      43.839   3.474  11.056  0.00  0.00    +0.000 C 
BRANCH   9  10
ATOM     10  N   UNL     1      44.672   2.666  10.206  0.00  0.00    +0.000 N 
ATOM     11  C   UNL     1      44.984   3.068   8.928  0.00  0.00    +0.000 C 
ATOM     12  O   UNL     1      44.540   4.095   8.421  0.00  0.00    +0.000 OA
ATOM     13  H   UNL     1      45.080   1.794  10.533  0.00  0.00    +0.000 HD
BRANCH  11  14
ATOM     14  C   UNL     1      45.893   2.178   8.233  0.00  0.00    +0.000 A 
ATOM     15  N   UNL     1      45.931   0.863   8.375  0.00  0.00    +0.000 NA
ATOM     16  C   UNL     1      46.943   0.436   7.551  0.00  0.00    +0.000 A 
ATOM     17  C   UNL     1      47.531   1.499   6.906  0.00  0.00    +0.000 A 
ATOM     18  N   UNL     1      46.849   2.599   7.341  0.00  0.00    +0.000 N 
ATOM     19  H   UNL     1      47.001   3.565   7.081  0.00  0.00    +0.000 HD
ENDBRANCH  11  14
ENDBRANCH   9  10
ENDBRANCH   6   9
ENDBRANCH   1   3
BRANCH   1  22
ATOM     20  C   UNL     1      48.682   8.285  15.053  0.00  0.00    +0.000 C 
ATOM     21  O   UNL     1      48.172   9.286  15.549  0.00  0.00    +0.000 OA
ATOM     22  N   UNL     1      48.047   7.570  14.065  0.00  0.00    +0.000 N 
ATOM     23  H   UNL     1      48.557   6.825  13.607  0.00  0.00    +0.000 HD
BRANCH  20  30
ATOM     24  C   UNL     1      52.281   3.434  18.338  0.00  0.00    +0.000 C 
ATOM     25  C   UNL     1      51.701   4.596  17.583  0.00  0.00    +0.000 A 
ATOM     26  N   UNL     1      52.443   5.566  17.148  0.00  0.00    +0.000 NA
ATOM     27  C   UNL     1      51.769   6.545  16.484  0.00  0.00    +0.000 A 
ATOM     28  S   UNL     1      52.587   7.895  15.850  0.00  0.00    +0.000 S 
ATOM     29  C   UNL     1      51.136   8.564  15.250  0.00  0.00    +0.000 A 
ATOM     30  C   UNL     1      50.005   7.797  15.508  0.00  0.00    +0.000 A 
ATOM     31  C   UNL     1      50.408   6.600  16.225  0.00  0.00    +0.000 A 
ATOM     32  C   UNL     1      49.635   5.476  16.705  0.00  0.00    +0.000 A 
ATOM     33  O   UNL     1      48.435   5.330  16.505  0.00  0.00    +0.000 OA
ATOM     34  N   UNL     1      50.346   4.531  17.397  0.00  0.00    +0.000 N 
ATOM     35  H   UNL     1      49.814   3.741  17.737  0.00  0.00    +0.000 HD
ENDBRANCH  20  30
ENDBRANCH   1  22
TORSDOF 6
ENDMDL
MODEL 2
REMARK VINA RESULT:    -7.570      1.801      2.654
REMARK INTER + INTRA:         -11.256
REMARK INTER:                 -10.204
REMARK INTRA:                  -1.052
REMARK UNBOUND:                -1.030
REMARK  Name = 
REMARK  8 active torsions:
REMARK  status: ('A' for Active; 'I' for Inactive)
REMARK    1  A    between atoms: C_1  and  C_2
REMARK    2  A    between atoms: C_7  and  C_8
REMARK    3  A    between atoms: N_10  and  C_11
REMARK    4  A    between atoms: C_11  and  C_12
REMARK    5  A    between atoms: C_11  and  C_13
REMARK    6  A    between atoms: C_16  and  C_17
REMARK    7  A    between atoms: C_17  and  N_18
REMARK    8  A    between atoms: C_19  and  C_21
REMARK                            x       y       z     vdW  Elec       q    Type
REMARK                         _______ _______ _______ _____ _____    ______ ____
ROOT
ATOM      1  C   UNL     1      47.917   6.804  14.911  0.00  0.00    +0.000 C 
ATOM      2  C   UNL     1      48.332   8.046  14.112  0.00  0.00    +0.000 C 
ENDROOT
BRANCH   1   3
ATOM      3  C   UNL     1      47.092   5.871  14.023  0.00  0.00    +0.000 A 
ATOM      4  C   UNL     1      47.157   4.479  14.218  0.00  0.00    +0.000 A 
ATOM      5  C   UNL     1      46.367   3.597  13.460  0.00  0.00    +0.000 A 
ATOM      6  C   UNL     1      45.498   4.084  12.477  0.00  0.00    +0.000 A 
ATOM      7  C   UNL     1      45.424   5.465  12.284  0.00  0.00    +0.000 A 
ATOM      8  C   UNL     1      46.201   6.339  13.049  0.00  0.00    +0.000 A 
BRANCH   6   9
ATOM      9  C   UNL     1      44.647   3.181  11.625  0.00  0.00    +0.000 C 
BRANCH   9  10
ATOM     10  N   UNL     1      45.292   2.782  10.403  0.00  0.00    +0.000 N 
ATOM     11  C   UNL     1      44.994   3.396   9.209  0.00  0.00    +0.000 C 
ATOM     12  O   UNL     1      44.137   4.270   9.100  0.00  0.00    +0.000 OA
ATOM     13  H   UNL     1      46.009   2.061  10.390  0.00  0.00    +0.000 HD
BRANCH  11  14
ATOM     14  C   UNL     1      45.785   2.928   8.089  0.00  0.00    +0.000 A 
ATOM     15  N   UNL     1      46.019   3.612   6.981  0.00  0.00    +0.000 NA
ATOM     16  C   UNL     1      46.788   2.786   6.198  0.00  0.00    +0.000 A 
ATOM     17  C   UNL     1      47.021   1.588   6.831  0.00  0.00    +0.000 A 
ATOM     18  N   UNL     1      46.386   1.693   8.035  0.00  0.00    +0.000 N 
ATOM     19  H   UNL     1      46.338   1.002   8.772  0.00  0.00    +0.000 HD
ENDBRANCH  11  14
ENDBRANCH   9  10
ENDBRANCH   6   9
ENDBRANCH   1   3
BRANCH   1  22
ATOM     20  C   UNL     1      49.138   5.745  16.818  0.00  0.00    +0.000 C 
ATOM     21  O   UNL     1      48.169   5.852  17.564  0.00  0.00    +0.000 OA
ATOM     22  N   UNL     1      49.082   6.153  15.506  0.00  0.00    +0.000 N 
ATOM     23  H   UNL     1      49.938   6.153  14.966  0.00  0.00    +0.000 HD
BRANCH  20  30
ATOM     24  C   UNL     1      52.877   0.090  17.963  0.00  0.00    +0.000 C 
ATOM     25  C   UNL     1      52.246   1.442  17.792  0.00  0.00    +0.000 A 
ATOM     26  N   UNL     1      52.856   2.530  18.146  0.00  0.00    +0.000 NA
ATOM     27  C   UNL     1      52.151   3.674  17.929  0.00  0.00    +0.000 A 
ATOM     28  S   UNL     1      52.800   5.192  18.340  0.00  0.00    +0.000 S 
ATOM     29  C   UNL     1      51.398   6.001  17.800  0.00  0.00    +0.000 A 
ATOM     30  C   UNL     1      50.411   5.159  17.300  0.00  0.00    +0.000 A 
ATOM     31  C   UNL     1      50.887   3.790  17.372  0.00  0.00    +0.000 A 
ATOM     32  C   UNL     1      50.268   2.547  16.965  0.00  0.00    +0.000 A 
ATOM     33  O   UNL     1      49.186   2.470  16.397  0.00  0.00    +0.000 OA
ATOM     34  N   UNL     1      50.996   1.417  17.233  0.00  0.00    +0.000 N 
ATOM     35  H   UNL     1      50.571   0.542  16.953  0.00  0.00    +0.000 HD
ENDBRANCH  20  30
ENDBRANCH   1  22
TORSDOF 6
ENDMDL
MODEL 3
REMARK VINA RESULT:    -7.506      2.272      2.670
REMARK INTER + INTRA:         -11.168
REMARK INTER:                 -10.158
REMARK INTRA:                  -1.011
REMARK UNBOUND:                -1.030
REMARK  Name = 
REMARK  8 active torsions:
REMARK  status: ('A' for Active; 'I' for Inactive)
REMARK    1  A    between atoms: C_1  and  C_2
REMARK    2  A    between atoms: C_7  and  C_8
REMARK    3  A    between atoms: N_10  and  C_11
REMARK    4  A    between atoms: C_11  and  C_12
REMARK    5  A    between atoms: C_11  and  C_13
REMARK    6  A    between atoms: C_16  and  C_17
REMARK    7  A    between atoms: C_17  and  N_18
REMARK    8  A    between atoms: C_19  and  C_21
REMARK                            x       y       z     vdW  Elec       q    Type
REMARK                         _______ _______ _______ _____ _____    ______ ____
ROOT
ATOM      1  C   UNL     1      47.954   7.985  13.543  0.00  0.00    +0.000 C 
ATOM      2  C   UNL     1      49.399   7.775  13.076  0.00  0.00    +0.000 C 
ENDROOT
BRANCH   1   3
ATOM      3  C   UNL     1      47.037   6.970  12.858  0.00  0.00    +0.000 A 
ATOM      4  C   UNL     1      46.972   5.649  13.337  0.00  0.00    +0.000 A 
ATOM      5  C   UNL     1      46.096   4.708  12.769  0.00  0.00    +0.000 A 
ATOM      6  C   UNL     1      45.268   5.060  11.696  0.00  0.00    +0.000 A 
ATOM      7  C   UNL     1      45.324   6.372  11.222  0.00  0.00    +0.000 A 
ATOM      8  C   UNL     1      46.186   7.309  11.798  0.00  0.00    +0.000 A 
BRANCH   6   9
ATOM      9  C   UNL     1      44.329   4.084  11.040  0.00  0.00    +0.000 C 
BRANCH   9  10
ATOM     10  N   UNL     1      45.001   3.127  10.204  0.00  0.00    +0.000 N 
ATOM     11  C   UNL     1      45.258   3.399   8.879  0.00  0.00    +0.000 C 
ATOM     12  O   UNL     1      44.893   4.431   8.323  0.00  0.00    +0.000 OA
ATOM     13  H   UNL     1      45.335   2.240  10.570  0.00  0.00    +0.000 HD
BRANCH  11  14
ATOM     14  C   UNL     1      46.008   2.363   8.198  0.00  0.00    +0.000 A 
ATOM     15  N   UNL     1      45.910   1.065   8.439  0.00  0.00    +0.000 NA
ATOM     16  C   UNL     1      46.805   0.467   7.586  0.00  0.00    +0.000 A 
ATOM     17  C   UNL     1      47.458   1.407   6.823  0.00  0.00    +0.000 A 
ATOM     18  N   UNL     1      46.937   2.607   7.215  0.00  0.00    +0.000 N 
ATOM     19  H   UNL     1      47.176   3.527   6.871  0.00  0.00    +0.000 HD
ENDBRANCH  11  14
ENDBRANCH   9  10
ENDBRANCH   6   9
ENDBRANCH   1   3
BRANCH   1  22
ATOM     20  C   UNL     1      48.278   8.980  15.814  0.00  0.00    +0.000 C 
ATOM     21  O   UNL     1      48.696  10.035  15.347  0.00  0.00    +0.000 OA
ATOM     22  N   UNL     1      47.866   7.949  15.001  0.00  0.00    +0.000 N 
ATOM     23  H   UNL     1      47.641   7.060  15.429  0.00  0.00    +0.000 HD
BRANCH  20  30
ATOM     24  C   UNL     1      48.708   4.621  21.114  0.00  0.00    +0.000 C 
ATOM     25  C   UNL     1      48.570   5.736  20.117  0.00  0.00    +0.000 A 
ATOM     26  N   UNL     1      48.259   6.942  20.480  0.00  0.00    +0.000 NA
ATOM     27  C   UNL     1      48.171   7.838  19.459  0.00  0.00    +0.000 A 
ATOM     28  S   UNL     1      47.768   9.464  19.756  0.00  0.00    +0.000 S 
ATOM     29  C   UNL     1      47.857   9.849  18.095  0.00  0.00    +0.000 A 
ATOM     30  C   UNL     1      48.189   8.774  17.279  0.00  0.00    +0.000 A 
ATOM     31  C   UNL     1      48.386   7.600  18.111  0.00  0.00    +0.000 A 
ATOM     32  C   UNL     1      48.762   6.246  17.768  0.00  0.00    +0.000 A 
ATOM     33  O   UNL     1      49.054   5.878  16.637  0.00  0.00    +0.000 OA
ATOM     34  N   UNL     1      48.805   5.368  18.820  0.00  0.00    +0.000 N 
ATOM     35  H   UNL     1      49.067   4.418  18.590  0.00  0.00    +0.000 HD
ENDBRANCH  20  30
ENDBRANCH   1  22
TORSDOF 6
ENDMDL
MODEL 4
REMARK VINA RESULT:    -7.443      2.817      3.771
REMARK INTER + INTRA:         -11.084
REMARK INTER:                  -9.925
REMARK INTRA:                  -1.159
REMARK UNBOUND:                -1.030
REMARK  Name = 
REMARK  8 active torsions:
REMARK  status: ('A' for Active; 'I' for Inactive)
REMARK    1  A    between atoms: C_1  and  C_2
REMARK    2  A    between atoms: C_7  and  C_8
REMARK    3  A    between atoms: N_10  and  C_11
REMARK    4  A    between atoms: C_11  and  C_12
REMARK    5  A    between atoms: C_11  and  C_13
REMARK    6  A    between atoms: C_16  and  C_17
REMARK    7  A    between atoms: C_17  and  N_18
REMARK    8  A    between atoms: C_19  and  C_21
REMARK                            x       y       z     vdW  Elec       q    Type
REMARK                         _______ _______ _______ _____ _____    ______ ____
ROOT
ATOM      1  C   UNL     1      47.670   4.901  15.205  0.00  0.00    +0.000 C 
ATOM      2  C   UNL     1      47.144   3.978  16.311  0.00  0.00    +0.000 C 
ENDROOT
BRANCH   1   3
ATOM      3  C   UNL     1      46.816   4.737  13.946  0.00  0.00    +0.000 A 
ATOM      4  C   UNL     1      46.487   3.449  13.484  0.00  0.00    +0.000 A 
ATOM      5  C   UNL     1      45.654   3.264  12.367  0.00  0.00    +0.000 A 
ATOM      6  C   UNL     1      45.137   4.364  11.673  0.00  0.00    +0.000 A 
ATOM      7  C   UNL     1      45.455   5.644  12.131  0.00  0.00    +0.000 A 
ATOM      8  C   UNL     1      46.271   5.824  13.251  0.00  0.00    +0.000 A 
BRANCH   6   9
ATOM      9  C   UNL     1      44.258   4.219  10.459  0.00  0.00    +0.000 C 
BRANCH   9  10
ATOM     10  N   UNL     1      44.889   3.496   9.388  0.00  0.00    +0.000 N 
ATOM     11  C   UNL     1      45.773   4.117   8.535  0.00  0.00    +0.000 C 
ATOM     12  O   UNL     1      46.035   5.315   8.599  0.00  0.00    +0.000 OA
ATOM     13  H   UNL     1      44.728   2.502   9.248  0.00  0.00    +0.000 HD
BRANCH  11  14
ATOM     14  C   UNL     1      46.375   3.231   7.560  0.00  0.00    +0.000 A 
ATOM     15  N   UNL     1      46.598   1.939   7.736  0.00  0.00    +0.000 NA
ATOM     16  C   UNL     1      47.193   1.509   6.576  0.00  0.00    +0.000 A 
ATOM     17  C   UNL     1      47.340   2.547   5.687  0.00  0.00    +0.000 A 
ATOM     18  N   UNL     1      46.809   3.634   6.320  0.00  0.00    +0.000 N 
ATOM     19  H   UNL     1      46.740   4.582   5.971  0.00  0.00    +0.000 HD
ENDBRANCH  11  14
ENDBRANCH   9  10
ENDBRANCH   6   9
ENDBRANCH   1   3
BRANCH   1  22
ATOM     20  C   UNL     1      48.840   7.095  15.466  0.00  0.00    +0.000 C 
ATOM     21  O   UNL     1      49.807   6.714  14.812  0.00  0.00    +0.000 OA
ATOM     22  N   UNL     1      47.749   6.284  15.672  0.00  0.00    +0.000 N 
ATOM     23  H   UNL     1      47.031   6.597  16.313  0.00  0.00    +0.000 HD
BRANCH  20  30
ATOM     24  C   UNL     1      47.196  11.067  20.832  0.00  0.00    +0.000 C 
ATOM     25  C   UNL     1      47.632  10.396  19.560  0.00  0.00    +0.000 A 
ATOM     26  N   UNL     1      48.127  11.068  18.568  0.00  0.00    +0.000 NA
ATOM     27  C   UNL     1      48.473  10.317  17.488  0.00  0.00    +0.000 A 
ATOM     28  S   UNL     1      49.133  11.038  16.096  0.00  0.00    +0.000 S 
ATOM     29  C   UNL     1      49.253   9.532  15.302  0.00  0.00    +0.000 A 
ATOM     30  C   UNL     1      48.804   8.454  16.056  0.00  0.00    +0.000 A 
ATOM     31  C   UNL     1      48.363   8.942  17.351  0.00  0.00    +0.000 A 
ATOM     32  C   UNL     1      47.835   8.239  18.500  0.00  0.00    +0.000 A 
ATOM     33  O   UNL     1      47.734   7.022  18.576  0.00  0.00    +0.000 OA
ATOM     34  N   UNL     1      47.468   9.036  19.553  0.00  0.00    +0.000 N 
ATOM     35  H   UNL     1      47.097   8.554  20.361  0.00  0.00    +0.000 HD
ENDBRANCH  20  30
ENDBRANCH   1  22
TORSDOF 6
ENDMDL
MODEL 5
REMARK VINA RESULT:    -7.424      4.302      9.578
REMARK INTER + INTRA:         -11.058
REMARK INTER:                  -9.987
REMARK INTRA:                  -1.071
REMARK UNBOUND:                -1.030
REMARK  Name = 
REMARK  8 active torsions:
REMARK  status: ('A' for Active; 'I' for Inactive)
REMARK    1  A    between atoms: C_1  and  C_2
REMARK    2  A    between atoms: C_7  and  C_8
REMARK    3  A    between atoms: N_10  and  C_11
REMARK    4  A    between atoms: C_11  and  C_12
REMARK    5  A    between atoms: C_11  and  C_13
REMARK    6  A    between atoms: C_16  and  C_17
REMARK    7  A    between atoms: C_17  and  N_18
REMARK    8  A    between atoms: C_19  and  C_21
REMARK                            x       y       z     vdW  Elec       q    Type
REMARK                         _______ _______ _______ _____ _____    ______ ____
ROOT
ATOM      1  C   UNL     1      49.200   5.050  17.824  0.00  0.00    +0.000 C 
ATOM      2  C   UNL     1      48.275   4.715  19.000  0.00  0.00    +0.000 C 
ENDROOT
BRANCH   1   3
ATOM      3  C   UNL     1      50.282   3.977  17.696  0.00  0.00    +0.000 A 
ATOM      4  C   UNL     1      51.629   4.307  17.936  0.00  0.00    +0.000 A 
ATOM      5  C   UNL     1      52.640   3.332  17.886  0.00  0.00    +0.000 A 
ATOM      6  C   UNL     1      52.334   2.000  17.582  0.00  0.00    +0.000 A 
ATOM      7  C   UNL     1      50.998   1.667  17.350  0.00  0.00    +0.000 A 
ATOM      8  C   UNL     1      49.993   2.635  17.414  0.00  0.00    +0.000 A 
BRANCH   6   9
ATOM      9  C   UNL     1      53.382   0.924  17.496  0.00  0.00    +0.000 C 
BRANCH   9  10
ATOM     10  N   UNL     1      53.058  -0.244  18.270  0.00  0.00    +0.000 N 
ATOM     11  C   UNL     1      53.992  -1.229  18.493  0.00  0.00    +0.000 C 
ATOM     12  O   UNL     1      55.123  -1.202  18.014  0.00  0.00    +0.000 OA
ATOM     13  H   UNL     1      52.145  -0.362  18.701  0.00  0.00    +0.000 HD
BRANCH  11  14
ATOM     14  C   UNL     1      53.528  -2.299  19.353  0.00  0.00    +0.000 A 
ATOM     15  N   UNL     1      53.469  -2.246  20.674  0.00  0.00    +0.000 NA
ATOM     16  C   UNL     1      52.994  -3.473  21.067  0.00  0.00    +0.000 A 
ATOM     17  C   UNL     1      52.767  -4.283  19.980  0.00  0.00    +0.000 A 
ATOM     18  N   UNL     1      53.102  -3.523  18.896  0.00  0.00    +0.000 N 
ATOM     19  H   UNL     1      53.065  -3.786  17.920  0.00  0.00    +0.000 HD
ENDBRANCH  11  14
ENDBRANCH   9  10
ENDBRANCH   6   9
ENDBRANCH   1   3
BRANCH   1  22
ATOM     20  C   UNL     1      48.843   6.051  15.561  0.00  0.00    +0.000 C 
ATOM     21  O   UNL     1      49.931   6.621  15.586  0.00  0.00    +0.000 OA
ATOM     22  N   UNL     1      48.432   5.244  16.595  0.00  0.00    +0.000 N 
ATOM     23  H   UNL     1      47.483   4.892  16.583  0.00  0.00    +0.000 HD
BRANCH  20  30
ATOM     24  C   UNL     1      44.541   3.057  11.111  0.00  0.00    +0.000 C 
ATOM     25  C   UNL     1      45.428   3.910  11.973  0.00  0.00    +0.000 A 
ATOM     26  N   UNL     1      45.567   5.182  11.762  0.00  0.00    +0.000 NA
ATOM     27  C   UNL     1      46.406   5.814  12.627  0.00  0.00    +0.000 A 
ATOM     28  S   UNL     1      46.707   7.483  12.492  0.00  0.00    +0.000 S 
ATOM     29  C   UNL     1      47.771   7.457  13.826  0.00  0.00    +0.000 A 
ATOM     30  C   UNL     1      47.928   6.203  14.406  0.00  0.00    +0.000 A 
ATOM     31  C   UNL     1      47.098   5.252  13.689  0.00  0.00    +0.000 A 
ATOM     32  C   UNL     1      46.880   3.837  13.898  0.00  0.00    +0.000 A 
ATOM     33  O   UNL     1      47.357   3.196  14.825  0.00  0.00    +0.000 OA
ATOM     34  N   UNL     1      46.056   3.233  12.984  0.00  0.00    +0.000 N 
ATOM     35  H   UNL     1      45.898   2.242  13.121  0.00  0.00    +0.000 HD
ENDBRANCH  20  30
ENDBRANCH   1  22
TORSDOF 6
ENDMDL
MODEL 6
REMARK VINA RESULT:    -7.163      1.705      2.354
REMARK INTER + INTRA:         -10.705
REMARK INTER:                  -9.852
REMARK INTRA:                  -0.853
REMARK UNBOUND:                -1.030
REMARK  Name = 
REMARK  8 active torsions:
REMARK  status: ('A' for Active; 'I' for Inactive)
REMARK    1  A    between atoms: C_1  and  C_2
REMARK    2  A    between atoms: C_7  and  C_8
REMARK    3  A    between atoms: N_10  and  C_11
REMARK    4  A    between atoms: C_11  and  C_12
REMARK    5  A    between atoms: C_11  and  C_13
REMARK    6  A    between atoms: C_16  and  C_17
REMARK    7  A    between atoms: C_17  and  N_18
REMARK    8  A    between atoms: C_19  and  C_21
REMARK                            x       y       z     vdW  Elec       q    Type
REMARK                         _______ _______ _______ _____ _____    ______ ____
ROOT
ATOM      1  C   UNL     1      47.726   7.455  13.969  0.00  0.00    +0.000 C 
ATOM      2  C   UNL     1      48.859   8.128  13.185  0.00  0.00    +0.000 C 
ENDROOT
BRANCH   1   3
ATOM      3  C   UNL     1      46.825   6.677  13.008  0.00  0.00    +0.000 A 
ATOM      4  C   UNL     1      46.397   5.379  13.343  0.00  0.00    +0.000 A 
ATOM      5  C   UNL     1      45.520   4.661  12.512  0.00  0.00    +0.000 A 
ATOM      6  C   UNL     1      45.057   5.217  11.314  0.00  0.00    +0.000 A 
ATOM      7  C   UNL     1      45.473   6.508  10.980  0.00  0.00    +0.000 A 
ATOM      8  C   UNL     1      46.333   7.224  11.816  0.00  0.00    +0.000 A 
BRANCH   6   9
ATOM      9  C   UNL     1      44.134   4.482  10.379  0.00  0.00    +0.000 C 
BRANCH   9  10
ATOM     10  N   UNL     1      44.786   3.417   9.664  0.00  0.00    +0.000 N 
ATOM     11  C   UNL     1      45.533   3.672   8.537  0.00  0.00    +0.000 C 
ATOM     12  O   UNL     1      45.648   4.793   8.049  0.00  0.00    +0.000 OA
ATOM     13  H   UNL     1      44.741   2.454   9.985  0.00  0.00    +0.000 HD
BRANCH  11  14
ATOM     14  C   UNL     1      46.182   2.502   7.981  0.00  0.00    +0.000 A 
ATOM     15  N   UNL     1      47.094   2.517   7.022  0.00  0.00    +0.000 NA
ATOM     16  C   UNL     1      47.412   1.200   6.800  0.00  0.00    +0.000 A 
ATOM     17  C   UNL     1      46.686   0.374   7.626  0.00  0.00    +0.000 A 
ATOM     18  N   UNL     1      45.914   1.213   8.377  0.00  0.00    +0.000 N 
ATOM     19  H   UNL     1      45.248   0.964   9.097  0.00  0.00    +0.000 HD
ENDBRANCH  11  14
ENDBRANCH   9  10
ENDBRANCH   6   9
ENDBRANCH   1   3
BRANCH   1  22
ATOM     20  C   UNL     1      48.704   7.144  16.249  0.00  0.00    +0.000 C 
ATOM     21  O   UNL     1      48.622   8.343  16.502  0.00  0.00    +0.000 OA
ATOM     22  N   UNL     1      48.258   6.632  15.053  0.00  0.00    +0.000 N 
ATOM     23  H   UNL     1      48.454   5.661  14.844  0.00  0.00    +0.000 HD
BRANCH  20  30
ATOM     24  C   UNL     1      54.269   3.845  18.576  0.00  0.00    +0.000 C 
ATOM     25  C   UNL     1      52.939   4.457  18.240  0.00  0.00    +0.000 A 
ATOM     26  N   UNL     1      51.861   4.151  18.893  0.00  0.00    +0.000 NA
ATOM     27  C   UNL     1      50.737   4.789  18.468  0.00  0.00    +0.000 A 
ATOM     28  S   UNL     1      49.234   4.502  19.211  0.00  0.00    +0.000 S 
ATOM     29  C   UNL     1      48.443   5.590  18.160  0.00  0.00    +0.000 A 
ATOM     30  C   UNL     1      49.280   6.194  17.230  0.00  0.00    +0.000 A 
ATOM     31  C   UNL     1      50.635   5.717  17.443  0.00  0.00    +0.000 A 
ATOM     32  C   UNL     1      51.873   6.045  16.771  0.00  0.00    +0.000 A 
ATOM     33  O   UNL     1      51.976   6.890  15.891  0.00  0.00    +0.000 OA
ATOM     34  N   UNL     1      52.974   5.355  17.207  0.00  0.00    +0.000 N 
ATOM     35  H   UNL     1      53.845   5.576  16.742  0.00  0.00    +0.000 HD
ENDBRANCH  20  30
ENDBRANCH   1  22
TORSDOF 6
ENDMDL
MODEL 7
REMARK VINA RESULT:    -6.426      2.635      4.449
REMARK INTER + INTRA:          -9.710
REMARK INTER:                  -8.882
REMARK INTRA:                  -0.828
REMARK UNBOUND:                -1.030
REMARK  Name = 
REMARK  8 active torsions:
REMARK  status: ('A' for Active; 'I' for Inactive)
REMARK    1  A    between atoms: C_1  and  C_2
REMARK    2  A    between atoms: C_7  and  C_8
REMARK    3  A    between atoms: N_10  and  C_11
REMARK    4  A    between atoms: C_11  and  C_12
REMARK    5  A    between atoms: C_11  and  C_13
REMARK    6  A    between atoms: C_16  and  C_17
REMARK    7  A    between atoms: C_17  and  N_18
REMARK    8  A    between atoms: C_19  and  C_21
REMARK                            x       y       z     vdW  Elec       q    Type
REMARK                         _______ _______ _______ _____ _____    ______ ____
ROOT
ATOM      1  C   UNL     1      48.801   5.870  17.126  0.00  0.00    +0.000 C 
ATOM      2  C   UNL     1      48.814   7.152  17.967  0.00  0.00    +0.000 C 
ENDROOT
BRANCH   1   3
ATOM      3  C   UNL     1      48.274   6.178  15.723  0.00  0.00    +0.000 A 
ATOM      4  C   UNL     1      47.514   5.216  15.033  0.00  0.00    +0.000 A 
ATOM      5  C   UNL     1      46.964   5.489  13.768  0.00  0.00    +0.000 A 
ATOM      6  C   UNL     1      47.171   6.729  13.153  0.00  0.00    +0.000 A 
ATOM      7  C   UNL     1      47.920   7.689  13.837  0.00  0.00    +0.000 A 
ATOM      8  C   UNL     1      48.452   7.420  15.100  0.00  0.00    +0.000 A 
BRANCH   6   9
ATOM      9  C   UNL     1      46.623   7.063  11.792  0.00  0.00    +0.000 C 
BRANCH   9  10
ATOM     10  N   UNL     1      46.376   5.900  10.981  0.00  0.00    +0.000 N 
ATOM     11  C   UNL     1      45.093   5.503  10.682  0.00  0.00    +0.000 C 
ATOM     12  O   UNL     1      44.096   6.071  11.120  0.00  0.00    +0.000 OA
ATOM     13  H   UNL     1      47.136   5.358  10.580  0.00  0.00    +0.000 HD
BRANCH  11  14
ATOM     14  C   UNL     1      45.019   4.359   9.795  0.00  0.00    +0.000 A 
ATOM     15  N   UNL     1      45.124   4.407   8.477  0.00  0.00    +0.000 NA
ATOM     16  C   UNL     1      44.978   3.109   8.052  0.00  0.00    +0.000 A 
ATOM     17  C   UNL     1      44.777   2.264   9.118  0.00  0.00    +0.000 A 
ATOM     18  N   UNL     1      44.814   3.069  10.221  0.00  0.00    +0.000 N 
ATOM     19  H   UNL     1      44.704   2.798  11.189  0.00  0.00    +0.000 HD
ENDBRANCH  11  14
ENDBRANCH   9  10
ENDBRANCH   6   9
ENDBRANCH   1   3
BRANCH   1  22
ATOM     20  C   UNL     1      50.571   4.417  18.128  0.00  0.00    +0.000 C 
ATOM     21  O   UNL     1      49.857   4.117  19.081  0.00  0.00    +0.000 OA
ATOM     22  N   UNL     1      50.118   5.236  17.121  0.00  0.00    +0.000 N 
ATOM     23  H   UNL     1      50.779   5.548  16.421  0.00  0.00    +0.000 HD
BRANCH  20  30
ATOM     24  C   UNL     1      54.698  -0.962  16.980  0.00  0.00    +0.000 C 
ATOM     25  C   UNL     1      53.993   0.337  17.254  0.00  0.00    +0.000 A 
ATOM     26  N   UNL     1      54.646   1.426  17.515  0.00  0.00    +0.000 NA
ATOM     27  C   UNL     1      53.865   2.517  17.742  0.00  0.00    +0.000 A 
ATOM     28  S   UNL     1      54.557   4.028  18.105  0.00  0.00    +0.000 S 
ATOM     29  C   UNL     1      53.022   4.762  18.241  0.00  0.00    +0.000 A 
ATOM     30  C   UNL     1      51.955   3.899  18.019  0.00  0.00    +0.000 A 
ATOM     31  C   UNL     1      52.480   2.581  17.709  0.00  0.00    +0.000 A 
ATOM     32  C   UNL     1      51.806   1.344  17.380  0.00  0.00    +0.000 A 
ATOM     33  O   UNL     1      50.594   1.236  17.242  0.00  0.00    +0.000 OA
ATOM     34  N   UNL     1      52.627   0.263  17.194  0.00  0.00    +0.000 N 
ATOM     35  H   UNL     1      52.165  -0.607  16.964  0.00  0.00    +0.000 HD
ENDBRANCH  20  30
ENDBRANCH   1  22
TORSDOF 6
ENDMDL
MODEL 8
REMARK VINA RESULT:    -6.190      1.653      2.723
REMARK INTER + INTRA:          -9.391
REMARK INTER:                  -8.475
REMARK INTRA:                  -0.916
REMARK UNBOUND:                -1.030
REMARK  Name = 
REMARK  8 active torsions:
REMARK  status: ('A' for Active; 'I' for Inactive)
REMARK    1  A    between atoms: C_1  and  C_2
REMARK    2  A    between atoms: C_7  and  C_8
REMARK    3  A    between atoms: N_10  and  C_11
REMARK    4  A    between atoms: C_11  and  C_12
REMARK    5  A    between atoms: C_11  and  C_13
REMARK    6  A    between atoms: C_16  and  C_17
REMARK    7  A    between atoms: C_17  and  N_18
REMARK    8  A    between atoms: C_19  and  C_21
REMARK                            x       y       z     vdW  Elec       q    Type
REMARK                         _______ _______ _______ _____ _____    ______ ____
ROOT
ATOM      1  C   UNL     1      47.111   8.139  13.596  0.00  0.00    +0.000 C 
ATOM      2  C   UNL     1      47.475   9.228  12.580  0.00  0.00    +0.000 C 
ENDROOT
BRANCH   1   3
ATOM      3  C   UNL     1      46.369   7.002  12.891  0.00  0.00    +0.000 A 
ATOM      4  C   UNL     1      46.616   5.667  13.262  0.00  0.00    +0.000 A 
ATOM      5  C   UNL     1      45.907   4.603  12.677  0.00  0.00    +0.000 A 
ATOM      6  C   UNL     1      44.940   4.845  11.694  0.00  0.00    +0.000 A 
ATOM      7  C   UNL     1      44.687   6.169  11.327  0.00  0.00    +0.000 A 
ATOM      8  C   UNL     1      45.382   7.224  11.921  0.00  0.00    +0.000 A 
BRANCH   6   9
ATOM      9  C   UNL     1      44.170   3.740  11.022  0.00  0.00    +0.000 C 
BRANCH   9  10
ATOM     10  N   UNL     1      44.956   3.000  10.072  0.00  0.00    +0.000 N 
ATOM     11  C   UNL     1      45.102   3.439   8.776  0.00  0.00    +0.000 C 
ATOM     12  O   UNL     1      44.540   4.441   8.341  0.00  0.00    +0.000 OA
ATOM     13  H   UNL     1      45.452   2.153  10.334  0.00  0.00    +0.000 HD
BRANCH  11  14
ATOM     14  C   UNL     1      45.984   2.620   7.970  0.00  0.00    +0.000 A 
ATOM     15  N   UNL     1      46.644   3.033   6.900  0.00  0.00    +0.000 NA
ATOM     16  C   UNL     1      47.332   1.934   6.448  0.00  0.00    +0.000 A 
ATOM     17  C   UNL     1      47.085   0.840   7.244  0.00  0.00    +0.000 A 
ATOM     18  N   UNL     1      46.235   1.291   8.213  0.00  0.00    +0.000 N 
ATOM     19  H   UNL     1      45.834   0.765   8.979  0.00  0.00    +0.000 HD
ENDBRANCH  11  14
ENDBRANCH   9  10
ENDBRANCH   6   9
ENDBRANCH   1   3
BRANCH   1  22
ATOM     20  C   UNL     1      48.677   8.199  15.544  0.00  0.00    +0.000 C 
ATOM     21  O   UNL     1      47.996   9.037  16.130  0.00  0.00    +0.000 OA
ATOM     22  N   UNL     1      48.295   7.689  14.326  0.00  0.00    +0.000 N 
ATOM     23  H   UNL     1      48.944   7.092  13.830  0.00  0.00    +0.000 HD
BRANCH  20  30
ATOM     24  C   UNL     1      55.116   9.542  17.545  0.00  0.00    +0.000 C 
ATOM     25  C   UNL     1      53.750   9.032  17.183  0.00  0.00    +0.000 A 
ATOM     26  N   UNL     1      53.419   7.790  17.350  0.00  0.00    +0.000 NA
ATOM     27  C   UNL     1      52.148   7.483  16.973  0.00  0.00    +0.000 A 
ATOM     28  S   UNL     1      51.550   5.898  17.120  0.00  0.00    +0.000 S 
ATOM     29  C   UNL     1      50.035   6.348  16.474  0.00  0.00    +0.000 A 
ATOM     30  C   UNL     1      49.939   7.692  16.134  0.00  0.00    +0.000 A 
ATOM     31  C   UNL     1      51.195   8.346  16.453  0.00  0.00    +0.000 A 
ATOM     32  C   UNL     1      51.608   9.725  16.319  0.00  0.00    +0.000 A 
ATOM     33  O   UNL     1      50.875  10.630  15.942  0.00  0.00    +0.000 OA
ATOM     34  N   UNL     1      52.906   9.984  16.677  0.00  0.00    +0.000 N 
ATOM     35  H   UNL     1      53.204  10.946  16.586  0.00  0.00    +0.000 HD
ENDBRANCH  20  30
ENDBRANCH   1  22
TORSDOF 6
ENDMDL
MODEL 9
REMARK VINA RESULT:    -5.948      1.717      1.950
REMARK INTER + INTRA:          -9.064
REMARK INTER:                  -8.499
REMARK INTRA:                  -0.565
REMARK UNBOUND:                -1.030
REMARK  Name = 
REMARK  8 active torsions:
REMARK  status: ('A' for Active; 'I' for Inactive)
REMARK    1  A    between atoms: C_1  and  C_2
REMARK    2  A    between atoms: C_7  and  C_8
REMARK    3  A    between atoms: N_10  and  C_11
REMARK    4  A    between atoms: C_11  and  C_12
REMARK    5  A    between atoms: C_11  and  C_13
REMARK    6  A    between atoms: C_16  and  C_17
REMARK    7  A    between atoms: C_17  and  N_18
REMARK    8  A    between atoms: C_19  and  C_21
REMARK                            x       y       z     vdW  Elec       q    Type
REMARK                         _______ _______ _______ _____ _____    ______ ____
ROOT
ATOM      1  C   UNL     1      46.775   8.378  13.554  0.00  0.00    +0.000 C 
ATOM      2  C   UNL     1      47.586   9.343  12.681  0.00  0.00    +0.000 C 
ENDROOT
BRANCH   1   3
ATOM      3  C   UNL     1      46.188   7.264  12.685  0.00  0.00    +0.000 A 
ATOM      4  C   UNL     1      46.231   7.372  11.283  0.00  0.00    +0.000 A 
ATOM      5  C   UNL     1      45.756   6.340  10.455  0.00  0.00    +0.000 A 
ATOM      6  C   UNL     1      45.210   5.175  11.009  0.00  0.00    +0.000 A 
ATOM      7  C   UNL     1      45.171   5.061  12.400  0.00  0.00    +0.000 A 
ATOM      8  C   UNL     1      45.658   6.082  13.219  0.00  0.00    +0.000 A 
BRANCH   6   9
ATOM      9  C   UNL     1      44.669   4.052  10.167  0.00  0.00    +0.000 C 
BRANCH   9  10
ATOM     10  N   UNL     1      45.499   3.744   9.034  0.00  0.00    +0.000 N 
ATOM     11  C   UNL     1      45.583   2.461   8.543  0.00  0.00    +0.000 C 
ATOM     12  O   UNL     1      45.009   1.506   9.060  0.00  0.00    +0.000 OA
ATOM     13  H   UNL     1      46.021   4.465   8.543  0.00  0.00    +0.000 HD
BRANCH  11  14
ATOM     14  C   UNL     1      46.402   2.335   7.354  0.00  0.00    +0.000 A 
ATOM     15  N   UNL     1      47.351   1.431   7.172  0.00  0.00    +0.000 NA
ATOM     16  C   UNL     1      47.871   1.692   5.929  0.00  0.00    +0.000 A 
ATOM     17  C   UNL     1      47.240   2.768   5.350  0.00  0.00    +0.000 A 
ATOM     18  N   UNL     1      46.302   3.162   6.261  0.00  0.00    +0.000 N 
ATOM     19  H   UNL     1      45.645   3.927   6.181  0.00  0.00    +0.000 HD
ENDBRANCH  11  14
ENDBRANCH   9  10
ENDBRANCH   6   9
ENDBRANCH   1   3
BRANCH   1  22
ATOM     20  C   UNL     1      48.785   7.232  14.502  0.00  0.00    +0.000 C 
ATOM     21  O   UNL     1      49.290   7.090  13.392  0.00  0.00    +0.000 OA
ATOM     22  N   UNL     1      47.581   7.877  14.666  0.00  0.00    +0.000 N 
ATOM     23  H   UNL     1      47.150   7.864  15.581  0.00  0.00    +0.000 HD
BRANCH  20  30
ATOM     24  C   UNL     1      48.597   2.982  19.904  0.00  0.00    +0.000 C 
ATOM     25  C   UNL     1      48.847   3.974  18.804  0.00  0.00    +0.000 A 
ATOM     26  N   UNL     1      49.919   4.703  18.773  0.00  0.00    +0.000 NA
ATOM     27  C   UNL     1      49.999   5.553  17.713  0.00  0.00    +0.000 A 
ATOM     28  S   UNL     1      51.337   6.586  17.519  0.00  0.00    +0.000 S 
ATOM     29  C   UNL     1      50.688   7.251  16.088  0.00  0.00    +0.000 A 
ATOM     30  C   UNL     1      49.458   6.719  15.719  0.00  0.00    +0.000 A 
ATOM     31  C   UNL     1      49.080   5.705  16.687  0.00  0.00    +0.000 A 
ATOM     32  C   UNL     1      47.919   4.845  16.755  0.00  0.00    +0.000 A 
ATOM     33  O   UNL     1      47.044   4.799  15.900  0.00  0.00    +0.000 OA
ATOM     34  N   UNL     1      47.862   4.029  17.855  0.00  0.00    +0.000 N 
ATOM     35  H   UNL     1      47.053   3.423  17.912  0.00  0.00    +0.000 HD
ENDBRANCH  20  30
ENDBRANCH   1  22
TORSDOF 6
ENDMDL
