MODEL 1
REMARK VINA RESULT:    -8.666      0.000      0.000
REMARK INTER + INTRA:         -12.992
REMARK INTER:                 -12.212
REMARK INTRA:                  -0.780
REMARK UNBOUND:                -0.780
REMARK  Name = 
REMARK  8 active torsions:
REMARK  status: ('A' for Active; 'I' for Inactive)
REMARK    1  A    between atoms: C_1  and  O_2
REMARK    2  A    between atoms: O_2  and  C_3
REMARK    3  A    between atoms: C_3  and  C_4
REMARK    4  A    between atoms: C_4  and  N_5
REMARK    5  A    between atoms: C_4  and  C_18
REMARK    6  A    between atoms: C_6  and  C_8
REMARK    7  A    between atoms: C_21  and  C_22
REMARK    8  A    between atoms: C_22  and  N_23
REMARK                            x       y       z     vdW  Elec       q    Type
REMARK                         _______ _______ _______ _____ _____    ______ ____
ROOT
ATOM      1  C   UNL     1      46.727   7.744  12.847  0.00  0.00    +0.000 C 
ENDROOT
BRANCH   1   2
ATOM      2  C   UNL     1      46.157   6.561  12.072  0.00  0.00    +0.000 A 
ATOM      3  C   UNL     1      46.370   6.448  10.691  0.00  0.00    +0.000 A 
ATOM      4  C   UNL     1      45.760   5.423   9.959  0.00  0.00    +0.000 A 
ATOM      5  C   UNL     1      44.923   4.495  10.591  0.00  0.00    +0.000 A 
ATOM      6  C   UNL     1      44.745   4.576  11.973  0.00  0.00    +0.000 A 
ATOM      7  C   UNL     1      45.340   5.606  12.696  0.00  0.00    +0.000 A 
BRANCH   5   8
ATOM      8  C   UNL     1      44.172   3.452   9.801  0.00  0.00    +0.000 C 
BRANCH   8   9
ATOM      9  N   UNL     1      44.980   2.256   9.623  0.00  0.00    +0.000 N 
ATOM     10  C   UNL     1      45.695   2.273   8.409  0.00  0.00    +0.000 A 
ATOM     11  C   UNL     1      46.521   1.195   8.111  0.00  0.00    +0.000 A 
ATOM     12  C   UNL     1      47.259   1.211   6.925  0.00  0.00    +0.000 A 
ATOM     13  C   UNL     1      47.153   2.299   6.066  0.00  0.00    +0.000 A 
ATOM     14  C   UNL     1      46.314   3.330   6.439  0.00  0.00    +0.000 A 
ATOM     15  N   UNL     1      45.598   3.336   7.583  0.00  0.00    +0.000 NA
ATOM     16  H   UNL     1      44.429   1.406   9.681  0.00  0.00    +0.000 HD
ENDBRANCH   8   9
ENDBRANCH   5   8
ENDBRANCH   1   2
BRANCH   1  17
ATOM     17  N   UNL     1      47.189   7.337  14.171  0.00  0.00    +0.000 N 
ATOM     18  C   UNL     1      48.429   6.799  14.387  0.00  0.00    +0.000 C 
ATOM     19  O   UNL     1      49.277   6.717  13.501  0.00  0.00    +0.000 OA
ATOM     20  H   UNL     1      46.500   7.320  14.913  0.00  0.00    +0.000 HD
BRANCH  18  21
ATOM     21  C   UNL     1      48.716   6.339  15.752  0.00  0.00    +0.000 A 
ATOM     22  C   UNL     1      49.559   7.085  16.564  0.00  0.00    +0.000 A 
ATOM     23  S   UNL     1      49.859   6.370  18.082  0.00  0.00    +0.000 S 
ATOM     24  C   UNL     1      48.905   5.017  17.694  0.00  0.00    +0.000 A 
ATOM     25  N   UNL     1      48.800   3.965  18.550  0.00  0.00    +0.000 NA
ATOM     26  C   UNL     1      48.093   2.981  18.100  0.00  0.00    +0.000 A 
ATOM     27  N   UNL     1      47.453   2.969  16.889  0.00  0.00    +0.000 N 
ATOM     28  C   UNL     1      47.415   4.069  16.065  0.00  0.00    +0.000 A 
ATOM     29  O   UNL     1      46.634   4.124  15.121  0.00  0.00    +0.000 OA
ATOM     30  C   UNL     1      48.300   5.147  16.456  0.00  0.00    +0.000 A 
ATOM     31  H   UNL     1      46.852   2.200  16.634  0.00  0.00    +0.000 HD
ENDBRANCH  18  21
ENDBRANCH   1  17
BRANCH   1  32
ATOM     32  C   UNL     1      45.649   8.850  12.946  0.00  0.00    +0.000 C 
BRANCH  32  34
ATOM     33  C   UNL     1      47.233  10.337  12.024  0.00  0.00    +0.000 C 
ATOM     34  O   UNL     1      45.885   9.883  11.981  0.00  0.00    +0.000 OA
ENDBRANCH  32  34
ENDBRANCH   1  32
TORSDOF 7
ENDMDL
MODEL 2
REMARK VINA RESULT:    -8.458      1.845      2.422
REMARK INTER + INTRA:         -12.699
REMARK INTER:                 -11.570
REMARK INTRA:                  -1.129
REMARK UNBOUND:                -0.780
REMARK  Name = 
REMARK  8 active torsions:
REMARK  status: ('A' for Active; 'I' for Inactive)
REMARK    1  A    between atoms: C_1  and  O_2
REMARK    2  A    between atoms: O_2  and  C_3
REMARK    3  A    between atoms: C_3  and  C_4
REMARK    4  A    between atoms: C_4  and  N_5
REMARK    5  A    between atoms: C_4  and  C_18
REMARK    6  A    between atoms: C_6  and  C_8
REMARK    7  A    between atoms: C_21  and  C_22
REMARK    8  A    between atoms: C_22  and  N_23
REMARK                            x       y       z     vdW  Elec       q    Type
REMARK                         _______ _______ _______ _____ _____    ______ ____
ROOT
ATOM      1  C   UNL     1      47.448   6.717  13.374  0.00  0.00    +0.000 C 
ENDROOT
BRANCH   1   2
ATOM      2  C   UNL     1      46.500   5.865  12.535  0.00  0.00    +0.000 A 
ATOM      3  C   UNL     1      46.084   4.607  12.992  0.00  0.00    +0.000 A 
ATOM      4  C   UNL     1      45.302   3.778  12.181  0.00  0.00    +0.000 A 
ATOM      5  C   UNL     1      44.924   4.187  10.896  0.00  0.00    +0.000 A 
ATOM      6  C   UNL     1      45.297   5.458  10.454  0.00  0.00    +0.000 A 
ATOM      7  C   UNL     1      46.088   6.274  11.257  0.00  0.00    +0.000 A 
BRANCH   5   8
ATOM      8  C   UNL     1      44.176   3.264   9.967  0.00  0.00    +0.000 C 
BRANCH   8   9
ATOM      9  N   UNL     1      44.961   2.075   9.676  0.00  0.00    +0.000 N 
ATOM     10  C   UNL     1      45.672   2.191   8.465  0.00  0.00    +0.000 A 
ATOM     11  C   UNL     1      46.478   1.131   8.065  0.00  0.00    +0.000 A 
ATOM     12  C   UNL     1      47.212   1.243   6.881  0.00  0.00    +0.000 A 
ATOM     13  C   UNL     1      47.123   2.407   6.127  0.00  0.00    +0.000 A 
ATOM     14  C   UNL     1      46.304   3.414   6.598  0.00  0.00    +0.000 A 
ATOM     15  N   UNL     1      45.592   3.328   7.741  0.00  0.00    +0.000 NA
ATOM     16  H   UNL     1      44.394   1.234   9.657  0.00  0.00    +0.000 HD
ENDBRANCH   8   9
ENDBRANCH   5   8
ENDBRANCH   1   2
BRANCH   1  17
ATOM     17  N   UNL     1      47.503   6.243  14.754  0.00  0.00    +0.000 N 
ATOM     18  C   UNL     1      48.665   6.210  15.477  0.00  0.00    +0.000 C 
ATOM     19  O   UNL     1      49.721   6.671  15.052  0.00  0.00    +0.000 OA
ATOM     20  H   UNL     1      46.674   5.789  15.118  0.00  0.00    +0.000 HD
BRANCH  18  21
ATOM     21  C   UNL     1      48.587   5.611  16.816  0.00  0.00    +0.000 A 
ATOM     22  C   UNL     1      48.719   4.237  16.961  0.00  0.00    +0.000 A 
ATOM     23  S   UNL     1      48.516   3.693  18.563  0.00  0.00    +0.000 S 
ATOM     24  C   UNL     1      48.206   5.271  19.116  0.00  0.00    +0.000 A 
ATOM     25  N   UNL     1      47.870   5.506  20.414  0.00  0.00    +0.000 NA
ATOM     26  C   UNL     1      47.601   6.741  20.680  0.00  0.00    +0.000 A 
ATOM     27  N   UNL     1      47.674   7.767  19.776  0.00  0.00    +0.000 N 
ATOM     28  C   UNL     1      48.150   7.592  18.498  0.00  0.00    +0.000 A 
ATOM     29  O   UNL     1      48.447   8.553  17.797  0.00  0.00    +0.000 OA
ATOM     30  C   UNL     1      48.335   6.209  18.108  0.00  0.00    +0.000 A 
ATOM     31  H   UNL     1      47.528   8.721  20.070  0.00  0.00    +0.000 HD
ENDBRANCH  18  21
ENDBRANCH   1  17
BRANCH   1  32
ATOM     32  C   UNL     1      46.992   8.194  13.306  0.00  0.00    +0.000 C 
BRANCH  32  34
ATOM     33  C   UNL     1      49.022   8.715  12.220  0.00  0.00    +0.000 C 
ATOM     34  O   UNL     1      48.121   9.076  13.261  0.00  0.00    +0.000 OA
ENDBRANCH  32  34
ENDBRANCH   1  32
TORSDOF 7
ENDMDL
MODEL 3
REMARK VINA RESULT:    -8.062      1.560      1.922
REMARK INTER + INTRA:         -12.141
REMARK INTER:                 -11.204
REMARK INTRA:                  -0.937
REMARK UNBOUND:                -0.780
REMARK  Name = 
REMARK  8 active torsions:
REMARK  status: ('A' for Active; 'I' for Inactive)
REMARK    1  A    between atoms: C_1  and  O_2
REMARK    2  A    between atoms: O_2  and  C_3
REMARK    3  A    between atoms: C_3  and  C_4
REMARK    4  A    between atoms: C_4  and  N_5
REMARK    5  A    between atoms: C_4  and  C_18
REMARK    6  A    between atoms: C_6  and  C_8
REMARK    7  A    between atoms: C_21  and  C_22
REMARK    8  A    between atoms: C_22  and  N_23
REMARK                            x       y       z     vdW  Elec       q    Type
REMARK                         _______ _______ _______ _____ _____    ______ ____
ROOT
ATOM      1  C   UNL     1      48.256   6.844  13.312  0.00  0.00    +0.000 C 
ENDROOT
BRANCH   1   2
ATOM      2  C   UNL     1      47.122   6.112  12.603  0.00  0.00    +0.000 A 
ATOM      3  C   UNL     1      46.623   4.908  13.118  0.00  0.00    +0.000 A 
ATOM      4  C   UNL     1      45.657   4.179  12.416  0.00  0.00    +0.000 A 
ATOM      5  C   UNL     1      45.175   4.636  11.183  0.00  0.00    +0.000 A 
ATOM      6  C   UNL     1      45.635   5.858  10.688  0.00  0.00    +0.000 A 
ATOM      7  C   UNL     1      46.607   6.573  11.381  0.00  0.00    +0.000 A 
BRANCH   5   8
ATOM      8  C   UNL     1      44.217   3.810  10.361  0.00  0.00    +0.000 C 
BRANCH   8   9
ATOM      9  N   UNL     1      44.791   2.510  10.049  0.00  0.00    +0.000 N 
ATOM     10  C   UNL     1      45.488   2.516   8.825  0.00  0.00    +0.000 A 
ATOM     11  C   UNL     1      46.100   1.341   8.404  0.00  0.00    +0.000 A 
ATOM     12  C   UNL     1      46.821   1.340   7.207  0.00  0.00    +0.000 A 
ATOM     13  C   UNL     1      46.910   2.508   6.459  0.00  0.00    +0.000 A 
ATOM     14  C   UNL     1      46.277   3.633   6.950  0.00  0.00    +0.000 A 
ATOM     15  N   UNL     1      45.582   3.656   8.107  0.00  0.00    +0.000 NA
ATOM     16  H   UNL     1      44.093   1.774  10.038  0.00  0.00    +0.000 HD
ENDBRANCH   8   9
ENDBRANCH   5   8
ENDBRANCH   1   2
BRANCH   1  17
ATOM     17  N   UNL     1      48.029   6.902  14.753  0.00  0.00    +0.000 N 
ATOM     18  C   UNL     1      49.042   6.779  15.666  0.00  0.00    +0.000 C 
ATOM     19  O   UNL     1      50.223   6.715  15.337  0.00  0.00    +0.000 OA
ATOM     20  H   UNL     1      47.066   6.882  15.068  0.00  0.00    +0.000 HD
BRANCH  18  21
ATOM     21  C   UNL     1      48.649   6.752  17.081  0.00  0.00    +0.000 A 
ATOM     22  C   UNL     1      48.265   7.928  17.709  0.00  0.00    +0.000 A 
ATOM     23  S   UNL     1      47.927   7.741  19.369  0.00  0.00    +0.000 S 
ATOM     24  C   UNL     1      48.322   6.088  19.319  0.00  0.00    +0.000 A 
ATOM     25  N   UNL     1      48.320   5.331  20.450  0.00  0.00    +0.000 NA
ATOM     26  C   UNL     1      48.699   4.109  20.274  0.00  0.00    +0.000 A 
ATOM     27  N   UNL     1      49.045   3.565  19.065  0.00  0.00    +0.000 N 
ATOM     28  C   UNL     1      48.918   4.256  17.883  0.00  0.00    +0.000 A 
ATOM     29  O   UNL     1      48.985   3.678  16.804  0.00  0.00    +0.000 OA
ATOM     30  C   UNL     1      48.628   5.667  18.037  0.00  0.00    +0.000 A 
ATOM     31  H   UNL     1      49.255   2.582  18.987  0.00  0.00    +0.000 HD
ENDBRANCH  18  21
ENDBRANCH   1  17
BRANCH   1  32
ATOM     32  C   UNL     1      48.396   8.262  12.710  0.00  0.00    +0.000 C 
BRANCH  32  34
ATOM     33  C   UNL     1      48.842  10.220  13.951  0.00  0.00    +0.000 C 
ATOM     34  O   UNL     1      47.861   9.251  13.599  0.00  0.00    +0.000 OA
ENDBRANCH  32  34
ENDBRANCH   1  32
TORSDOF 7
ENDMDL
MODEL 4
REMARK VINA RESULT:    -7.974      2.385      4.705
REMARK INTER + INTRA:         -12.017
REMARK INTER:                 -10.713
REMARK INTRA:                  -1.304
REMARK UNBOUND:                -0.780
REMARK  Name = 
REMARK  8 active torsions:
REMARK  status: ('A' for Active; 'I' for Inactive)
REMARK    1  A    between atoms: C_1  and  O_2
REMARK    2  A    between atoms: O_2  and  C_3
REMARK    3  A    between atoms: C_3  and  C_4
REMARK    4  A    between atoms: C_4  and  N_5
REMARK    5  A    between atoms: C_4  and  C_18
REMARK    6  A    between atoms: C_6  and  C_8
REMARK    7  A    between atoms: C_21  and  C_22
REMARK    8  A    between atoms: C_22  and  N_23
REMARK                            x       y       z     vdW  Elec       q    Type
REMARK                         _______ _______ _______ _____ _____    ______ ____
ROOT
ATOM      1  C   UNL     1      47.102   5.367  14.660  0.00  0.00    +0.000 C 
ENDROOT
BRANCH   1   2
ATOM      2  C   UNL     1      46.230   5.013  13.459  0.00  0.00    +0.000 A 
ATOM      3  C   UNL     1      45.902   3.677  13.190  0.00  0.00    +0.000 A 
ATOM      4  C   UNL     1      45.194   3.338  12.032  0.00  0.00    +0.000 A 
ATOM      5  C   UNL     1      44.804   4.326  11.119  0.00  0.00    +0.000 A 
ATOM      6  C   UNL     1      45.088   5.662  11.406  0.00  0.00    +0.000 A 
ATOM      7  C   UNL     1      45.807   5.995  12.550  0.00  0.00    +0.000 A 
BRANCH   5   8
ATOM      8  C   UNL     1      44.137   3.968   9.814  0.00  0.00    +0.000 C 
BRANCH   8   9
ATOM      9  N   UNL     1      44.915   4.455   8.686  0.00  0.00    +0.000 N 
ATOM     10  C   UNL     1      45.700   3.441   8.103  0.00  0.00    +0.000 A 
ATOM     11  C   UNL     1      46.488   3.761   7.003  0.00  0.00    +0.000 A 
ATOM     12  C   UNL     1      47.249   2.759   6.396  0.00  0.00    +0.000 A 
ATOM     13  C   UNL     1      47.206   1.465   6.901  0.00  0.00    +0.000 A 
ATOM     14  C   UNL     1      46.394   1.230   7.992  0.00  0.00    +0.000 A 
ATOM     15  N   UNL     1      45.647   2.183   8.589  0.00  0.00    +0.000 NA
ATOM     16  H   UNL     1      45.507   5.241   8.936  0.00  0.00    +0.000 HD
ENDBRANCH   8   9
ENDBRANCH   5   8
ENDBRANCH   1   2
BRANCH   1  17
ATOM     17  N   UNL     1      48.329   6.038  14.243  0.00  0.00    +0.000 N 
ATOM     18  C   UNL     1      48.948   6.989  15.010  0.00  0.00    +0.000 C 
ATOM     19  O   UNL     1      48.572   7.269  16.145  0.00  0.00    +0.000 OA
ATOM     20  H   UNL     1      48.633   5.890  13.288  0.00  0.00    +0.000 HD
BRANCH  18  21
ATOM     21  C   UNL     1      50.116   7.653  14.415  0.00  0.00    +0.000 A 
ATOM     22  C   UNL     1      51.331   7.630  15.084  0.00  0.00    +0.000 A 
ATOM     23  S   UNL     1      52.560   8.520  14.306  0.00  0.00    +0.000 S 
ATOM     24  C   UNL     1      51.500   9.001  13.066  0.00  0.00    +0.000 A 
ATOM     25  N   UNL     1      51.905   9.860  12.092  0.00  0.00    +0.000 NA
ATOM     26  C   UNL     1      50.980  10.187  11.251  0.00  0.00    +0.000 A 
ATOM     27  N   UNL     1      49.698   9.705  11.275  0.00  0.00    +0.000 N 
ATOM     28  C   UNL     1      49.295   8.727  12.153  0.00  0.00    +0.000 A 
ATOM     29  O   UNL     1      48.234   8.133  11.993  0.00  0.00    +0.000 OA
ATOM     30  C   UNL     1      50.250   8.424  13.200  0.00  0.00    +0.000 A 
ATOM     31  H   UNL     1      49.048   9.941  10.541  0.00  0.00    +0.000 HD
ENDBRANCH  18  21
ENDBRANCH   1  17
BRANCH   1  32
ATOM     32  C   UNL     1      47.411   4.077  15.457  0.00  0.00    +0.000 C 
BRANCH  32  34
ATOM     33  C   UNL     1      47.222   4.455  17.779  0.00  0.00    +0.000 C 
ATOM     34  O   UNL     1      46.567   3.974  16.611  0.00  0.00    +0.000 OA
ENDBRANCH  32  34
ENDBRANCH   1  32
TORSDOF 7
ENDMDL
MODEL 5
REMARK VINA RESULT:    -7.587      2.771      4.350
REMARK INTER + INTRA:         -11.471
REMARK INTER:                 -10.380
REMARK INTRA:                  -1.092
REMARK UNBOUND:                -0.780
REMARK  Name = 
REMARK  8 active torsions:
REMARK  status: ('A' for Active; 'I' for Inactive)
REMARK    1  A    between atoms: C_1  and  O_2
REMARK    2  A    between atoms: O_2  and  C_3
REMARK    3  A    between atoms: C_3  and  C_4
REMARK    4  A    between atoms: C_4  and  N_5
REMARK    5  A    between atoms: C_4  and  C_18
REMARK    6  A    between atoms: C_6  and  C_8
REMARK    7  A    between atoms: C_21  and  C_22
REMARK    8  A    between atoms: C_22  and  N_23
REMARK                            x       y       z     vdW  Elec       q    Type
REMARK                         _______ _______ _______ _____ _____    ______ ____
ROOT
ATOM      1  C   UNL     1      47.116   5.758  14.472  0.00  0.00    +0.000 C 
ENDROOT
BRANCH   1   2
ATOM      2  C   UNL     1      46.454   5.098  13.266  0.00  0.00    +0.000 A 
ATOM      3  C   UNL     1      46.077   5.866  12.156  0.00  0.00    +0.000 A 
ATOM      4  C   UNL     1      45.375   5.285  11.094  0.00  0.00    +0.000 A 
ATOM      5  C   UNL     1      45.032   3.927  11.123  0.00  0.00    +0.000 A 
ATOM      6  C   UNL     1      45.446   3.148  12.205  0.00  0.00    +0.000 A 
ATOM      7  C   UNL     1      46.131   3.733  13.267  0.00  0.00    +0.000 A 
BRANCH   5   8
ATOM      8  C   UNL     1      44.182   3.310  10.041  0.00  0.00    +0.000 C 
BRANCH   8   9
ATOM      9  N   UNL     1      44.737   2.036   9.610  0.00  0.00    +0.000 N 
ATOM     10  C   UNL     1      45.629   2.183   8.530  0.00  0.00    +0.000 A 
ATOM     11  C   UNL     1      46.247   1.047   8.020  0.00  0.00    +0.000 A 
ATOM     12  C   UNL     1      47.157   1.180   6.969  0.00  0.00    +0.000 A 
ATOM     13  C   UNL     1      47.426   2.442   6.451  0.00  0.00    +0.000 A 
ATOM     14  C   UNL     1      46.774   3.519   7.017  0.00  0.00    +0.000 A 
ATOM     15  N   UNL     1      45.897   3.412   8.038  0.00  0.00    +0.000 NA
ATOM     16  H   UNL     1      44.016   1.365   9.366  0.00  0.00    +0.000 HD
ENDBRANCH   8   9
ENDBRANCH   5   8
ENDBRANCH   1   2
BRANCH   1  17
ATOM     17  N   UNL     1      48.341   6.452  14.088  0.00  0.00    +0.000 N 
ATOM     18  C   UNL     1      48.404   7.811  13.939  0.00  0.00    +0.000 C 
ATOM     19  O   UNL     1      47.463   8.550  14.216  0.00  0.00    +0.000 OA
ATOM     20  H   UNL     1      49.118   5.879  13.782  0.00  0.00    +0.000 HD
BRANCH  18  21
ATOM     21  C   UNL     1      49.676   8.359  13.448  0.00  0.00    +0.000 A 
ATOM     22  C   UNL     1      49.688   9.137  12.299  0.00  0.00    +0.000 A 
ATOM     23  S   UNL     1      51.249   9.620  11.814  0.00  0.00    +0.000 S 
ATOM     24  C   UNL     1      51.969   8.773  13.100  0.00  0.00    +0.000 A 
ATOM     25  N   UNL     1      53.323   8.708  13.226  0.00  0.00    +0.000 NA
ATOM     26  C   UNL     1      53.732   7.981  14.213  0.00  0.00    +0.000 A 
ATOM     27  N   UNL     1      52.911   7.343  15.105  0.00  0.00    +0.000 N 
ATOM     28  C   UNL     1      51.546   7.506  15.097  0.00  0.00    +0.000 A 
ATOM     29  O   UNL     1      50.860   7.140  16.046  0.00  0.00    +0.000 OA
ATOM     30  C   UNL     1      51.027   8.198  13.934  0.00  0.00    +0.000 A 
ATOM     31  H   UNL     1      53.297   6.857  15.900  0.00  0.00    +0.000 HD
ENDBRANCH  18  21
ENDBRANCH   1  17
BRANCH   1  32
ATOM     32  C   UNL     1      47.395   4.680  15.546  0.00  0.00    +0.000 C 
BRANCH  32  34
ATOM     33  C   UNL     1      48.943   3.927  17.161  0.00  0.00    +0.000 C 
ATOM     34  O   UNL     1      48.587   4.987  16.281  0.00  0.00    +0.000 OA
ENDBRANCH  32  34
ENDBRANCH   1  32
TORSDOF 7
ENDMDL
MODEL 6
REMARK VINA RESULT:    -7.328      3.184      7.863
REMARK INTER + INTRA:         -11.106
REMARK INTER:                  -9.734
REMARK INTRA:                  -1.373
REMARK UNBOUND:                -0.780
REMARK  Name = 
REMARK  8 active torsions:
REMARK  status: ('A' for Active; 'I' for Inactive)
REMARK    1  A    between atoms: C_1  and  O_2
REMARK    2  A    between atoms: O_2  and  C_3
REMARK    3  A    between atoms: C_3  and  C_4
REMARK    4  A    between atoms: C_4  and  N_5
REMARK    5  A    between atoms: C_4  and  C_18
REMARK    6  A    between atoms: C_6  and  C_8
REMARK    7  A    between atoms: C_21  and  C_22
REMARK    8  A    between atoms: C_22  and  N_23
REMARK                            x       y       z     vdW  Elec       q    Type
REMARK                         _______ _______ _______ _____ _____    ______ ____
ROOT
ATOM      1  C   UNL     1      48.192   7.373  13.702  0.00  0.00    +0.000 C 
ENDROOT
BRANCH   1   2
ATOM      2  C   UNL     1      48.663   6.677  14.975  0.00  0.00    +0.000 A 
ATOM      3  C   UNL     1      49.899   7.005  15.547  0.00  0.00    +0.000 A 
ATOM      4  C   UNL     1      50.383   6.296  16.652  0.00  0.00    +0.000 A 
ATOM      5  C   UNL     1      49.643   5.242  17.204  0.00  0.00    +0.000 A 
ATOM      6  C   UNL     1      48.390   4.942  16.666  0.00  0.00    +0.000 A 
ATOM      7  C   UNL     1      47.919   5.639  15.557  0.00  0.00    +0.000 A 
BRANCH   5   8
ATOM      8  C   UNL     1      50.197   4.397  18.323  0.00  0.00    +0.000 C 
BRANCH   8   9
ATOM      9  N   UNL     1      50.252   2.996  17.934  0.00  0.00    +0.000 N 
ATOM     10  C   UNL     1      51.576   2.535  17.797  0.00  0.00    +0.000 A 
ATOM     11  C   UNL     1      51.782   1.207  17.440  0.00  0.00    +0.000 A 
ATOM     12  C   UNL     1      53.090   0.727  17.329  0.00  0.00    +0.000 A 
ATOM     13  C   UNL     1      54.157   1.582  17.575  0.00  0.00    +0.000 A 
ATOM     14  C   UNL     1      53.866   2.885  17.929  0.00  0.00    +0.000 A 
ATOM     15  N   UNL     1      52.611   3.366  18.047  0.00  0.00    +0.000 NA
ATOM     16  H   UNL     1      49.739   2.813  17.079  0.00  0.00    +0.000 HD
ENDBRANCH   8   9
ENDBRANCH   5   8
ENDBRANCH   1   2
BRANCH   1  17
ATOM     17  N   UNL     1      47.548   6.430  12.791  0.00  0.00    +0.000 N 
ATOM     18  C   UNL     1      46.494   6.780  11.991  0.00  0.00    +0.000 C 
ATOM     19  O   UNL     1      46.082   7.934  11.907  0.00  0.00    +0.000 OA
ATOM     20  H   UNL     1      47.807   5.455  12.880  0.00  0.00    +0.000 HD
BRANCH  18  21
ATOM     21  C   UNL     1      45.881   5.701  11.205  0.00  0.00    +0.000 A 
ATOM     22  C   UNL     1      45.979   5.721   9.821  0.00  0.00    +0.000 A 
ATOM     23  S   UNL     1      45.141   4.450   9.055  0.00  0.00    +0.000 S 
ATOM     24  C   UNL     1      44.583   3.848  10.545  0.00  0.00    +0.000 A 
ATOM     25  N   UNL     1      43.730   2.790  10.598  0.00  0.00    +0.000 NA
ATOM     26  C   UNL     1      43.340   2.479  11.790  0.00  0.00    +0.000 A 
ATOM     27  N   UNL     1      43.755   3.107  12.935  0.00  0.00    +0.000 N 
ATOM     28  C   UNL     1      44.726   4.080  12.931  0.00  0.00    +0.000 A 
ATOM     29  O   UNL     1      45.261   4.442  13.974  0.00  0.00    +0.000 OA
ATOM     30  C   UNL     1      45.096   4.559  11.615  0.00  0.00    +0.000 A 
ATOM     31  H   UNL     1      43.473   2.762  13.840  0.00  0.00    +0.000 HD
ENDBRANCH  18  21
ENDBRANCH   1  17
BRANCH   1  32
ATOM     32  C   UNL     1      49.401   8.066  13.029  0.00  0.00    +0.000 C 
BRANCH  32  34
ATOM     33  C   UNL     1      49.107   9.753  11.405  0.00  0.00    +0.000 C 
ATOM     34  O   UNL     1      49.130   9.454  12.797  0.00  0.00    +0.000 OA
ENDBRANCH  32  34
ENDBRANCH   1  32
TORSDOF 7
ENDMDL
MODEL 7
REMARK VINA RESULT:    -7.235      4.270      8.753
REMARK INTER + INTRA:         -10.975
REMARK INTER:                 -10.041
REMARK INTRA:                  -0.934
REMARK UNBOUND:                -0.780
REMARK  Name = 
REMARK  8 active torsions:
REMARK  status: ('A' for Active; 'I' for Inactive)
REMARK    1  A    between atoms: C_1  and  O_2
REMARK    2  A    between atoms: O_2  and  C_3
REMARK    3  A    between atoms: C_3  and  C_4
REMARK    4  A    between atoms: C_4  and  N_5
REMARK    5  A    between atoms: C_4  and  C_18
REMARK    6  A    between atoms: C_6  and  C_8
REMARK    7  A    between atoms: C_21  and  C_22
REMARK    8  A    between atoms: C_22  and  N_23
REMARK                            x       y       z     vdW  Elec       q    Type
REMARK                         _______ _______ _______ _____ _____    ______ ____
ROOT
ATOM      1  C   UNL     1      47.581   4.252  17.283  0.00  0.00    +0.000 C 
ENDROOT
BRANCH   1   2
ATOM      2  C   UNL     1      49.041   3.815  17.319  0.00  0.00    +0.000 A 
ATOM      3  C   UNL     1      49.378   2.457  17.238  0.00  0.00    +0.000 A 
ATOM      4  C   UNL     1      50.707   2.043  17.378  0.00  0.00    +0.000 A 
ATOM      5  C   UNL     1      51.725   2.978  17.606  0.00  0.00    +0.000 A 
ATOM      6  C   UNL     1      51.401   4.335  17.642  0.00  0.00    +0.000 A 
ATOM      7  C   UNL     1      50.076   4.743  17.518  0.00  0.00    +0.000 A 
BRANCH   5   8
ATOM      8  C   UNL     1      53.145   2.542  17.869  0.00  0.00    +0.000 C 
BRANCH   8   9
ATOM      9  N   UNL     1      53.173   1.289  18.607  0.00  0.00    +0.000 N 
ATOM     10  C   UNL     1      53.886   0.284  17.923  0.00  0.00    +0.000 A 
ATOM     11  C   UNL     1      54.006  -0.966  18.518  0.00  0.00    +0.000 A 
ATOM     12  C   UNL     1      54.735  -1.963  17.865  0.00  0.00    +0.000 A 
ATOM     13  C   UNL     1      55.324  -1.689  16.636  0.00  0.00    +0.000 A 
ATOM     14  C   UNL     1      55.161  -0.420  16.117  0.00  0.00    +0.000 A 
ATOM     15  N   UNL     1      54.466   0.558  16.735  0.00  0.00    +0.000 NA
ATOM     16  H   UNL     1      52.242   0.952  18.830  0.00  0.00    +0.000 HD
ENDBRANCH   8   9
ENDBRANCH   5   8
ENDBRANCH   1   2
BRANCH   1  17
ATOM     17  N   UNL     1      47.293   5.037  16.086  0.00  0.00    +0.000 N 
ATOM     18  C   UNL     1      47.212   4.478  14.839  0.00  0.00    +0.000 C 
ATOM     19  O   UNL     1      47.274   3.265  14.653  0.00  0.00    +0.000 OA
ATOM     20  H   UNL     1      47.306   6.045  16.182  0.00  0.00    +0.000 HD
BRANCH  18  21
ATOM     21  C   UNL     1      47.021   5.405  13.715  0.00  0.00    +0.000 A 
ATOM     22  C   UNL     1      48.079   6.197  13.292  0.00  0.00    +0.000 A 
ATOM     23  S   UNL     1      47.670   7.278  12.040  0.00  0.00    +0.000 S 
ATOM     24  C   UNL     1      46.051   6.756  12.046  0.00  0.00    +0.000 A 
ATOM     25  N   UNL     1      45.122   7.346  11.245  0.00  0.00    +0.000 NA
ATOM     26  C   UNL     1      43.922   6.890  11.397  0.00  0.00    +0.000 A 
ATOM     27  N   UNL     1      43.575   5.875  12.249  0.00  0.00    +0.000 N 
ATOM     28  C   UNL     1      44.508   5.159  12.961  0.00  0.00    +0.000 A 
ATOM     29  O   UNL     1      44.210   4.104  13.511  0.00  0.00    +0.000 OA
ATOM     30  C   UNL     1      45.846   5.714  12.932  0.00  0.00    +0.000 A 
ATOM     31  H   UNL     1      42.633   5.514  12.260  0.00  0.00    +0.000 HD
ENDBRANCH  18  21
ENDBRANCH   1  17
BRANCH   1  32
ATOM     32  C   UNL     1      47.261   5.054  18.568  0.00  0.00    +0.000 C 
BRANCH  32  34
ATOM     33  C   UNL     1      47.836   7.126  19.542  0.00  0.00    +0.000 C 
ATOM     34  O   UNL     1      47.434   6.460  18.350  0.00  0.00    +0.000 OA
ENDBRANCH  32  34
ENDBRANCH   1  32
TORSDOF 7
ENDMDL
MODEL 8
REMARK VINA RESULT:    -6.904      2.614      3.539
REMARK INTER + INTRA:         -10.510
REMARK INTER:                  -9.474
REMARK INTRA:                  -1.036
REMARK UNBOUND:                -0.780
REMARK  Name = 
REMARK  8 active torsions:
REMARK  status: ('A' for Active; 'I' for Inactive)
REMARK    1  A    between atoms: C_1  and  O_2
REMARK    2  A    between atoms: O_2  and  C_3
REMARK    3  A    between atoms: C_3  and  C_4
REMARK    4  A    between atoms: C_4  and  N_5
REMARK    5  A    between atoms: C_4  and  C_18
REMARK    6  A    between atoms: C_6  and  C_8
REMARK    7  A    between atoms: C_21  and  C_22
REMARK    8  A    between atoms: C_22  and  N_23
REMARK                            x       y       z     vdW  Elec       q    Type
REMARK                         _______ _______ _______ _____ _____    ______ ____
ROOT
ATOM      1  C   UNL     1      48.924   6.952  14.033  0.00  0.00    +0.000 C 
ENDROOT
BRANCH   1   2
ATOM      2  C   UNL     1      47.794   6.370  13.191  0.00  0.00    +0.000 A 
ATOM      3  C   UNL     1      47.375   7.017  12.020  0.00  0.00    +0.000 A 
ATOM      4  C   UNL     1      46.270   6.546  11.303  0.00  0.00    +0.000 A 
ATOM      5  C   UNL     1      45.560   5.422  11.743  0.00  0.00    +0.000 A 
ATOM      6  C   UNL     1      46.002   4.746  12.882  0.00  0.00    +0.000 A 
ATOM      7  C   UNL     1      47.091   5.227  13.603  0.00  0.00    +0.000 A 
BRANCH   5   8
ATOM      8  C   UNL     1      44.303   4.965  11.045  0.00  0.00    +0.000 C 
BRANCH   8   9
ATOM      9  N   UNL     1      44.372   3.547  10.731  0.00  0.00    +0.000 N 
ATOM     10  C   UNL     1      45.052   3.301   9.522  0.00  0.00    +0.000 A 
ATOM     11  C   UNL     1      45.204   1.985   9.102  0.00  0.00    +0.000 A 
ATOM     12  C   UNL     1      45.903   1.724   7.920  0.00  0.00    +0.000 A 
ATOM     13  C   UNL     1      46.429   2.782   7.187  0.00  0.00    +0.000 A 
ATOM     14  C   UNL     1      46.237   4.058   7.677  0.00  0.00    +0.000 A 
ATOM     15  N   UNL     1      45.571   4.330   8.819  0.00  0.00    +0.000 NA
ATOM     16  H   UNL     1      43.454   3.115  10.698  0.00  0.00    +0.000 HD
ENDBRANCH   8   9
ENDBRANCH   5   8
ENDBRANCH   1   2
BRANCH   1  17
ATOM     17  N   UNL     1      48.514   7.122  15.424  0.00  0.00    +0.000 N 
ATOM     18  C   UNL     1      49.180   6.538  16.467  0.00  0.00    +0.000 C 
ATOM     19  O   UNL     1      50.228   5.915  16.315  0.00  0.00    +0.000 OA
ATOM     20  H   UNL     1      47.618   7.566  15.588  0.00  0.00    +0.000 HD
BRANCH  18  21
ATOM     21  C   UNL     1      48.591   6.711  17.801  0.00  0.00    +0.000 A 
ATOM     22  C   UNL     1      48.235   5.594  18.543  0.00  0.00    +0.000 A 
ATOM     23  S   UNL     1      47.485   5.966  20.028  0.00  0.00    +0.000 S 
ATOM     24  C   UNL     1      47.573   7.636  19.715  0.00  0.00    +0.000 A 
ATOM     25  N   UNL     1      47.025   8.539  20.572  0.00  0.00    +0.000 NA
ATOM     26  C   UNL     1      47.112   9.767  20.179  0.00  0.00    +0.000 A 
ATOM     27  N   UNL     1      47.728  10.175  19.025  0.00  0.00    +0.000 N 
ATOM     28  C   UNL     1      48.418   9.308  18.212  0.00  0.00    +0.000 A 
ATOM     29  O   UNL     1      49.169   9.726  17.337  0.00  0.00    +0.000 OA
ATOM     30  C   UNL     1      48.239   7.907  18.533  0.00  0.00    +0.000 A 
ATOM     31  H   UNL     1      47.829  11.157  18.818  0.00  0.00    +0.000 HD
ENDBRANCH  18  21
ENDBRANCH   1  17
BRANCH   1  32
ATOM     32  C   UNL     1      49.374   8.297  13.413  0.00  0.00    +0.000 C 
BRANCH  32  34
ATOM     33  C   UNL     1      51.104   9.697  14.199  0.00  0.00    +0.000 C 
ATOM     34  O   UNL     1      50.790   8.473  13.545  0.00  0.00    +0.000 OA
ENDBRANCH  32  34
ENDBRANCH   1  32
TORSDOF 7
ENDMDL
MODEL 9
REMARK VINA RESULT:    -6.859      2.906      8.181
REMARK INTER + INTRA:         -10.446
REMARK INTER:                  -9.398
REMARK INTRA:                  -1.048
REMARK UNBOUND:                -0.780
REMARK  Name = 
REMARK  8 active torsions:
REMARK  status: ('A' for Active; 'I' for Inactive)
REMARK    1  A    between atoms: C_1  and  O_2
REMARK    2  A    between atoms: O_2  and  C_3
REMARK    3  A    between atoms: C_3  and  C_4
REMARK    4  A    between atoms: C_4  and  N_5
REMARK    5  A    between atoms: C_4  and  C_18
REMARK    6  A    between atoms: C_6  and  C_8
REMARK    7  A    between atoms: C_21  and  C_22
REMARK    8  A    between atoms: C_22  and  N_23
REMARK                            x       y       z     vdW  Elec       q    Type
REMARK                         _______ _______ _______ _____ _____    ______ ____
ROOT
ATOM      1  C   UNL     1      47.674   6.941  13.156  0.00  0.00    +0.000 C 
ENDROOT
BRANCH   1   2
ATOM      2  C   UNL     1      48.261   6.400  14.455  0.00  0.00    +0.000 A 
ATOM      3  C   UNL     1      47.652   5.324  15.116  0.00  0.00    +0.000 A 
ATOM      4  C   UNL     1      48.124   4.893  16.360  0.00  0.00    +0.000 A 
ATOM      5  C   UNL     1      49.211   5.532  16.972  0.00  0.00    +0.000 A 
ATOM      6  C   UNL     1      49.849   6.574  16.297  0.00  0.00    +0.000 A 
ATOM      7  C   UNL     1      49.368   7.011  15.066  0.00  0.00    +0.000 A 
BRANCH   5   8
ATOM      8  C   UNL     1      49.663   5.154  18.360  0.00  0.00    +0.000 C 
BRANCH   8   9
ATOM      9  N   UNL     1      51.110   5.017  18.413  0.00  0.00    +0.000 N 
ATOM     10  C   UNL     1      51.532   3.707  18.114  0.00  0.00    +0.000 A 
ATOM     11  C   UNL     1      52.895   3.432  18.115  0.00  0.00    +0.000 A 
ATOM     12  C   UNL     1      53.330   2.144  17.791  0.00  0.00    +0.000 A 
ATOM     13  C   UNL     1      52.396   1.164  17.476  0.00  0.00    +0.000 A 
ATOM     14  C   UNL     1      51.062   1.521  17.493  0.00  0.00    +0.000 A 
ATOM     15  N   UNL     1      50.622   2.760  17.797  0.00  0.00    +0.000 NA
ATOM     16  H   UNL     1      51.491   5.300  19.310  0.00  0.00    +0.000 HD
ENDBRANCH   8   9
ENDBRANCH   5   8
ENDBRANCH   1   2
BRANCH   1  17
ATOM     17  N   UNL     1      46.872   5.928  12.476  0.00  0.00    +0.000 N 
ATOM     18  C   UNL     1      45.507   6.002  12.390  0.00  0.00    +0.000 C 
ATOM     19  O   UNL     1      44.872   6.975  12.788  0.00  0.00    +0.000 OA
ATOM     20  H   UNL     1      47.345   5.077  12.198  0.00  0.00    +0.000 HD
BRANCH  18  21
ATOM     21  C   UNL     1      44.826   4.858  11.769  0.00  0.00    +0.000 A 
ATOM     22  C   UNL     1      43.964   4.080  12.527  0.00  0.00    +0.000 A 
ATOM     23  S   UNL     1      43.325   2.743  11.684  0.00  0.00    +0.000 S 
ATOM     24  C   UNL     1      44.210   3.134  10.286  0.00  0.00    +0.000 A 
ATOM     25  N   UNL     1      44.179   2.329   9.189  0.00  0.00    +0.000 NA
ATOM     26  C   UNL     1      44.945   2.715   8.223  0.00  0.00    +0.000 A 
ATOM     27  N   UNL     1      45.712   3.850   8.241  0.00  0.00    +0.000 N 
ATOM     28  C   UNL     1      45.655   4.761   9.269  0.00  0.00    +0.000 A 
ATOM     29  O   UNL     1      46.145   5.879   9.150  0.00  0.00    +0.000 OA
ATOM     30  C   UNL     1      44.919   4.313  10.433  0.00  0.00    +0.000 A 
ATOM     31  H   UNL     1      46.226   4.135   7.421  0.00  0.00    +0.000 HD
ENDBRANCH  18  21
ENDBRANCH   1  17
BRANCH   1  32
ATOM     32  C   UNL     1      48.825   7.444  12.252  0.00  0.00    +0.000 C 
BRANCH  32  34
ATOM     33  C   UNL     1      47.604   9.458  12.101  0.00  0.00    +0.000 C 
ATOM     34  O   UNL     1      48.893   8.875  12.259  0.00  0.00    +0.000 OA
ENDBRANCH  32  34
ENDBRANCH   1  32
TORSDOF 7
ENDMDL
