MODEL 1
REMARK VINA RESULT:    -6.608      0.000      0.000
REMARK INTER + INTRA:          -9.721
REMARK INTER:                  -8.539
REMARK INTRA:                  -1.182
REMARK UNBOUND:                -1.182
REMARK  Name = 
REMARK  5 active torsions:
REMARK  status: ('A' for Active; 'I' for Inactive)
REMARK    1  A    between atoms: C_2  and  C_18
REMARK    2  A    between atoms: N_3  and  C_4
REMARK    3  A    between atoms: C_4  and  C_5
REMARK    4  A    between atoms: C_8  and  C_9
REMARK    5  A    between atoms: C_9  and  N_10
REMARK                            x       y       z     vdW  Elec       q    Type
REMARK                         _______ _______ _______ _____ _____    ______ ____
ROOT
ATOM      1  O   UNL     1      48.457   8.819  16.717  0.00  0.00    +0.000 OA
ATOM      2  C   UNL     1      48.962   7.739  16.423  0.00  0.00    +0.000 C 
ATOM      3  N   UNL     1      49.521   7.487  15.200  0.00  0.00    +0.000 N 
ATOM      4  H   UNL     1      49.835   6.552  14.973  0.00  0.00    +0.000 HD
ENDROOT
BRANCH   2   5
ATOM      5  C   UNL     1      49.030   6.636  17.385  0.00  0.00    +0.000 A 
ATOM      6  C   UNL     1      49.611   6.829  18.630  0.00  0.00    +0.000 A 
ATOM      7  S   UNL     1      49.605   5.431  19.605  0.00  0.00    +0.000 S 
ATOM      8  C   UNL     1      48.776   4.534  18.419  0.00  0.00    +0.000 A 
ATOM      9  N   UNL     1      48.420   3.240  18.634  0.00  0.00    +0.000 NA
ATOM     10  C   UNL     1      47.757   2.699  17.669  0.00  0.00    +0.000 A 
ATOM     11  N   UNL     1      47.425   3.333  16.499  0.00  0.00    +0.000 N 
ATOM     12  C   UNL     1      47.822   4.610  16.206  0.00  0.00    +0.000 A 
ATOM     13  O   UNL     1      47.612   5.097  15.097  0.00  0.00    +0.000 OA
ATOM     14  C   UNL     1      48.533   5.283  17.278  0.00  0.00    +0.000 A 
ATOM     15  H   UNL     1      46.926   2.843  15.771  0.00  0.00    +0.000 HD
ENDBRANCH   2   5
BRANCH   3  16
ATOM     16  C   UNL     1      49.424   8.402  14.101  0.00  0.00    +0.000 C 
BRANCH  16  17
ATOM     17  C   UNL     1      48.250   8.108  13.210  0.00  0.00    +0.000 A 
ATOM     18  C   UNL     1      48.354   7.186  12.162  0.00  0.00    +0.000 A 
ATOM     19  C   UNL     1      47.209   6.755  11.487  0.00  0.00    +0.000 A 
ATOM     20  C   UNL     1      45.948   7.252  11.848  0.00  0.00    +0.000 A 
ATOM     21  C   UNL     1      45.870   8.286  12.790  0.00  0.00    +0.000 A 
ATOM     22  C   UNL     1      47.013   8.711  13.466  0.00  0.00    +0.000 A 
BRANCH  20  23
ATOM     23  C   UNL     1      44.680   6.590  11.347  0.00  0.00    +0.000 C 
BRANCH  23  24
ATOM     24  N   UNL     1      43.952   5.876  12.413  0.00  0.00    +0.000 NA
ATOM     25  C   UNL     1      44.839   4.977  13.178  0.00  0.00    +0.000 C 
ATOM     26  C   UNL     1      45.157   3.655  12.460  0.00  0.00    +0.000 C 
ATOM     27  O   UNL     1      43.960   2.936  12.148  0.00  0.00    +0.000 OA
ATOM     28  C   UNL     1      43.082   3.724  11.337  0.00  0.00    +0.000 C 
ATOM     29  C   UNL     1      42.776   5.095  11.967  0.00  0.00    +0.000 C 
ENDBRANCH  23  24
ENDBRANCH  20  23
ENDBRANCH  16  17
ENDBRANCH   3  16
TORSDOF 5
ENDMDL
MODEL 2
REMARK VINA RESULT:    -6.352      3.183      3.861
REMARK INTER + INTRA:          -9.391
REMARK INTER:                  -8.594
REMARK INTRA:                  -0.797
REMARK UNBOUND:                -1.182
REMARK  Name = 
REMARK  5 active torsions:
REMARK  status: ('A' for Active; 'I' for Inactive)
REMARK    1  A    between atoms: C_2  and  C_18
REMARK    2  A    between atoms: N_3  and  C_4
REMARK    3  A    between atoms: C_4  and  C_5
REMARK    4  A    between atoms: C_8  and  C_9
REMARK    5  A    between atoms: C_9  and  N_10
REMARK                            x       y       z     vdW  Elec       q    Type
REMARK                         _______ _______ _______ _____ _____    ______ ____
ROOT
ATOM      1  O   UNL     1      49.375   4.410  19.077  0.00  0.00    +0.000 OA
ATOM      2  C   UNL     1      50.363   4.740  18.427  0.00  0.00    +0.000 C 
ATOM      3  N   UNL     1      50.365   5.797  17.560  0.00  0.00    +0.000 N 
ATOM      4  H   UNL     1      51.173   5.967  16.974  0.00  0.00    +0.000 HD
ENDROOT
BRANCH   2   5
ATOM      5  C   UNL     1      51.639   4.030  18.557  0.00  0.00    +0.000 A 
ATOM      6  C   UNL     1      52.681   4.592  19.280  0.00  0.00    +0.000 A 
ATOM      7  S   UNL     1      54.084   3.623  19.310  0.00  0.00    +0.000 S 
ATOM      8  C   UNL     1      53.329   2.395  18.405  0.00  0.00    +0.000 A 
ATOM      9  N   UNL     1      53.981   1.242  18.100  0.00  0.00    +0.000 NA
ATOM     10  C   UNL     1      53.273   0.382  17.450  0.00  0.00    +0.000 A 
ATOM     11  N   UNL     1      51.971   0.574  17.066  0.00  0.00    +0.000 N 
ATOM     12  C   UNL     1      51.295   1.744  17.287  0.00  0.00    +0.000 A 
ATOM     13  O   UNL     1      50.173   1.922  16.818  0.00  0.00    +0.000 OA
ATOM     14  C   UNL     1      52.030   2.732  18.056  0.00  0.00    +0.000 A 
ATOM     15  H   UNL     1      51.480  -0.130  16.536  0.00  0.00    +0.000 HD
ENDBRANCH   2   5
BRANCH   3  16
ATOM     16  C   UNL     1      49.175   6.515  17.212  0.00  0.00    +0.000 C 
BRANCH  16  17
ATOM     17  C   UNL     1      48.529   5.986  15.962  0.00  0.00    +0.000 A 
ATOM     18  C   UNL     1      47.802   4.789  15.978  0.00  0.00    +0.000 A 
ATOM     19  C   UNL     1      47.024   4.424  14.877  0.00  0.00    +0.000 A 
ATOM     20  C   UNL     1      46.975   5.248  13.743  0.00  0.00    +0.000 A 
ATOM     21  C   UNL     1      47.824   6.360  13.674  0.00  0.00    +0.000 A 
ATOM     22  C   UNL     1      48.595   6.726  14.776  0.00  0.00    +0.000 A 
BRANCH  20  23
ATOM     23  C   UNL     1      45.923   5.033  12.672  0.00  0.00    +0.000 C 
BRANCH  23  24
ATOM     24  N   UNL     1      44.842   4.131  13.111  0.00  0.00    +0.000 NA
ATOM     25  C   UNL     1      44.768   2.914  12.278  0.00  0.00    +0.000 C 
ATOM     26  C   UNL     1      44.085   3.130  10.917  0.00  0.00    +0.000 C 
ATOM     27  O   UNL     1      42.757   3.636  11.080  0.00  0.00    +0.000 OA
ATOM     28  C   UNL     1      42.760   4.864  11.816  0.00  0.00    +0.000 C 
ATOM     29  C   UNL     1      43.492   4.736  13.164  0.00  0.00    +0.000 C 
ENDBRANCH  23  24
ENDBRANCH  20  23
ENDBRANCH  16  17
ENDBRANCH   3  16
TORSDOF 5
ENDMDL
MODEL 3
REMARK VINA RESULT:    -6.336      4.696      8.585
REMARK INTER + INTRA:          -9.371
REMARK INTER:                  -8.874
REMARK INTRA:                  -0.497
REMARK UNBOUND:                -1.182
REMARK  Name = 
REMARK  5 active torsions:
REMARK  status: ('A' for Active; 'I' for Inactive)
REMARK    1  A    between atoms: C_2  and  C_18
REMARK    2  A    between atoms: N_3  and  C_4
REMARK    3  A    between atoms: C_4  and  C_5
REMARK    4  A    between atoms: C_8  and  C_9
REMARK    5  A    between atoms: C_9  and  N_10
REMARK                            x       y       z     vdW  Elec       q    Type
REMARK                         _______ _______ _______ _____ _____    ______ ____
ROOT
ATOM      1  O   UNL     1      44.128   3.979   9.109  0.00  0.00    +0.000 OA
ATOM      2  C   UNL     1      44.563   2.899   9.496  0.00  0.00    +0.000 C 
ATOM      3  N   UNL     1      44.273   2.376  10.726  0.00  0.00    +0.000 N 
ATOM      4  H   UNL     1      44.736   1.531  11.036  0.00  0.00    +0.000 HD
ENDROOT
BRANCH   2   5
ATOM      5  C   UNL     1      45.415   2.065   8.643  0.00  0.00    +0.000 A 
ATOM      6  C   UNL     1      45.317   0.682   8.697  0.00  0.00    +0.000 A 
ATOM      7  S   UNL     1      46.393  -0.114   7.640  0.00  0.00    +0.000 S 
ATOM      8  C   UNL     1      46.988   1.362   7.036  0.00  0.00    +0.000 A 
ATOM      9  N   UNL     1      47.930   1.394   6.057  0.00  0.00    +0.000 NA
ATOM     10  C   UNL     1      48.254   2.579   5.664  0.00  0.00    +0.000 A 
ATOM     11  N   UNL     1      47.727   3.740   6.169  0.00  0.00    +0.000 N 
ATOM     12  C   UNL     1      46.829   3.762   7.202  0.00  0.00    +0.000 A 
ATOM     13  O   UNL     1      46.477   4.825   7.709  0.00  0.00    +0.000 OA
ATOM     14  C   UNL     1      46.395   2.452   7.654  0.00  0.00    +0.000 A 
ATOM     15  H   UNL     1      48.043   4.639   5.834  0.00  0.00    +0.000 HD
ENDBRANCH   2   5
BRANCH   3  16
ATOM     16  C   UNL     1      43.568   3.112  11.733  0.00  0.00    +0.000 C 
BRANCH  16  17
ATOM     17  C   UNL     1      44.436   4.137  12.409  0.00  0.00    +0.000 A 
ATOM     18  C   UNL     1      45.700   3.796  12.906  0.00  0.00    +0.000 A 
ATOM     19  C   UNL     1      46.583   4.793  13.326  0.00  0.00    +0.000 A 
ATOM     20  C   UNL     1      46.206   6.143  13.263  0.00  0.00    +0.000 A 
ATOM     21  C   UNL     1      44.888   6.464  12.912  0.00  0.00    +0.000 A 
ATOM     22  C   UNL     1      44.009   5.468  12.489  0.00  0.00    +0.000 A 
BRANCH  20  23
ATOM     23  C   UNL     1      47.234   7.245  13.425  0.00  0.00    +0.000 C 
BRANCH  23  24
ATOM     24  N   UNL     1      48.598   6.723  13.632  0.00  0.00    +0.000 NA
ATOM     25  C   UNL     1      49.050   6.902  15.026  0.00  0.00    +0.000 C 
ATOM     26  C   UNL     1      49.508   8.333  15.355  0.00  0.00    +0.000 C 
ATOM     27  O   UNL     1      50.569   8.747  14.490  0.00  0.00    +0.000 OA
ATOM     28  C   UNL     1      50.172   8.674  13.116  0.00  0.00    +0.000 C 
ATOM     29  C   UNL     1      49.635   7.282  12.735  0.00  0.00    +0.000 C 
ENDBRANCH  23  24
ENDBRANCH  20  23
ENDBRANCH  16  17
ENDBRANCH   3  16
TORSDOF 5
ENDMDL
MODEL 4
REMARK VINA RESULT:    -6.172      3.241      7.346
REMARK INTER + INTRA:          -9.158
REMARK INTER:                  -8.174
REMARK INTRA:                  -0.984
REMARK UNBOUND:                -1.182
REMARK  Name = 
REMARK  5 active torsions:
REMARK  status: ('A' for Active; 'I' for Inactive)
REMARK    1  A    between atoms: C_2  and  C_18
REMARK    2  A    between atoms: N_3  and  C_4
REMARK    3  A    between atoms: C_4  and  C_5
REMARK    4  A    between atoms: C_8  and  C_9
REMARK    5  A    between atoms: C_9  and  N_10
REMARK                            x       y       z     vdW  Elec       q    Type
REMARK                         _______ _______ _______ _____ _____    ______ ____
ROOT
ATOM      1  O   UNL     1      44.774   7.553  11.864  0.00  0.00    +0.000 OA
ATOM      2  C   UNL     1      45.466   6.557  11.676  0.00  0.00    +0.000 C 
ATOM      3  N   UNL     1      46.834   6.588  11.687  0.00  0.00    +0.000 N 
ATOM      4  H   UNL     1      47.358   5.762  11.428  0.00  0.00    +0.000 HD
ENDROOT
BRANCH   2   5
ATOM      5  C   UNL     1      44.868   5.238  11.450  0.00  0.00    +0.000 A 
ATOM      6  C   UNL     1      44.090   4.647  12.435  0.00  0.00    +0.000 A 
ATOM      7  S   UNL     1      43.490   3.113  11.992  0.00  0.00    +0.000 S 
ATOM      8  C   UNL     1      44.204   3.211  10.450  0.00  0.00    +0.000 A 
ATOM      9  N   UNL     1      44.046   2.218   9.536  0.00  0.00    +0.000 NA
ATOM     10  C   UNL     1      44.602   2.447   8.395  0.00  0.00    +0.000 A 
ATOM     11  N   UNL     1      45.314   3.577   8.087  0.00  0.00    +0.000 N 
ATOM     12  C   UNL     1      45.560   4.573   8.995  0.00  0.00    +0.000 A 
ATOM     13  O   UNL     1      46.307   5.509   8.717  0.00  0.00    +0.000 OA
ATOM     14  C   UNL     1      44.918   4.388  10.283  0.00  0.00    +0.000 A 
ATOM     15  H   UNL     1      45.747   3.684   7.181  0.00  0.00    +0.000 HD
ENDBRANCH   2   5
BRANCH   3  16
ATOM     16  C   UNL     1      47.580   7.809  11.760  0.00  0.00    +0.000 C 
BRANCH  16  17
ATOM     17  C   UNL     1      48.225   8.009  13.103  0.00  0.00    +0.000 A 
ATOM     18  C   UNL     1      47.636   8.834  14.069  0.00  0.00    +0.000 A 
ATOM     19  C   UNL     1      48.119   8.836  15.380  0.00  0.00    +0.000 A 
ATOM     20  C   UNL     1      49.204   8.021  15.735  0.00  0.00    +0.000 A 
ATOM     21  C   UNL     1      49.883   7.320  14.730  0.00  0.00    +0.000 A 
ATOM     22  C   UNL     1      49.397   7.314  13.423  0.00  0.00    +0.000 A 
BRANCH  20  23
ATOM     23  C   UNL     1      49.551   7.780  17.191  0.00  0.00    +0.000 C 
BRANCH  23  24
ATOM     24  N   UNL     1      49.632   6.346  17.525  0.00  0.00    +0.000 NA
ATOM     25  C   UNL     1      48.297   5.718  17.581  0.00  0.00    +0.000 C 
ATOM     26  C   UNL     1      47.521   6.014  18.876  0.00  0.00    +0.000 C 
ATOM     27  O   UNL     1      48.258   5.590  20.027  0.00  0.00    +0.000 OA
ATOM     28  C   UNL     1      49.541   6.223  20.080  0.00  0.00    +0.000 C 
ATOM     29  C   UNL     1      50.345   6.025  18.782  0.00  0.00    +0.000 C 
ENDBRANCH  23  24
ENDBRANCH  20  23
ENDBRANCH  16  17
ENDBRANCH   3  16
TORSDOF 5
ENDMDL
MODEL 5
REMARK VINA RESULT:    -6.151      4.704      7.974
REMARK INTER + INTRA:          -9.131
REMARK INTER:                  -8.286
REMARK INTRA:                  -0.844
REMARK UNBOUND:                -1.182
REMARK  Name = 
REMARK  5 active torsions:
REMARK  status: ('A' for Active; 'I' for Inactive)
REMARK    1  A    between atoms: C_2  and  C_18
REMARK    2  A    between atoms: N_3  and  C_4
REMARK    3  A    between atoms: C_4  and  C_5
REMARK    4  A    between atoms: C_8  and  C_9
REMARK    5  A    between atoms: C_9  and  N_10
REMARK                            x       y       z     vdW  Elec       q    Type
REMARK                         _______ _______ _______ _____ _____    ______ ____
ROOT
ATOM      1  O   UNL     1      43.966   7.490  11.330  0.00  0.00    +0.000 OA
ATOM      2  C   UNL     1      44.662   6.589  11.789  0.00  0.00    +0.000 C 
ATOM      3  N   UNL     1      45.720   6.818  12.626  0.00  0.00    +0.000 N 
ATOM      4  H   UNL     1      46.323   6.052  12.897  0.00  0.00    +0.000 HD
ENDROOT
BRANCH   2   5
ATOM      5  C   UNL     1      44.389   5.180  11.492  0.00  0.00    +0.000 A 
ATOM      6  C   UNL     1      43.614   4.422  12.356  0.00  0.00    +0.000 A 
ATOM      7  S   UNL     1      43.415   2.806  11.847  0.00  0.00    +0.000 S 
ATOM      8  C   UNL     1      44.311   3.080  10.426  0.00  0.00    +0.000 A 
ATOM      9  N   UNL     1      44.498   2.095   9.509  0.00  0.00    +0.000 NA
ATOM     10  C   UNL     1      45.157   2.456   8.461  0.00  0.00    +0.000 A 
ATOM     11  N   UNL     1      45.657   3.714   8.249  0.00  0.00    +0.000 N 
ATOM     12  C   UNL     1      45.557   4.721   9.173  0.00  0.00    +0.000 A 
ATOM     13  O   UNL     1      46.127   5.796   8.998  0.00  0.00    +0.000 OA
ATOM     14  C   UNL     1      44.784   4.382  10.354  0.00  0.00    +0.000 A 
ATOM     15  H   UNL     1      46.187   3.926   7.416  0.00  0.00    +0.000 HD
ENDBRANCH   2   5
BRANCH   3  16
ATOM     16  C   UNL     1      46.208   8.135  12.914  0.00  0.00    +0.000 C 
BRANCH  16  17
ATOM     17  C   UNL     1      47.517   8.423  12.233  0.00  0.00    +0.000 A 
ATOM     18  C   UNL     1      47.881   9.733  11.898  0.00  0.00    +0.000 A 
ATOM     19  C   UNL     1      49.182  10.015  11.475  0.00  0.00    +0.000 A 
ATOM     20  C   UNL     1      50.130   8.986  11.373  0.00  0.00    +0.000 A 
ATOM     21  C   UNL     1      49.716   7.661  11.559  0.00  0.00    +0.000 A 
ATOM     22  C   UNL     1      48.419   7.382  11.986  0.00  0.00    +0.000 A 
BRANCH  20  23
ATOM     23  C   UNL     1      51.604   9.301  11.210  0.00  0.00    +0.000 C 
BRANCH  23  24
ATOM     24  N   UNL     1      52.397   8.120  10.820  0.00  0.00    +0.000 NA
ATOM     25  C   UNL     1      53.635   8.001  11.615  0.00  0.00    +0.000 C 
ATOM     26  C   UNL     1      54.759   8.949  11.167  0.00  0.00    +0.000 C 
ATOM     27  O   UNL     1      55.094   8.738   9.792  0.00  0.00    +0.000 OA
ATOM     28  C   UNL     1      53.951   8.916   8.949  0.00  0.00    +0.000 C 
ATOM     29  C   UNL     1      52.760   8.044   9.387  0.00  0.00    +0.000 C 
ENDBRANCH  23  24
ENDBRANCH  20  23
ENDBRANCH  16  17
ENDBRANCH   3  16
TORSDOF 5
ENDMDL
MODEL 6
REMARK VINA RESULT:    -5.992      3.210      6.955
REMARK INTER + INTRA:          -8.926
REMARK INTER:                  -8.062
REMARK INTRA:                  -0.864
REMARK UNBOUND:                -1.182
REMARK  Name = 
REMARK  5 active torsions:
REMARK  status: ('A' for Active; 'I' for Inactive)
REMARK    1  A    between atoms: C_2  and  C_18
REMARK    2  A    between atoms: N_3  and  C_4
REMARK    3  A    between atoms: C_4  and  C_5
REMARK    4  A    between atoms: C_8  and  C_9
REMARK    5  A    between atoms: C_9  and  N_10
REMARK                            x       y       z     vdW  Elec       q    Type
REMARK                         _______ _______ _______ _____ _____    ______ ____
ROOT
ATOM      1  O   UNL     1      45.497   8.021  11.762  0.00  0.00    +0.000 OA
ATOM      2  C   UNL     1      46.203   7.084  11.399  0.00  0.00    +0.000 C 
ATOM      3  N   UNL     1      47.563   7.076  11.546  0.00  0.00    +0.000 N 
ATOM      4  H   UNL     1      48.108   6.326  11.142  0.00  0.00    +0.000 HD
ENDROOT
BRANCH   2   5
ATOM      5  C   UNL     1      45.628   5.877  10.798  0.00  0.00    +0.000 A 
ATOM      6  C   UNL     1      45.876   5.574   9.467  0.00  0.00    +0.000 A 
ATOM      7  S   UNL     1      45.117   4.138   8.947  0.00  0.00    +0.000 S 
ATOM      8  C   UNL     1      44.476   3.844  10.496  0.00  0.00    +0.000 A 
ATOM      9  N   UNL     1      43.736   2.734  10.754  0.00  0.00    +0.000 NA
ATOM     10  C   UNL     1      43.355   2.616  11.981  0.00  0.00    +0.000 A 
ATOM     11  N   UNL     1      43.639   3.516  12.975  0.00  0.00    +0.000 N 
ATOM     12  C   UNL     1      44.320   4.683  12.751  0.00  0.00    +0.000 A 
ATOM     13  O   UNL     1      44.445   5.521  13.642  0.00  0.00    +0.000 OA
ATOM     14  C   UNL     1      44.812   4.845  11.395  0.00  0.00    +0.000 A 
ATOM     15  H   UNL     1      43.289   3.378  13.912  0.00  0.00    +0.000 HD
ENDBRANCH   2   5
BRANCH   3  16
ATOM     16  C   UNL     1      48.300   8.223  11.990  0.00  0.00    +0.000 C 
BRANCH  16  17
ATOM     17  C   UNL     1      48.635   8.159  13.453  0.00  0.00    +0.000 A 
ATOM     18  C   UNL     1      47.906   8.899  14.392  0.00  0.00    +0.000 A 
ATOM     19  C   UNL     1      48.076   8.663  15.759  0.00  0.00    +0.000 A 
ATOM     20  C   UNL     1      48.986   7.692  16.200  0.00  0.00    +0.000 A 
ATOM     21  C   UNL     1      49.821   7.069  15.264  0.00  0.00    +0.000 A 
ATOM     22  C   UNL     1      49.647   7.301  13.900  0.00  0.00    +0.000 A 
BRANCH  20  23
ATOM     23  C   UNL     1      48.973   7.212  17.638  0.00  0.00    +0.000 C 
BRANCH  23  24
ATOM     24  N   UNL     1      48.337   5.890  17.789  0.00  0.00    +0.000 NA
ATOM     25  C   UNL     1      47.288   5.900  18.827  0.00  0.00    +0.000 C 
ATOM     26  C   UNL     1      47.831   5.843  20.265  0.00  0.00    +0.000 C 
ATOM     27  O   UNL     1      48.640   4.681  20.465  0.00  0.00    +0.000 OA
ATOM     28  C   UNL     1      49.731   4.645  19.538  0.00  0.00    +0.000 C 
ATOM     29  C   UNL     1      49.260   4.769  18.077  0.00  0.00    +0.000 C 
ENDBRANCH  23  24
ENDBRANCH  20  23
ENDBRANCH  16  17
ENDBRANCH   3  16
TORSDOF 5
ENDMDL
MODEL 7
REMARK VINA RESULT:    -5.753      3.418      7.570
REMARK INTER + INTRA:          -8.617
REMARK INTER:                  -7.743
REMARK INTRA:                  -0.874
REMARK UNBOUND:                -1.182
REMARK  Name = 
REMARK  5 active torsions:
REMARK  status: ('A' for Active; 'I' for Inactive)
REMARK    1  A    between atoms: C_2  and  C_18
REMARK    2  A    between atoms: N_3  and  C_4
REMARK    3  A    between atoms: C_4  and  C_5
REMARK    4  A    between atoms: C_8  and  C_9
REMARK    5  A    between atoms: C_9  and  N_10
REMARK                            x       y       z     vdW  Elec       q    Type
REMARK                         _______ _______ _______ _____ _____    ______ ____
ROOT
ATOM      1  O   UNL     1      48.725   6.676  12.526  0.00  0.00    +0.000 OA
ATOM      2  C   UNL     1      47.691   6.641  13.186  0.00  0.00    +0.000 C 
ATOM      3  N   UNL     1      47.441   7.492  14.227  0.00  0.00    +0.000 N 
ATOM      4  H   UNL     1      46.620   7.358  14.802  0.00  0.00    +0.000 HD
ENDROOT
BRANCH   2   5
ATOM      5  C   UNL     1      46.620   5.686  12.884  0.00  0.00    +0.000 A 
ATOM      6  C   UNL     1      46.760   4.349  13.224  0.00  0.00    +0.000 A 
ATOM      7  S   UNL     1      45.417   3.394  12.785  0.00  0.00    +0.000 S 
ATOM      8  C   UNL     1      44.579   4.745  12.176  0.00  0.00    +0.000 A 
ATOM      9  N   UNL     1      43.324   4.627  11.669  0.00  0.00    +0.000 NA
ATOM     10  C   UNL     1      42.793   5.738  11.286  0.00  0.00    +0.000 A 
ATOM     11  N   UNL     1      43.409   6.961  11.355  0.00  0.00    +0.000 N 
ATOM     12  C   UNL     1      44.697   7.122  11.791  0.00  0.00    +0.000 A 
ATOM     13  O   UNL     1      45.255   8.215  11.720  0.00  0.00    +0.000 OA
ATOM     14  C   UNL     1      45.327   5.908  12.278  0.00  0.00    +0.000 A 
ATOM     15  H   UNL     1      42.947   7.792  11.014  0.00  0.00    +0.000 HD
ENDBRANCH   2   5
BRANCH   3  16
ATOM     16  C   UNL     1      48.429   8.395  14.742  0.00  0.00    +0.000 C 
BRANCH  16  17
ATOM     17  C   UNL     1      49.455   7.699  15.591  0.00  0.00    +0.000 A 
ATOM     18  C   UNL     1      49.071   6.861  16.645  0.00  0.00    +0.000 A 
ATOM     19  C   UNL     1      50.015   6.050  17.279  0.00  0.00    +0.000 A 
ATOM     20  C   UNL     1      51.357   6.077  16.872  0.00  0.00    +0.000 A 
ATOM     21  C   UNL     1      51.760   7.027  15.925  0.00  0.00    +0.000 A 
ATOM     22  C   UNL     1      50.816   7.833  15.289  0.00  0.00    +0.000 A 
BRANCH  20  23
ATOM     23  C   UNL     1      52.329   5.007  17.329  0.00  0.00    +0.000 C 
BRANCH  23  24
ATOM     24  N   UNL     1      51.701   4.010  18.215  0.00  0.00    +0.000 NA
ATOM     25  C   UNL     1      52.359   3.955  19.536  0.00  0.00    +0.000 C 
ATOM     26  C   UNL     1      53.685   3.177  19.541  0.00  0.00    +0.000 C 
ATOM     27  O   UNL     1      53.497   1.835  19.084  0.00  0.00    +0.000 OA
ATOM     28  C   UNL     1      52.932   1.811  17.769  0.00  0.00    +0.000 C 
ATOM     29  C   UNL     1      51.633   2.633  17.676  0.00  0.00    +0.000 C 
ENDBRANCH  23  24
ENDBRANCH  20  23
ENDBRANCH  16  17
ENDBRANCH   3  16
TORSDOF 5
ENDMDL
MODEL 8
REMARK VINA RESULT:    -5.668      3.666      7.655
REMARK INTER + INTRA:          -8.507
REMARK INTER:                  -7.860
REMARK INTRA:                  -0.647
REMARK UNBOUND:                -1.182
REMARK  Name = 
REMARK  5 active torsions:
REMARK  status: ('A' for Active; 'I' for Inactive)
REMARK    1  A    between atoms: C_2  and  C_18
REMARK    2  A    between atoms: N_3  and  C_4
REMARK    3  A    between atoms: C_4  and  C_5
REMARK    4  A    between atoms: C_8  and  C_9
REMARK    5  A    between atoms: C_9  and  N_10
REMARK                            x       y       z     vdW  Elec       q    Type
REMARK                         _______ _______ _______ _____ _____    ______ ____
ROOT
ATOM      1  O   UNL     1      45.739   7.875  11.776  0.00  0.00    +0.000 OA
ATOM      2  C   UNL     1      46.342   6.838  11.515  0.00  0.00    +0.000 C 
ATOM      3  N   UNL     1      47.658   6.642  11.833  0.00  0.00    +0.000 N 
ATOM      4  H   UNL     1      48.136   5.811  11.508  0.00  0.00    +0.000 HD
ENDROOT
BRANCH   2   5
ATOM      5  C   UNL     1      45.678   5.708  10.859  0.00  0.00    +0.000 A 
ATOM      6  C   UNL     1      45.832   5.504   9.495  0.00  0.00    +0.000 A 
ATOM      7  S   UNL     1      44.979   4.146   8.913  0.00  0.00    +0.000 S 
ATOM      8  C   UNL     1      44.419   3.754  10.472  0.00  0.00    +0.000 A 
ATOM      9  N   UNL     1      43.646   2.658  10.689  0.00  0.00    +0.000 NA
ATOM     10  C   UNL     1      43.333   2.457  11.924  0.00  0.00    +0.000 A 
ATOM     11  N   UNL     1      43.717   3.261  12.966  0.00  0.00    +0.000 N 
ATOM     12  C   UNL     1      44.435   4.414  12.791  0.00  0.00    +0.000 A 
ATOM     13  O   UNL     1      44.651   5.172  13.735  0.00  0.00    +0.000 OA
ATOM     14  C   UNL     1      44.853   4.665  11.424  0.00  0.00    +0.000 A 
ATOM     15  H   UNL     1      43.416   3.063  13.909  0.00  0.00    +0.000 HD
ENDBRANCH   2   5
BRANCH   3  16
ATOM     16  C   UNL     1      48.492   7.685  12.354  0.00  0.00    +0.000 C 
BRANCH  16  17
ATOM     17  C   UNL     1      48.934   7.416  13.764  0.00  0.00    +0.000 A 
ATOM     18  C   UNL     1      48.129   6.683  14.645  0.00  0.00    +0.000 A 
ATOM     19  C   UNL     1      48.640   6.249  15.870  0.00  0.00    +0.000 A 
ATOM     20  C   UNL     1      49.960   6.554  16.232  0.00  0.00    +0.000 A 
ATOM     21  C   UNL     1      50.706   7.416  15.418  0.00  0.00    +0.000 A 
ATOM     22  C   UNL     1      50.196   7.844  14.193  0.00  0.00    +0.000 A 
BRANCH  20  23
ATOM     23  C   UNL     1      50.627   5.854  17.400  0.00  0.00    +0.000 C 
BRANCH  23  24
ATOM     24  N   UNL     1      51.757   5.003  16.981  0.00  0.00    +0.000 NA
ATOM     25  C   UNL     1      51.796   3.731  17.731  0.00  0.00    +0.000 C 
ATOM     26  C   UNL     1      52.372   3.861  19.151  0.00  0.00    +0.000 C 
ATOM     27  O   UNL     1      53.697   4.398  19.123  0.00  0.00    +0.000 OA
ATOM     28  C   UNL     1      53.722   5.676  18.476  0.00  0.00    +0.000 C 
ATOM     29  C   UNL     1      53.094   5.632  17.071  0.00  0.00    +0.000 C 
ENDBRANCH  23  24
ENDBRANCH  20  23
ENDBRANCH  16  17
ENDBRANCH   3  16
TORSDOF 5
ENDMDL
MODEL 9
REMARK VINA RESULT:    -5.448      3.428      7.681
REMARK INTER + INTRA:          -8.222
REMARK INTER:                  -7.375
REMARK INTRA:                  -0.847
REMARK UNBOUND:                -1.182
REMARK  Name = 
REMARK  5 active torsions:
REMARK  status: ('A' for Active; 'I' for Inactive)
REMARK    1  A    between atoms: C_2  and  C_18
REMARK    2  A    between atoms: N_3  and  C_4
REMARK    3  A    between atoms: C_4  and  C_5
REMARK    4  A    between atoms: C_8  and  C_9
REMARK    5  A    between atoms: C_9  and  N_10
REMARK                            x       y       z     vdW  Elec       q    Type
REMARK                         _______ _______ _______ _____ _____    ______ ____
ROOT
ATOM      1  O   UNL     1      47.976   7.029  11.853  0.00  0.00    +0.000 OA
ATOM      2  C   UNL     1      47.013   7.052  12.614  0.00  0.00    +0.000 C 
ATOM      3  N   UNL     1      47.066   7.600  13.866  0.00  0.00    +0.000 N 
ATOM      4  H   UNL     1      46.276   7.506  14.491  0.00  0.00    +0.000 HD
ENDROOT
BRANCH   2   5
ATOM      5  C   UNL     1      45.709   6.511  12.219  0.00  0.00    +0.000 A 
ATOM      6  C   UNL     1      44.760   7.336  11.633  0.00  0.00    +0.000 A 
ATOM      7  S   UNL     1      43.306   6.530  11.251  0.00  0.00    +0.000 S 
ATOM      8  C   UNL     1      43.915   5.041  11.807  0.00  0.00    +0.000 A 
ATOM      9  N   UNL     1      43.173   3.904  11.734  0.00  0.00    +0.000 NA
ATOM     10  C   UNL     1      43.777   2.842  12.148  0.00  0.00    +0.000 A 
ATOM     11  N   UNL     1      45.057   2.814  12.639  0.00  0.00    +0.000 N 
ATOM     12  C   UNL     1      45.818   3.942  12.799  0.00  0.00    +0.000 A 
ATOM     13  O   UNL     1      46.911   3.890  13.359  0.00  0.00    +0.000 OA
ATOM     14  C   UNL     1      45.203   5.161  12.306  0.00  0.00    +0.000 A 
ATOM     15  H   UNL     1      45.463   1.952  12.972  0.00  0.00    +0.000 HD
ENDBRANCH   2   5
BRANCH   3  16
ATOM     16  C   UNL     1      48.289   8.051  14.462  0.00  0.00    +0.000 C 
BRANCH  16  17
ATOM     17  C   UNL     1      48.600   7.337  15.747  0.00  0.00    +0.000 A 
ATOM     18  C   UNL     1      48.517   5.942  15.834  0.00  0.00    +0.000 A 
ATOM     19  C   UNL     1      49.020   5.276  16.955  0.00  0.00    +0.000 A 
ATOM     20  C   UNL     1      49.601   6.001  18.005  0.00  0.00    +0.000 A 
ATOM     21  C   UNL     1      49.538   7.400  17.980  0.00  0.00    +0.000 A 
ATOM     22  C   UNL     1      49.042   8.063  16.859  0.00  0.00    +0.000 A 
BRANCH  20  23
ATOM     23  C   UNL     1      50.412   5.299  19.078  0.00  0.00    +0.000 C 
BRANCH  23  24
ATOM     24  N   UNL     1      51.858   5.563  18.958  0.00  0.00    +0.000 NA
ATOM     25  C   UNL     1      52.512   4.629  18.021  0.00  0.00    +0.000 C 
ATOM     26  C   UNL     1      52.777   3.234  18.612  0.00  0.00    +0.000 C 
ATOM     27  O   UNL     1      53.586   3.318  19.789  0.00  0.00    +0.000 OA
ATOM     28  C   UNL     1      52.971   4.150  20.779  0.00  0.00    +0.000 C 
ATOM     29  C   UNL     1      52.614   5.544  20.231  0.00  0.00    +0.000 C 
ENDBRANCH  23  24
ENDBRANCH  20  23
ENDBRANCH  16  17
ENDBRANCH   3  16
TORSDOF 5
ENDMDL
