MODEL 1
REMARK VINA RESULT:    -9.199      0.000      0.000
REMARK INTER + INTRA:         -12.171
REMARK INTER:                 -12.157
REMARK INTRA:                  -0.014
REMARK UNBOUND:                -0.014
REMARK  Name = 
REMARK  6 active torsions:
REMARK  status: ('A' for Active; 'I' for Inactive)
REMARK    1  A    between atoms: N_1  and  C_2
REMARK    2  A    between atoms: C_5  and  C_6
REMARK    3  A    between atoms: C_6  and  C_7
REMARK    4  A    between atoms: C_10  and  C_11
REMARK    5  A    between atoms: C_11  and  N_12
REMARK    6  A    between atoms: C_13  and  C_15
REMARK                            x       y       z     vdW  Elec       q    Type
REMARK                         _______ _______ _______ _____ _____    ______ ____
ROOT
ATOM      1  C   UNL     1      44.927   4.076  10.353  0.00  0.00    +0.000 A 
ATOM      2  C   UNL     1      45.200   3.821  11.695  0.00  0.00    +0.000 A 
ATOM      3  C   UNL     1      45.721   4.844  12.489  0.00  0.00    +0.000 A 
ATOM      4  C   UNL     1      45.974   6.097  11.932  0.00  0.00    +0.000 A 
ATOM      5  C   UNL     1      45.670   6.262  10.586  0.00  0.00    +0.000 A 
ATOM      6  N   UNL     1      45.155   5.289   9.792  0.00  0.00    +0.000 NA
ENDROOT
BRANCH   1   7
ATOM      7  C   UNL     1      44.316   3.000   9.479  0.00  0.00    +0.000 C 
BRANCH   7  11
ATOM      8  C   UNL     1      47.716   2.185   6.780  0.00  0.00    +0.000 C 
ATOM      9  C   UNL     1      46.836   3.414   6.532  0.00  0.00    +0.000 C 
ATOM     10  C   UNL     1      46.055   3.798   7.787  0.00  0.00    +0.000 C 
ATOM     11  C   UNL     1      45.174   2.628   8.255  0.00  0.00    +0.000 C 
ATOM     12  C   UNL     1      46.070   1.412   8.555  0.00  0.00    +0.000 C 
ATOM     13  C   UNL     1      46.897   1.010   7.329  0.00  0.00    +0.000 C 
BRANCH   8  14
ATOM     14  N   UNL     1      48.391   1.789   5.544  0.00  0.00    +0.000 NA
ATOM     15  H   UNL     1      48.277   2.523   4.844  0.00  0.00    +0.000 HD
ATOM     16  H   UNL     1      47.933   0.966   5.153  0.00  0.00    +0.000 HD
ENDBRANCH   8  14
ENDBRANCH   7  11
ENDBRANCH   1   7
BRANCH   4  17
ATOM     17  C   UNL     1      46.506   7.228  12.763  0.00  0.00    +0.000 C 
BRANCH  17  18
ATOM     18  N   UNL     1      46.940   6.775  14.062  0.00  0.00    +0.000 N 
ATOM     19  C   UNL     1      48.272   6.579  14.334  0.00  0.00    +0.000 C 
ATOM     20  O   UNL     1      49.141   6.804  13.495  0.00  0.00    +0.000 OA
ATOM     21  H   UNL     1      46.241   6.369  14.677  0.00  0.00    +0.000 HD
BRANCH  19  22
ATOM     22  C   UNL     1      48.617   6.146  15.695  0.00  0.00    +0.000 A 
ATOM     23  C   UNL     1      49.429   6.950  16.484  0.00  0.00    +0.000 A 
ATOM     24  S   UNL     1      49.693   6.334  18.051  0.00  0.00    +0.000 S 
ATOM     25  C   UNL     1      48.776   4.942  17.717  0.00  0.00    +0.000 A 
ATOM     26  N   UNL     1      48.620   3.966  18.652  0.00  0.00    +0.000 NA
ATOM     27  C   UNL     1      47.924   2.953  18.256  0.00  0.00    +0.000 A 
ATOM     28  N   UNL     1      47.365   2.830  17.012  0.00  0.00    +0.000 N 
ATOM     29  C   UNL     1      47.473   3.803  16.044  0.00  0.00    +0.000 A 
ATOM     30  O   UNL     1      46.927   3.682  14.953  0.00  0.00    +0.000 OA
ATOM     31  C   UNL     1      48.256   4.958  16.434  0.00  0.00    +0.000 A 
ATOM     32  H   UNL     1      46.822   2.015  16.768  0.00  0.00    +0.000 HD
ENDBRANCH  19  22
ENDBRANCH  17  18
ENDBRANCH   4  17
TORSDOF 6
ENDMDL
MODEL 2
REMARK VINA RESULT:    -8.941      1.594      2.166
REMARK INTER + INTRA:         -11.829
REMARK INTER:                 -11.515
REMARK INTRA:                  -0.314
REMARK UNBOUND:                -0.014
REMARK  Name = 
REMARK  6 active torsions:
REMARK  status: ('A' for Active; 'I' for Inactive)
REMARK    1  A    between atoms: N_1  and  C_2
REMARK    2  A    between atoms: C_5  and  C_6
REMARK    3  A    between atoms: C_6  and  C_7
REMARK    4  A    between atoms: C_10  and  C_11
REMARK    5  A    between atoms: C_11  and  N_12
REMARK    6  A    between atoms: C_13  and  C_15
REMARK                            x       y       z     vdW  Elec       q    Type
REMARK                         _______ _______ _______ _____ _____    ______ ____
ROOT
ATOM      1  C   UNL     1      44.935   4.224  10.428  0.00  0.00    +0.000 A 
ATOM      2  C   UNL     1      45.104   3.669  11.694  0.00  0.00    +0.000 A 
ATOM      3  C   UNL     1      45.767   4.404  12.677  0.00  0.00    +0.000 A 
ATOM      4  C   UNL     1      46.264   5.673  12.380  0.00  0.00    +0.000 A 
ATOM      5  C   UNL     1      46.049   6.149  11.092  0.00  0.00    +0.000 A 
ATOM      6  N   UNL     1      45.400   5.460  10.119  0.00  0.00    +0.000 NA
ENDROOT
BRANCH   1   7
ATOM      7  C   UNL     1      44.177   3.469   9.356  0.00  0.00    +0.000 C 
BRANCH   7  11
ATOM      8  C   UNL     1      47.651   2.216   6.933  0.00  0.00    +0.000 C 
ATOM      9  C   UNL     1      46.843   3.446   6.510  0.00  0.00    +0.000 C 
ATOM     10  C   UNL     1      46.026   4.000   7.676  0.00  0.00    +0.000 C 
ATOM     11  C   UNL     1      45.070   2.928   8.223  0.00  0.00    +0.000 C 
ATOM     12  C   UNL     1      45.893   1.715   8.698  0.00  0.00    +0.000 C 
ATOM     13  C   UNL     1      46.753   1.145   7.566  0.00  0.00    +0.000 C 
BRANCH   8  14
ATOM     14  N   UNL     1      48.361   1.657   5.783  0.00  0.00    +0.000 NA
ATOM     15  H   UNL     1      47.725   1.598   4.987  0.00  0.00    +0.000 HD
ATOM     16  H   UNL     1      48.635   0.696   5.984  0.00  0.00    +0.000 HD
ENDBRANCH   8  14
ENDBRANCH   7  11
ENDBRANCH   1   7
BRANCH   4  17
ATOM     17  C   UNL     1      46.956   6.504  13.420  0.00  0.00    +0.000 C 
BRANCH  17  18
ATOM     18  N   UNL     1      47.098   5.789  14.665  0.00  0.00    +0.000 N 
ATOM     19  C   UNL     1      48.284   5.802  15.357  0.00  0.00    +0.000 C 
ATOM     20  O   UNL     1      49.256   6.441  14.958  0.00  0.00    +0.000 OA
ATOM     21  H   UNL     1      46.400   5.083  14.885  0.00  0.00    +0.000 HD
BRANCH  19  22
ATOM     22  C   UNL     1      48.322   5.068  16.629  0.00  0.00    +0.000 A 
ATOM     23  C   UNL     1      48.173   3.688  16.628  0.00  0.00    +0.000 A 
ATOM     24  S   UNL     1      48.292   2.982  18.175  0.00  0.00    +0.000 S 
ATOM     25  C   UNL     1      48.493   4.500  18.912  0.00  0.00    +0.000 A 
ATOM     26  N   UNL     1      48.628   4.611  20.261  0.00  0.00    +0.000 NA
ATOM     27  C   UNL     1      48.745   5.823  20.689  0.00  0.00    +0.000 A 
ATOM     28  N   UNL     1      48.745   6.935  19.890  0.00  0.00    +0.000 N 
ATOM     29  C   UNL     1      48.639   6.871  18.519  0.00  0.00    +0.000 A 
ATOM     30  O   UNL     1      48.682   7.882  17.827  0.00  0.00    +0.000 OA
ATOM     31  C   UNL     1      48.493   5.531  17.988  0.00  0.00    +0.000 A 
ATOM     32  H   UNL     1      48.850   7.857  20.288  0.00  0.00    +0.000 HD
ENDBRANCH  19  22
ENDBRANCH  17  18
ENDBRANCH   4  17
TORSDOF 6
ENDMDL
MODEL 3
REMARK VINA RESULT:    -8.350      3.749      4.658
REMARK INTER + INTRA:         -11.049
REMARK INTER:                 -10.009
REMARK INTRA:                  -1.040
REMARK UNBOUND:                -0.014
REMARK  Name = 
REMARK  6 active torsions:
REMARK  status: ('A' for Active; 'I' for Inactive)
REMARK    1  A    between atoms: N_1  and  C_2
REMARK    2  A    between atoms: C_5  and  C_6
REMARK    3  A    between atoms: C_6  and  C_7
REMARK    4  A    between atoms: C_10  and  C_11
REMARK    5  A    between atoms: C_11  and  N_12
REMARK    6  A    between atoms: C_13  and  C_15
REMARK                            x       y       z     vdW  Elec       q    Type
REMARK                         _______ _______ _______ _____ _____    ______ ____
ROOT
ATOM      1  C   UNL     1      44.518   4.101  10.664  0.00  0.00    +0.000 A 
ATOM      2  C   UNL     1      43.500   5.041  10.525  0.00  0.00    +0.000 A 
ATOM      3  C   UNL     1      43.587   6.247  11.223  0.00  0.00    +0.000 A 
ATOM      4  C   UNL     1      44.677   6.490  12.057  0.00  0.00    +0.000 A 
ATOM      5  C   UNL     1      45.647   5.498  12.134  0.00  0.00    +0.000 A 
ATOM      6  N   UNL     1      45.593   4.320  11.461  0.00  0.00    +0.000 NA
ENDROOT
BRANCH   1   7
ATOM      7  C   UNL     1      44.475   2.805   9.882  0.00  0.00    +0.000 C 
BRANCH   7  11
ATOM      8  C   UNL     1      47.077   1.987   6.408  0.00  0.00    +0.000 C 
ATOM      9  C   UNL     1      46.992   0.961   7.542  0.00  0.00    +0.000 C 
ATOM     10  C   UNL     1      45.730   1.165   8.379  0.00  0.00    +0.000 C 
ATOM     11  C   UNL     1      45.698   2.582   8.972  0.00  0.00    +0.000 C 
ATOM     12  C   UNL     1      45.730   3.610   7.825  0.00  0.00    +0.000 C 
ATOM     13  C   UNL     1      46.966   3.422   6.940  0.00  0.00    +0.000 C 
BRANCH   8  14
ATOM     14  N   UNL     1      48.330   1.822   5.672  0.00  0.00    +0.000 NA
ATOM     15  H   UNL     1      48.207   2.150   4.713  0.00  0.00    +0.000 HD
ATOM     16  H   UNL     1      48.554   0.830   5.595  0.00  0.00    +0.000 HD
ENDBRANCH   8  14
ENDBRANCH   7  11
ENDBRANCH   1   7
BRANCH   4  17
ATOM     17  C   UNL     1      44.817   7.787  12.799  0.00  0.00    +0.000 C 
BRANCH  17  18
ATOM     18  N   UNL     1      46.183   8.253  12.801  0.00  0.00    +0.000 N 
ATOM     19  C   UNL     1      46.514   9.470  12.257  0.00  0.00    +0.000 C 
ATOM     20  O   UNL     1      45.664  10.214  11.775  0.00  0.00    +0.000 OA
ATOM     21  H   UNL     1      46.914   7.570  12.978  0.00  0.00    +0.000 HD
BRANCH  19  22
ATOM     22  C   UNL     1      47.926   9.871  12.334  0.00  0.00    +0.000 A 
ATOM     23  C   UNL     1      48.252  11.152  12.758  0.00  0.00    +0.000 A 
ATOM     24  S   UNL     1      49.929  11.443  12.842  0.00  0.00    +0.000 S 
ATOM     25  C   UNL     1      50.284   9.885  12.261  0.00  0.00    +0.000 A 
ATOM     26  N   UNL     1      51.570   9.486  12.068  0.00  0.00    +0.000 NA
ATOM     27  C   UNL     1      51.694   8.290  11.598  0.00  0.00    +0.000 A 
ATOM     28  N   UNL     1      50.648   7.455  11.308  0.00  0.00    +0.000 N 
ATOM     29  C   UNL     1      49.333   7.804  11.512  0.00  0.00    +0.000 A 
ATOM     30  O   UNL     1      48.420   7.020  11.281  0.00  0.00    +0.000 OA
ATOM     31  C   UNL     1      49.138   9.144  12.029  0.00  0.00    +0.000 A 
ATOM     32  H   UNL     1      50.813   6.525  10.950  0.00  0.00    +0.000 HD
ENDBRANCH  19  22
ENDBRANCH  17  18
ENDBRANCH   4  17
TORSDOF 6
ENDMDL
MODEL 4
REMARK VINA RESULT:    -7.845      1.728      2.308
REMARK INTER + INTRA:         -10.382
REMARK INTER:                  -9.470
REMARK INTRA:                  -0.912
REMARK UNBOUND:                -0.014
REMARK  Name = 
REMARK  6 active torsions:
REMARK  status: ('A' for Active; 'I' for Inactive)
REMARK    1  A    between atoms: N_1  and  C_2
REMARK    2  A    between atoms: C_5  and  C_6
REMARK    3  A    between atoms: C_6  and  C_7
REMARK    4  A    between atoms: C_10  and  C_11
REMARK    5  A    between atoms: C_11  and  N_12
REMARK    6  A    between atoms: C_13  and  C_15
REMARK                            x       y       z     vdW  Elec       q    Type
REMARK                         _______ _______ _______ _____ _____    ______ ____
ROOT
ATOM      1  C   UNL     1      44.804   5.096  10.853  0.00  0.00    +0.000 A 
ATOM      2  C   UNL     1      46.026   5.214  11.510  0.00  0.00    +0.000 A 
ATOM      3  C   UNL     1      46.333   6.407  12.167  0.00  0.00    +0.000 A 
ATOM      4  C   UNL     1      45.426   7.466  12.146  0.00  0.00    +0.000 A 
ATOM      5  C   UNL     1      44.231   7.259  11.467  0.00  0.00    +0.000 A 
ATOM      6  N   UNL     1      43.902   6.108  10.828  0.00  0.00    +0.000 NA
ENDROOT
BRANCH   1   7
ATOM      7  C   UNL     1      44.424   3.797  10.173  0.00  0.00    +0.000 C 
BRANCH   7  11
ATOM      8  C   UNL     1      46.691   2.004   6.834  0.00  0.00    +0.000 C 
ATOM      9  C   UNL     1      46.405   1.167   8.083  0.00  0.00    +0.000 C 
ATOM     10  C   UNL     1      45.242   1.749   8.885  0.00  0.00    +0.000 C 
ATOM     11  C   UNL     1      45.544   3.197   9.302  0.00  0.00    +0.000 C 
ATOM     12  C   UNL     1      45.777   4.047   8.038  0.00  0.00    +0.000 C 
ATOM     13  C   UNL     1      46.918   3.480   7.186  0.00  0.00    +0.000 C 
BRANCH   8  14
ATOM     14  N   UNL     1      47.858   1.475   6.127  0.00  0.00    +0.000 NA
ATOM     15  H   UNL     1      48.313   0.767   6.704  0.00  0.00    +0.000 HD
ATOM     16  H   UNL     1      48.549   2.215   6.006  0.00  0.00    +0.000 HD
ENDBRANCH   8  14
ENDBRANCH   7  11
ENDBRANCH   1   7
BRANCH   4  17
ATOM     17  C   UNL     1      45.710   8.752  12.865  0.00  0.00    +0.000 C 
BRANCH  17  18
ATOM     18  N   UNL     1      46.540   8.540  14.027  0.00  0.00    +0.000 N 
ATOM     19  C   UNL     1      47.857   8.928  14.034  0.00  0.00    +0.000 C 
ATOM     20  O   UNL     1      48.369   9.490  13.068  0.00  0.00    +0.000 OA
ATOM     21  H   UNL     1      46.209   7.884  14.729  0.00  0.00    +0.000 HD
BRANCH  19  22
ATOM     22  C   UNL     1      48.613   8.697  15.273  0.00  0.00    +0.000 A 
ATOM     23  C   UNL     1      49.192   9.774  15.931  0.00  0.00    +0.000 A 
ATOM     24  S   UNL     1      49.988   9.347  17.377  0.00  0.00    +0.000 S 
ATOM     25  C   UNL     1      49.634   7.700  17.151  0.00  0.00    +0.000 A 
ATOM     26  N   UNL     1      50.062   6.763  18.040  0.00  0.00    +0.000 NA
ATOM     27  C   UNL     1      49.747   5.550  17.731  0.00  0.00    +0.000 A 
ATOM     28  N   UNL     1      49.038   5.189  16.616  0.00  0.00    +0.000 N 
ATOM     29  C   UNL     1      48.561   6.102  15.704  0.00  0.00    +0.000 A 
ATOM     30  O   UNL     1      47.895   5.752  14.737  0.00  0.00    +0.000 OA
ATOM     31  C   UNL     1      48.898   7.481  15.998  0.00  0.00    +0.000 A 
ATOM     32  H   UNL     1      48.816   4.220  16.437  0.00  0.00    +0.000 HD
ENDBRANCH  19  22
ENDBRANCH  17  18
ENDBRANCH   4  17
TORSDOF 6
ENDMDL
MODEL 5
REMARK VINA RESULT:    -7.706      1.594      2.103
REMARK INTER + INTRA:         -10.198
REMARK INTER:                  -9.385
REMARK INTRA:                  -0.813
REMARK UNBOUND:                -0.014
REMARK  Name = 
REMARK  6 active torsions:
REMARK  status: ('A' for Active; 'I' for Inactive)
REMARK    1  A    between atoms: N_1  and  C_2
REMARK    2  A    between atoms: C_5  and  C_6
REMARK    3  A    between atoms: C_6  and  C_7
REMARK    4  A    between atoms: C_10  and  C_11
REMARK    5  A    between atoms: C_11  and  N_12
REMARK    6  A    between atoms: C_13  and  C_15
REMARK                            x       y       z     vdW  Elec       q    Type
REMARK                         _______ _______ _______ _____ _____    ______ ____
ROOT
ATOM      1  C   UNL     1      45.353   4.524  10.767  0.00  0.00    +0.000 A 
ATOM      2  C   UNL     1      45.242   4.121  12.096  0.00  0.00    +0.000 A 
ATOM      3  C   UNL     1      45.664   4.985  13.107  0.00  0.00    +0.000 A 
ATOM      4  C   UNL     1      46.205   6.227  12.779  0.00  0.00    +0.000 A 
ATOM      5  C   UNL     1      46.278   6.547  11.429  0.00  0.00    +0.000 A 
ATOM      6  N   UNL     1      45.866   5.731  10.425  0.00  0.00    +0.000 NA
ENDROOT
BRANCH   1   7
ATOM      7  C   UNL     1      44.858   3.627   9.652  0.00  0.00    +0.000 C 
BRANCH   7  11
ATOM      8  C   UNL     1      47.026   2.016   6.158  0.00  0.00    +0.000 C 
ATOM      9  C   UNL     1      47.029   1.231   7.472  0.00  0.00    +0.000 C 
ATOM     10  C   UNL     1      45.877   1.663   8.377  0.00  0.00    +0.000 C 
ATOM     11  C   UNL     1      45.964   3.166   8.683  0.00  0.00    +0.000 C 
ATOM     12  C   UNL     1      45.906   3.954   7.361  0.00  0.00    +0.000 C 
ATOM     13  C   UNL     1      47.028   3.530   6.408  0.00  0.00    +0.000 C 
BRANCH   8  14
ATOM     14  N   UNL     1      48.183   1.643   5.344  0.00  0.00    +0.000 NA
ATOM     15  H   UNL     1      48.724   0.928   5.830  0.00  0.00    +0.000 HD
ATOM     16  H   UNL     1      48.809   2.443   5.252  0.00  0.00    +0.000 HD
ENDBRANCH   8  14
ENDBRANCH   7  11
ENDBRANCH   1   7
BRANCH   4  17
ATOM     17  C   UNL     1      46.643   7.193  13.841  0.00  0.00    +0.000 C 
BRANCH  17  18
ATOM     18  N   UNL     1      47.875   6.775  14.466  0.00  0.00    +0.000 N 
ATOM     19  C   UNL     1      48.732   7.692  15.021  0.00  0.00    +0.000 C 
ATOM     20  O   UNL     1      48.474   8.894  15.030  0.00  0.00    +0.000 OA
ATOM     21  H   UNL     1      48.210   5.836  14.265  0.00  0.00    +0.000 HD
BRANCH  19  22
ATOM     22  C   UNL     1      49.947   7.167  15.660  0.00  0.00    +0.000 A 
ATOM     23  C   UNL     1      51.180   7.728  15.353  0.00  0.00    +0.000 A 
ATOM     24  S   UNL     1      52.481   7.044  16.215  0.00  0.00    +0.000 S 
ATOM     25  C   UNL     1      51.454   5.934  16.992  0.00  0.00    +0.000 A 
ATOM     26  N   UNL     1      51.948   5.016  17.866  0.00  0.00    +0.000 NA
ATOM     27  C   UNL     1      51.062   4.218  18.361  0.00  0.00    +0.000 A 
ATOM     28  N   UNL     1      49.725   4.258  18.065  0.00  0.00    +0.000 N 
ATOM     29  C   UNL     1      49.176   5.185  17.209  0.00  0.00    +0.000 A 
ATOM     30  O   UNL     1      47.970   5.221  16.995  0.00  0.00    +0.000 OA
ATOM     31  C   UNL     1      50.132   6.099  16.616  0.00  0.00    +0.000 A 
ATOM     32  H   UNL     1      49.082   3.610  18.495  0.00  0.00    +0.000 HD
ENDBRANCH  19  22
ENDBRANCH  17  18
ENDBRANCH   4  17
TORSDOF 6
ENDMDL
MODEL 6
REMARK VINA RESULT:    -7.604      4.095      6.283
REMARK INTER + INTRA:         -10.063
REMARK INTER:                  -8.947
REMARK INTRA:                  -1.116
REMARK UNBOUND:                -0.014
REMARK  Name = 
REMARK  6 active torsions:
REMARK  status: ('A' for Active; 'I' for Inactive)
REMARK    1  A    between atoms: N_1  and  C_2
REMARK    2  A    between atoms: C_5  and  C_6
REMARK    3  A    between atoms: C_6  and  C_7
REMARK    4  A    between atoms: C_10  and  C_11
REMARK    5  A    between atoms: C_11  and  N_12
REMARK    6  A    between atoms: C_13  and  C_15
REMARK                            x       y       z     vdW  Elec       q    Type
REMARK                         _______ _______ _______ _____ _____    ______ ____
ROOT
ATOM      1  C   UNL     1      47.283   4.306  15.072  0.00  0.00    +0.000 A 
ATOM      2  C   UNL     1      47.936   5.508  15.338  0.00  0.00    +0.000 A 
ATOM      3  C   UNL     1      48.509   5.707  16.594  0.00  0.00    +0.000 A 
ATOM      4  C   UNL     1      48.410   4.716  17.569  0.00  0.00    +0.000 A 
ATOM      5  C   UNL     1      47.742   3.549  17.217  0.00  0.00    +0.000 A 
ATOM      6  N   UNL     1      47.183   3.324  16.001  0.00  0.00    +0.000 NA
ENDROOT
BRANCH   1   7
ATOM      7  C   UNL     1      46.694   4.042  13.702  0.00  0.00    +0.000 C 
BRANCH   7  11
ATOM      8  C   UNL     1      43.594   6.238  11.448  0.00  0.00    +0.000 C 
ATOM      9  C   UNL     1      44.970   6.879  11.655  0.00  0.00    +0.000 C 
ATOM     10  C   UNL     1      46.022   5.828  12.004  0.00  0.00    +0.000 C 
ATOM     11  C   UNL     1      45.622   5.064  13.276  0.00  0.00    +0.000 C 
ATOM     12  C   UNL     1      44.263   4.377  13.044  0.00  0.00    +0.000 C 
ATOM     13  C   UNL     1      43.181   5.392  12.660  0.00  0.00    +0.000 C 
BRANCH   8  14
ATOM     14  N   UNL     1      42.589   7.271  11.195  0.00  0.00    +0.000 NA
ATOM     15  H   UNL     1      41.922   7.293  11.966  0.00  0.00    +0.000 HD
ATOM     16  H   UNL     1      42.043   7.021  10.370  0.00  0.00    +0.000 HD
ENDBRANCH   8  14
ENDBRANCH   7  11
ENDBRANCH   1   7
BRANCH   4  17
ATOM     17  C   UNL     1      49.040   4.884  18.921  0.00  0.00    +0.000 C 
BRANCH  17  18
ATOM     18  N   UNL     1      50.235   4.087  19.055  0.00  0.00    +0.000 N 
ATOM     19  C   UNL     1      51.469   4.608  18.752  0.00  0.00    +0.000 C 
ATOM     20  O   UNL     1      51.605   5.772  18.384  0.00  0.00    +0.000 OA
ATOM     21  H   UNL     1      50.124   3.080  19.130  0.00  0.00    +0.000 HD
BRANCH  19  22
ATOM     22  C   UNL     1      52.630   3.728  18.949  0.00  0.00    +0.000 A 
ATOM     23  C   UNL     1      53.692   4.161  19.731  0.00  0.00    +0.000 A 
ATOM     24  S   UNL     1      54.935   3.007  19.903  0.00  0.00    +0.000 S 
ATOM     25  C   UNL     1      54.124   1.904  18.894  0.00  0.00    +0.000 A 
ATOM     26  N   UNL     1      54.671   0.694  18.599  0.00  0.00    +0.000 NA
ATOM     27  C   UNL     1      53.962  -0.032  17.801  0.00  0.00    +0.000 A 
ATOM     28  N   UNL     1      52.753   0.340  17.275  0.00  0.00    +0.000 N 
ATOM     29  C   UNL     1      52.149   1.542  17.566  0.00  0.00    +0.000 A 
ATOM     30  O   UNL     1      51.048   1.830  17.112  0.00  0.00    +0.000 OA
ATOM     31  C   UNL     1      52.911   2.401  18.450  0.00  0.00    +0.000 A 
ATOM     32  H   UNL     1      52.244  -0.279  16.662  0.00  0.00    +0.000 HD
ENDBRANCH  19  22
ENDBRANCH  17  18
ENDBRANCH   4  17
TORSDOF 6
ENDMDL
MODEL 7
REMARK VINA RESULT:    -7.600      3.070      8.986
REMARK INTER + INTRA:         -10.058
REMARK INTER:                  -9.126
REMARK INTRA:                  -0.932
REMARK UNBOUND:                -0.014
REMARK  Name = 
REMARK  6 active torsions:
REMARK  status: ('A' for Active; 'I' for Inactive)
REMARK    1  A    between atoms: N_1  and  C_2
REMARK    2  A    between atoms: C_5  and  C_6
REMARK    3  A    between atoms: C_6  and  C_7
REMARK    4  A    between atoms: C_10  and  C_11
REMARK    5  A    between atoms: C_11  and  N_12
REMARK    6  A    between atoms: C_13  and  C_15
REMARK                            x       y       z     vdW  Elec       q    Type
REMARK                         _______ _______ _______ _____ _____    ______ ____
ROOT
ATOM      1  C   UNL     1      49.438   7.857  15.714  0.00  0.00    +0.000 A 
ATOM      2  C   UNL     1      48.467   8.837  15.520  0.00  0.00    +0.000 A 
ATOM      3  C   UNL     1      47.758   8.863  14.318  0.00  0.00    +0.000 A 
ATOM      4  C   UNL     1      48.038   7.926  13.325  0.00  0.00    +0.000 A 
ATOM      5  C   UNL     1      49.022   6.985  13.604  0.00  0.00    +0.000 A 
ATOM      6  N   UNL     1      49.720   6.929  14.767  0.00  0.00    +0.000 NA
ENDROOT
BRANCH   1   7
ATOM      7  C   UNL     1      50.189   7.774  17.027  0.00  0.00    +0.000 C 
BRANCH   7  11
ATOM      8  C   UNL     1      48.711   5.094  20.212  0.00  0.00    +0.000 C 
ATOM      9  C   UNL     1      50.220   5.267  20.014  0.00  0.00    +0.000 C 
ATOM     10  C   UNL     1      50.534   6.546  19.239  0.00  0.00    +0.000 C 
ATOM     11  C   UNL     1      49.840   6.531  17.868  0.00  0.00    +0.000 C 
ATOM     12  C   UNL     1      48.318   6.412  18.075  0.00  0.00    +0.000 C 
ATOM     13  C   UNL     1      47.959   5.156  18.876  0.00  0.00    +0.000 C 
BRANCH   8  14
ATOM     14  N   UNL     1      48.432   3.825  20.884  0.00  0.00    +0.000 NA
ATOM     15  H   UNL     1      47.472   3.827  21.229  0.00  0.00    +0.000 HD
ATOM     16  H   UNL     1      49.020   3.741  21.713  0.00  0.00    +0.000 HD
ENDBRANCH   8  14
ENDBRANCH   7  11
ENDBRANCH   1   7
BRANCH   4  17
ATOM     17  C   UNL     1      47.276   7.907  12.032  0.00  0.00    +0.000 C 
BRANCH  17  18
ATOM     18  N   UNL     1      46.663   6.622  11.794  0.00  0.00    +0.000 N 
ATOM     19  C   UNL     1      45.299   6.496  11.703  0.00  0.00    +0.000 C 
ATOM     20  O   UNL     1      44.554   7.469  11.795  0.00  0.00    +0.000 OA
ATOM     21  H   UNL     1      47.232   5.794  11.947  0.00  0.00    +0.000 HD
BRANCH  19  22
ATOM     22  C   UNL     1      44.771   5.152  11.430  0.00  0.00    +0.000 A 
ATOM     23  C   UNL     1      44.039   4.492  12.408  0.00  0.00    +0.000 A 
ATOM     24  S   UNL     1      43.455   2.968  11.918  0.00  0.00    +0.000 S 
ATOM     25  C   UNL     1      44.203   3.108  10.398  0.00  0.00    +0.000 A 
ATOM     26  N   UNL     1      44.115   2.109   9.479  0.00  0.00    +0.000 NA
ATOM     27  C   UNL     1      44.753   2.336   8.380  0.00  0.00    +0.000 A 
ATOM     28  N   UNL     1      45.467   3.474   8.113  0.00  0.00    +0.000 N 
ATOM     29  C   UNL     1      45.561   4.522   9.000  0.00  0.00    +0.000 A 
ATOM     30  O   UNL     1      46.174   5.545   8.717  0.00  0.00    +0.000 OA
ATOM     31  C   UNL     1      44.872   4.313  10.257  0.00  0.00    +0.000 A 
ATOM     32  H   UNL     1      45.937   3.594   7.228  0.00  0.00    +0.000 HD
ENDBRANCH  19  22
ENDBRANCH  17  18
ENDBRANCH   4  17
TORSDOF 6
ENDMDL
MODEL 8
REMARK VINA RESULT:    -7.459      3.690      8.316
REMARK INTER + INTRA:          -9.871
REMARK INTER:                  -8.979
REMARK INTRA:                  -0.892
REMARK UNBOUND:                -0.014
REMARK  Name = 
REMARK  6 active torsions:
REMARK  status: ('A' for Active; 'I' for Inactive)
REMARK    1  A    between atoms: N_1  and  C_2
REMARK    2  A    between atoms: C_5  and  C_6
REMARK    3  A    between atoms: C_6  and  C_7
REMARK    4  A    between atoms: C_10  and  C_11
REMARK    5  A    between atoms: C_11  and  N_12
REMARK    6  A    between atoms: C_13  and  C_15
REMARK                            x       y       z     vdW  Elec       q    Type
REMARK                         _______ _______ _______ _____ _____    ______ ____
ROOT
ATOM      1  C   UNL     1      49.856   4.691  17.202  0.00  0.00    +0.000 A 
ATOM      2  C   UNL     1      50.610   5.834  16.949  0.00  0.00    +0.000 A 
ATOM      3  C   UNL     1      50.098   6.811  16.093  0.00  0.00    +0.000 A 
ATOM      4  C   UNL     1      48.854   6.626  15.491  0.00  0.00    +0.000 A 
ATOM      5  C   UNL     1      48.171   5.456  15.801  0.00  0.00    +0.000 A 
ATOM      6  N   UNL     1      48.639   4.494  16.637  0.00  0.00    +0.000 NA
ENDROOT
BRANCH   1   7
ATOM      7  C   UNL     1      50.364   3.638  18.165  0.00  0.00    +0.000 C 
BRANCH   7  11
ATOM      8  C   UNL     1      54.068   1.235  18.072  0.00  0.00    +0.000 C 
ATOM      9  C   UNL     1      54.164   2.760  18.158  0.00  0.00    +0.000 C 
ATOM     10  C   UNL     1      52.855   3.369  18.659  0.00  0.00    +0.000 C 
ATOM     11  C   UNL     1      51.691   2.984  17.733  0.00  0.00    +0.000 C 
ATOM     12  C   UNL     1      51.565   1.450  17.692  0.00  0.00    +0.000 C 
ATOM     13  C   UNL     1      52.868   0.794  17.224  0.00  0.00    +0.000 C 
BRANCH   8  14
ATOM     14  N   UNL     1      55.303   0.682  17.515  0.00  0.00    +0.000 NA
ATOM     15  H   UNL     1      55.075  -0.036  16.828  0.00  0.00    +0.000 HD
ATOM     16  H   UNL     1      55.825   0.202  18.249  0.00  0.00    +0.000 HD
ENDBRANCH   8  14
ENDBRANCH   7  11
ENDBRANCH   1   7
BRANCH   4  17
ATOM     17  C   UNL     1      48.261   7.667  14.588  0.00  0.00    +0.000 C 
BRANCH  17  18
ATOM     18  N   UNL     1      47.017   7.222  14.008  0.00  0.00    +0.000 N 
ATOM     19  C   UNL     1      46.975   6.705  12.737  0.00  0.00    +0.000 C 
ATOM     20  O   UNL     1      47.992   6.578  12.059  0.00  0.00    +0.000 OA
ATOM     21  H   UNL     1      46.155   7.529  14.451  0.00  0.00    +0.000 HD
BRANCH  19  22
ATOM     22  C   UNL     1      45.666   6.252  12.245  0.00  0.00    +0.000 A 
ATOM     23  C   UNL     1      44.788   7.174  11.690  0.00  0.00    +0.000 A 
ATOM     24  S   UNL     1      43.337   6.483  11.120  0.00  0.00    +0.000 S 
ATOM     25  C   UNL     1      43.805   4.934  11.643  0.00  0.00    +0.000 A 
ATOM     26  N   UNL     1      42.983   3.863  11.479  0.00  0.00    +0.000 NA
ATOM     27  C   UNL     1      43.452   2.754  11.946  0.00  0.00    +0.000 A 
ATOM     28  N   UNL     1      44.670   2.618  12.558  0.00  0.00    +0.000 N 
ATOM     29  C   UNL     1      45.545   3.668  12.721  0.00  0.00    +0.000 A 
ATOM     30  O   UNL     1      46.646   3.507  13.237  0.00  0.00    +0.000 OA
ATOM     31  C   UNL     1      45.062   4.940  12.224  0.00  0.00    +0.000 A 
ATOM     32  H   UNL     1      44.982   1.719  12.893  0.00  0.00    +0.000 HD
ENDBRANCH  19  22
ENDBRANCH  17  18
ENDBRANCH   4  17
TORSDOF 6
ENDMDL
MODEL 9
REMARK VINA RESULT:    -7.391      3.310      4.984
REMARK INTER + INTRA:          -9.782
REMARK INTER:                  -8.699
REMARK INTRA:                  -1.082
REMARK UNBOUND:                -0.014
REMARK  Name = 
REMARK  6 active torsions:
REMARK  status: ('A' for Active; 'I' for Inactive)
REMARK    1  A    between atoms: N_1  and  C_2
REMARK    2  A    between atoms: C_5  and  C_6
REMARK    3  A    between atoms: C_6  and  C_7
REMARK    4  A    between atoms: C_10  and  C_11
REMARK    5  A    between atoms: C_11  and  N_12
REMARK    6  A    between atoms: C_13  and  C_15
REMARK                            x       y       z     vdW  Elec       q    Type
REMARK                         _______ _______ _______ _____ _____    ______ ____
ROOT
ATOM      1  C   UNL     1      47.031   7.174  13.291  0.00  0.00    +0.000 A 
ATOM      2  C   UNL     1      47.652   6.078  13.885  0.00  0.00    +0.000 A 
ATOM      3  C   UNL     1      48.578   6.292  14.908  0.00  0.00    +0.000 A 
ATOM      4  C   UNL     1      48.882   7.592  15.310  0.00  0.00    +0.000 A 
ATOM      5  C   UNL     1      48.214   8.625  14.662  0.00  0.00    +0.000 A 
ATOM      6  N   UNL     1      47.303   8.446  13.672  0.00  0.00    +0.000 NA
ENDROOT
BRANCH   1   7
ATOM      7  C   UNL     1      45.987   6.969  12.213  0.00  0.00    +0.000 C 
BRANCH   7  11
ATOM      8  C   UNL     1      43.350   3.497  11.510  0.00  0.00    +0.000 C 
ATOM      9  C   UNL     1      43.530   4.027  12.935  0.00  0.00    +0.000 C 
ATOM     10  C   UNL     1      44.052   5.463  12.928  0.00  0.00    +0.000 C 
ATOM     11  C   UNL     1      45.393   5.548  12.181  0.00  0.00    +0.000 C 
ATOM     12  C   UNL     1      45.193   5.064  10.733  0.00  0.00    +0.000 C 
ATOM     13  C   UNL     1      44.641   3.635  10.692  0.00  0.00    +0.000 C 
BRANCH   8  14
ATOM     14  N   UNL     1      42.928   2.096  11.543  0.00  0.00    +0.000 NA
ATOM     15  H   UNL     1      43.387   1.585  10.788  0.00  0.00    +0.000 HD
ATOM     16  H   UNL     1      41.929   2.036  11.345  0.00  0.00    +0.000 HD
ENDBRANCH   8  14
ENDBRANCH   7  11
ENDBRANCH   1   7
BRANCH   4  17
ATOM     17  C   UNL     1      49.850   7.858  16.425  0.00  0.00    +0.000 C 
BRANCH  17  18
ATOM     18  N   UNL     1      50.716   6.728  16.660  0.00  0.00    +0.000 N 
ATOM     19  C   UNL     1      51.056   6.352  17.936  0.00  0.00    +0.000 C 
ATOM     20  O   UNL     1      50.619   6.944  18.921  0.00  0.00    +0.000 OA
ATOM     21  H   UNL     1      51.261   6.381  15.876  0.00  0.00    +0.000 HD
BRANCH  19  22
ATOM     22  C   UNL     1      51.919   5.170  18.075  0.00  0.00    +0.000 A 
ATOM     23  C   UNL     1      53.220   5.323  18.534  0.00  0.00    +0.000 A 
ATOM     24  S   UNL     1      54.071   3.855  18.689  0.00  0.00    +0.000 S 
ATOM     25  C   UNL     1      52.751   2.963  18.096  0.00  0.00    +0.000 A 
ATOM     26  N   UNL     1      52.828   1.613  17.947  0.00  0.00    +0.000 NA
ATOM     27  C   UNL     1      51.763   1.068  17.462  0.00  0.00    +0.000 A 
ATOM     28  N   UNL     1      50.626   1.749  17.116  0.00  0.00    +0.000 N 
ATOM     29  C   UNL     1      50.492   3.109  17.274  0.00  0.00    +0.000 A 
ATOM     30  O   UNL     1      49.448   3.686  16.993  0.00  0.00    +0.000 OA
ATOM     31  C   UNL     1      51.666   3.773  17.806  0.00  0.00    +0.000 A 
ATOM     32  H   UNL     1      49.823   1.260  16.749  0.00  0.00    +0.000 HD
ENDBRANCH  19  22
ENDBRANCH  17  18
ENDBRANCH   4  17
TORSDOF 6
ENDMDL
