MODEL 1
REMARK VINA RESULT:    -8.189      0.000      0.000
REMARK INTER + INTRA:         -14.406
REMARK INTER:                 -12.736
REMARK INTRA:                  -1.670
REMARK UNBOUND:                -1.670
REMARK  Name = 
REMARK  11 active torsions:
REMARK  status: ('A' for Active; 'I' for Inactive)
REMARK    1  A    between atoms: C_1  and  O_2
REMARK    2  A    between atoms: O_2  and  C_3
REMARK    3  A    between atoms: C_10  and  C_11
REMARK    4  A    between atoms: N_13  and  C_14
REMARK    5  A    between atoms: C_14  and  C_15
REMARK    6  A    between atoms: C_18  and  O_19
REMARK    7  A    between atoms: O_19  and  C_20
REMARK    8  A    between atoms: C_20  and  C_21
REMARK    9  A    between atoms: C_21  and  C_22
REMARK   10  A    between atoms: C_21  and  C_24
REMARK   11  A    between atoms: C_22  and  O_23
REMARK                            x       y       z     vdW  Elec       q    Type
REMARK                         _______ _______ _______ _____ _____    ______ ____
ROOT
ATOM      1  C   UNL     1      46.427   7.125  12.528  0.00  0.00    +0.000 A 
ATOM      2  C   UNL     1      46.825   6.722  11.247  0.00  0.00    +0.000 A 
ATOM      3  C   UNL     1      45.955   5.999  10.419  0.00  0.00    +0.000 A 
ATOM      4  C   UNL     1      44.674   5.671  10.861  0.00  0.00    +0.000 A 
ATOM      5  C   UNL     1      44.250   6.128  12.110  0.00  0.00    +0.000 A 
ATOM      6  C   UNL     1      45.117   6.849  12.939  0.00  0.00    +0.000 A 
ENDROOT
BRANCH   1   7
ATOM      7  C   UNL     1      47.378   7.868  13.432  0.00  0.00    +0.000 C 
BRANCH   7  10
ATOM      8  C   UNL     1      48.984   6.881  15.015  0.00  0.00    +0.000 C 
ATOM      9  O   UNL     1      49.935   7.332  14.387  0.00  0.00    +0.000 OA
ATOM     10  N   UNL     1      47.694   7.099  14.609  0.00  0.00    +0.000 N 
ATOM     11  H   UNL     1      46.927   6.663  15.101  0.00  0.00    +0.000 HD
BRANCH   8  19
ATOM     12  C   UNL     1      47.327   4.185  16.367  0.00  0.00    +0.000 A 
ATOM     13  N   UNL     1      46.875   3.146  17.100  0.00  0.00    +0.000 NA
ATOM     14  C   UNL     1      47.512   2.860  18.238  0.00  0.00    +0.000 A 
ATOM     15  N   UNL     1      48.564   3.493  18.749  0.00  0.00    +0.000 NA
ATOM     16  C   UNL     1      48.986   4.514  17.984  0.00  0.00    +0.000 A 
ATOM     17  S   UNL     1      50.321   5.438  18.480  0.00  0.00    +0.000 S 
ATOM     18  C   UNL     1      50.216   6.425  17.101  0.00  0.00    +0.000 A 
ATOM     19  C   UNL     1      49.176   6.079  16.239  0.00  0.00    +0.000 A 
ATOM     20  C   UNL     1      48.443   4.936  16.775  0.00  0.00    +0.000 A 
BRANCH  12  22
ATOM     21  C   UNL     1      47.069   3.569  14.125  0.00  0.00    +0.000 C 
ATOM     22  O   UNL     1      46.691   4.457  15.175  0.00  0.00    +0.000 OA
ENDBRANCH  12  22
ENDBRANCH   8  19
ENDBRANCH   7  10
ENDBRANCH   1   7
BRANCH   4  23
ATOM     23  O   UNL     1      43.748   4.945  10.162  0.00  0.00    +0.000 OA
BRANCH  23  24
ATOM     24  C   UNL     1      44.205   4.324   8.953  0.00  0.00    +0.000 C 
BRANCH  24  25
ATOM     25  C   UNL     1      45.064   3.073   9.244  0.00  0.00    +0.000 C 
BRANCH  25  26
ATOM     26  C   UNL     1      45.958   2.685   8.068  0.00  0.00    +0.000 A 
ATOM     27  C   UNL     1      46.503   1.395   7.985  0.00  0.00    +0.000 A 
ATOM     28  C   UNL     1      47.286   1.021   6.888  0.00  0.00    +0.000 A 
ATOM     29  C   UNL     1      47.537   1.930   5.863  0.00  0.00    +0.000 A 
ATOM     30  C   UNL     1      47.014   3.217   5.939  0.00  0.00    +0.000 A 
ATOM     31  C   UNL     1      46.236   3.589   7.032  0.00  0.00    +0.000 A 
ENDBRANCH  25  26
BRANCH  25  32
ATOM     32  C   UNL     1      44.241   1.879   9.769  0.00  0.00    +0.000 C 
BRANCH  32  33
ATOM     33  O   UNL     1      43.529   2.132  10.976  0.00  0.00    +0.000 OA
ATOM     34  H   UNL     1      44.171   2.470  11.629  0.00  0.00    +0.000 HD
ENDBRANCH  32  33
ENDBRANCH  25  32
ENDBRANCH  24  25
ENDBRANCH  23  24
ENDBRANCH   4  23
TORSDOF 10
ENDMDL
MODEL 2
REMARK VINA RESULT:    -7.632      1.806      2.307
REMARK INTER + INTRA:         -13.540
REMARK INTER:                 -12.028
REMARK INTRA:                  -1.512
REMARK UNBOUND:                -1.670
REMARK  Name = 
REMARK  11 active torsions:
REMARK  status: ('A' for Active; 'I' for Inactive)
REMARK    1  A    between atoms: C_1  and  O_2
REMARK    2  A    between atoms: O_2  and  C_3
REMARK    3  A    between atoms: C_10  and  C_11
REMARK    4  A    between atoms: N_13  and  C_14
REMARK    5  A    between atoms: C_14  and  C_15
REMARK    6  A    between atoms: C_18  and  O_19
REMARK    7  A    between atoms: O_19  and  C_20
REMARK    8  A    between atoms: C_20  and  C_21
REMARK    9  A    between atoms: C_21  and  C_22
REMARK   10  A    between atoms: C_21  and  C_24
REMARK   11  A    between atoms: C_22  and  O_23
REMARK                            x       y       z     vdW  Elec       q    Type
REMARK                         _______ _______ _______ _____ _____    ______ ____
ROOT
ATOM      1  C   UNL     1      47.224   6.314  12.970  0.00  0.00    +0.000 A 
ATOM      2  C   UNL     1      46.389   5.365  13.573  0.00  0.00    +0.000 A 
ATOM      3  C   UNL     1      45.239   4.903  12.920  0.00  0.00    +0.000 A 
ATOM      4  C   UNL     1      44.908   5.383  11.654  0.00  0.00    +0.000 A 
ATOM      5  C   UNL     1      45.772   6.278  11.021  0.00  0.00    +0.000 A 
ATOM      6  C   UNL     1      46.921   6.742  11.671  0.00  0.00    +0.000 A 
ENDROOT
BRANCH   1   7
ATOM      7  C   UNL     1      48.440   6.840  13.690  0.00  0.00    +0.000 C 
BRANCH   7  10
ATOM      8  C   UNL     1      49.106   6.765  16.059  0.00  0.00    +0.000 C 
ATOM      9  O   UNL     1      50.214   6.328  15.771  0.00  0.00    +0.000 OA
ATOM     10  N   UNL     1      48.175   7.042  15.093  0.00  0.00    +0.000 N 
ATOM     11  H   UNL     1      47.245   7.337  15.353  0.00  0.00    +0.000 HD
BRANCH   8  19
ATOM     12  C   UNL     1      48.920   4.778  18.863  0.00  0.00    +0.000 A 
ATOM     13  N   UNL     1      48.766   4.239  20.089  0.00  0.00    +0.000 NA
ATOM     14  C   UNL     1      48.333   5.033  21.072  0.00  0.00    +0.000 A 
ATOM     15  N   UNL     1      48.027   6.324  20.982  0.00  0.00    +0.000 NA
ATOM     16  C   UNL     1      48.203   6.822  19.747  0.00  0.00    +0.000 A 
ATOM     17  S   UNL     1      47.861   8.458  19.445  0.00  0.00    +0.000 S 
ATOM     18  C   UNL     1      48.300   8.301  17.811  0.00  0.00    +0.000 A 
ATOM     19  C   UNL     1      48.714   7.017  17.460  0.00  0.00    +0.000 A 
ATOM     20  C   UNL     1      48.651   6.137  18.622  0.00  0.00    +0.000 A 
BRANCH  12  22
ATOM     21  C   UNL     1      50.805   3.737  17.949  0.00  0.00    +0.000 C 
ATOM     22  O   UNL     1      49.401   3.966  17.858  0.00  0.00    +0.000 OA
ENDBRANCH  12  22
ENDBRANCH   8  19
ENDBRANCH   7  10
ENDBRANCH   1   7
BRANCH   4  23
ATOM     23  O   UNL     1      43.799   5.034  10.931  0.00  0.00    +0.000 OA
BRANCH  23  24
ATOM     24  C   UNL     1      44.033   4.415   9.660  0.00  0.00    +0.000 C 
BRANCH  24  25
ATOM     25  C   UNL     1      44.849   3.110   9.804  0.00  0.00    +0.000 C 
BRANCH  25  26
ATOM     26  C   UNL     1      45.679   2.794   8.561  0.00  0.00    +0.000 A 
ATOM     27  C   UNL     1      46.147   1.491   8.332  0.00  0.00    +0.000 A 
ATOM     28  C   UNL     1      46.870   1.187   7.174  0.00  0.00    +0.000 A 
ATOM     29  C   UNL     1      47.137   2.178   6.234  0.00  0.00    +0.000 A 
ATOM     30  C   UNL     1      46.691   3.478   6.454  0.00  0.00    +0.000 A 
ATOM     31  C   UNL     1      45.973   3.779   7.608  0.00  0.00    +0.000 A 
ENDBRANCH  25  26
BRANCH  25  32
ATOM     32  C   UNL     1      43.996   1.907  10.256  0.00  0.00    +0.000 C 
BRANCH  32  33
ATOM     33  O   UNL     1      43.198   2.145  11.411  0.00  0.00    +0.000 OA
ATOM     34  H   UNL     1      42.335   1.714  11.264  0.00  0.00    +0.000 HD
ENDBRANCH  32  33
ENDBRANCH  25  32
ENDBRANCH  24  25
ENDBRANCH  23  24
ENDBRANCH   4  23
TORSDOF 10
ENDMDL
MODEL 3
REMARK VINA RESULT:    -7.606      2.309      3.068
REMARK INTER + INTRA:         -13.500
REMARK INTER:                 -11.770
REMARK INTRA:                  -1.730
REMARK UNBOUND:                -1.670
REMARK  Name = 
REMARK  11 active torsions:
REMARK  status: ('A' for Active; 'I' for Inactive)
REMARK    1  A    between atoms: C_1  and  O_2
REMARK    2  A    between atoms: O_2  and  C_3
REMARK    3  A    between atoms: C_10  and  C_11
REMARK    4  A    between atoms: N_13  and  C_14
REMARK    5  A    between atoms: C_14  and  C_15
REMARK    6  A    between atoms: C_18  and  O_19
REMARK    7  A    between atoms: O_19  and  C_20
REMARK    8  A    between atoms: C_20  and  C_21
REMARK    9  A    between atoms: C_21  and  C_22
REMARK   10  A    between atoms: C_21  and  C_24
REMARK   11  A    between atoms: C_22  and  O_23
REMARK                            x       y       z     vdW  Elec       q    Type
REMARK                         _______ _______ _______ _____ _____    ______ ____
ROOT
ATOM      1  C   UNL     1      47.383   6.260  13.053  0.00  0.00    +0.000 A 
ATOM      2  C   UNL     1      46.645   5.162  13.515  0.00  0.00    +0.000 A 
ATOM      3  C   UNL     1      45.561   4.665  12.780  0.00  0.00    +0.000 A 
ATOM      4  C   UNL     1      45.200   5.259  11.571  0.00  0.00    +0.000 A 
ATOM      5  C   UNL     1      45.973   6.310  11.074  0.00  0.00    +0.000 A 
ATOM      6  C   UNL     1      47.055   6.809  11.807  0.00  0.00    +0.000 A 
ENDROOT
BRANCH   1   7
ATOM      7  C   UNL     1      48.525   6.818  13.865  0.00  0.00    +0.000 C 
BRANCH   7  10
ATOM      8  C   UNL     1      49.162   6.492  16.220  0.00  0.00    +0.000 C 
ATOM      9  O   UNL     1      50.309   6.197  15.907  0.00  0.00    +0.000 OA
ATOM     10  N   UNL     1      48.223   6.809  15.274  0.00  0.00    +0.000 N 
ATOM     11  H   UNL     1      47.266   6.983  15.546  0.00  0.00    +0.000 HD
BRANCH   8  19
ATOM     12  C   UNL     1      47.838   8.942  18.242  0.00  0.00    +0.000 A 
ATOM     13  N   UNL     1      47.314   9.696  19.230  0.00  0.00    +0.000 NA
ATOM     14  C   UNL     1      47.131   9.125  20.423  0.00  0.00    +0.000 A 
ATOM     15  N   UNL     1      47.413   7.871  20.763  0.00  0.00    +0.000 NA
ATOM     16  C   UNL     1      47.924   7.153  19.748  0.00  0.00    +0.000 A 
ATOM     17  S   UNL     1      48.345   5.528  19.999  0.00  0.00    +0.000 S 
ATOM     18  C   UNL     1      48.863   5.359  18.389  0.00  0.00    +0.000 A 
ATOM     19  C   UNL     1      48.729   6.521  17.631  0.00  0.00    +0.000 A 
ATOM     20  C   UNL     1      48.169   7.591  18.451  0.00  0.00    +0.000 A 
BRANCH  12  22
ATOM     21  C   UNL     1      49.235  10.204  16.854  0.00  0.00    +0.000 C 
ATOM     22  O   UNL     1      47.992   9.522  17.001  0.00  0.00    +0.000 OA
ENDBRANCH  12  22
ENDBRANCH   8  19
ENDBRANCH   7  10
ENDBRANCH   1   7
BRANCH   4  23
ATOM     23  O   UNL     1      44.146   4.887  10.781  0.00  0.00    +0.000 OA
BRANCH  23  24
ATOM     24  C   UNL     1      44.468   4.414   9.466  0.00  0.00    +0.000 C 
BRANCH  24  25
ATOM     25  C   UNL     1      45.124   3.016   9.509  0.00  0.00    +0.000 C 
BRANCH  25  26
ATOM     26  C   UNL     1      45.922   2.701   8.246  0.00  0.00    +0.000 A 
ATOM     27  C   UNL     1      46.460   1.421   8.046  0.00  0.00    +0.000 A 
ATOM     28  C   UNL     1      47.153   1.114   6.870  0.00  0.00    +0.000 A 
ATOM     29  C   UNL     1      47.321   2.081   5.883  0.00  0.00    +0.000 A 
ATOM     30  C   UNL     1      46.806   3.360   6.073  0.00  0.00    +0.000 A 
ATOM     31  C   UNL     1      46.116   3.664   7.245  0.00  0.00    +0.000 A 
ENDBRANCH  25  26
BRANCH  25  32
ATOM     32  C   UNL     1      44.133   1.890   9.869  0.00  0.00    +0.000 C 
BRANCH  32  33
ATOM     33  O   UNL     1      43.420   2.092  11.084  0.00  0.00    +0.000 OA
ATOM     34  H   UNL     1      44.074   2.116  11.807  0.00  0.00    +0.000 HD
ENDBRANCH  32  33
ENDBRANCH  25  32
ENDBRANCH  24  25
ENDBRANCH  23  24
ENDBRANCH   4  23
TORSDOF 10
ENDMDL
MODEL 4
REMARK VINA RESULT:    -7.305      2.446      3.287
REMARK INTER + INTRA:         -13.031
REMARK INTER:                 -11.557
REMARK INTRA:                  -1.474
REMARK UNBOUND:                -1.670
REMARK  Name = 
REMARK  11 active torsions:
REMARK  status: ('A' for Active; 'I' for Inactive)
REMARK    1  A    between atoms: C_1  and  O_2
REMARK    2  A    between atoms: O_2  and  C_3
REMARK    3  A    between atoms: C_10  and  C_11
REMARK    4  A    between atoms: N_13  and  C_14
REMARK    5  A    between atoms: C_14  and  C_15
REMARK    6  A    between atoms: C_18  and  O_19
REMARK    7  A    between atoms: O_19  and  C_20
REMARK    8  A    between atoms: C_20  and  C_21
REMARK    9  A    between atoms: C_21  and  C_22
REMARK   10  A    between atoms: C_21  and  C_24
REMARK   11  A    between atoms: C_22  and  O_23
REMARK                            x       y       z     vdW  Elec       q    Type
REMARK                         _______ _______ _______ _____ _____    ______ ____
ROOT
ATOM      1  C   UNL     1      48.227   6.482  14.795  0.00  0.00    +0.000 A 
ATOM      2  C   UNL     1      47.533   5.294  15.056  0.00  0.00    +0.000 A 
ATOM      3  C   UNL     1      46.642   4.761  14.115  0.00  0.00    +0.000 A 
ATOM      4  C   UNL     1      46.433   5.411  12.899  0.00  0.00    +0.000 A 
ATOM      5  C   UNL     1      47.172   6.558  12.607  0.00  0.00    +0.000 A 
ATOM      6  C   UNL     1      48.062   7.092  13.546  0.00  0.00    +0.000 A 
ENDROOT
BRANCH   1   7
ATOM      7  C   UNL     1      49.156   7.075  15.826  0.00  0.00    +0.000 C 
BRANCH   7  10
ATOM      8  C   UNL     1      50.447   5.975  17.609  0.00  0.00    +0.000 C 
ATOM      9  O   UNL     1      49.934   6.683  18.467  0.00  0.00    +0.000 OA
ATOM     10  N   UNL     1      50.119   6.106  16.286  0.00  0.00    +0.000 N 
ATOM     11  H   UNL     1      50.602   5.561  15.586  0.00  0.00    +0.000 HD
BRANCH   8  19
ATOM     12  C   UNL     1      50.553   2.556  17.224  0.00  0.00    +0.000 A 
ATOM     13  N   UNL     1      50.851   1.241  17.191  0.00  0.00    +0.000 NA
ATOM     14  C   UNL     1      52.019   0.851  17.708  0.00  0.00    +0.000 A 
ATOM     15  N   UNL     1      52.946   1.624  18.266  0.00  0.00    +0.000 NA
ATOM     16  C   UNL     1      52.613   2.926  18.270  0.00  0.00    +0.000 A 
ATOM     17  S   UNL     1      53.679   4.063  18.944  0.00  0.00    +0.000 S 
ATOM     18  C   UNL     1      52.620   5.344  18.587  0.00  0.00    +0.000 A 
ATOM     19  C   UNL     1      51.445   4.943  17.953  0.00  0.00    +0.000 A 
ATOM     20  C   UNL     1      51.447   3.495  17.768  0.00  0.00    +0.000 A 
BRANCH  12  22
ATOM     21  C   UNL     1      48.261   2.881  17.558  0.00  0.00    +0.000 C 
ATOM     22  O   UNL     1      49.363   2.961  16.658  0.00  0.00    +0.000 OA
ENDBRANCH  12  22
ENDBRANCH   8  19
ENDBRANCH   7  10
ENDBRANCH   1   7
BRANCH   4  23
ATOM     23  O   UNL     1      45.568   5.009  11.917  0.00  0.00    +0.000 OA
BRANCH  23  24
ATOM     24  C   UNL     1      45.411   3.595  11.742  0.00  0.00    +0.000 C 
BRANCH  24  25
ATOM     25  C   UNL     1      44.498   3.267  10.539  0.00  0.00    +0.000 C 
BRANCH  25  26
ATOM     26  C   UNL     1      45.284   3.015   9.254  0.00  0.00    +0.000 A 
ATOM     27  C   UNL     1      45.687   4.089   8.445  0.00  0.00    +0.000 A 
ATOM     28  C   UNL     1      46.444   3.867   7.291  0.00  0.00    +0.000 A 
ATOM     29  C   UNL     1      46.806   2.572   6.928  0.00  0.00    +0.000 A 
ATOM     30  C   UNL     1      46.401   1.496   7.712  0.00  0.00    +0.000 A 
ATOM     31  C   UNL     1      45.646   1.719   8.861  0.00  0.00    +0.000 A 
ENDBRANCH  25  26
BRANCH  25  32
ATOM     32  C   UNL     1      43.367   4.297  10.338  0.00  0.00    +0.000 C 
BRANCH  32  33
ATOM     33  O   UNL     1      42.589   4.560  11.500  0.00  0.00    +0.000 OA
ATOM     34  H   UNL     1      43.006   4.087  12.245  0.00  0.00    +0.000 HD
ENDBRANCH  32  33
ENDBRANCH  25  32
ENDBRANCH  24  25
ENDBRANCH  23  24
ENDBRANCH   4  23
TORSDOF 10
ENDMDL
MODEL 5
REMARK VINA RESULT:    -6.576      3.573      8.063
REMARK INTER + INTRA:         -11.898
REMARK INTER:                 -10.072
REMARK INTRA:                  -1.826
REMARK UNBOUND:                -1.670
REMARK  Name = 
REMARK  11 active torsions:
REMARK  status: ('A' for Active; 'I' for Inactive)
REMARK    1  A    between atoms: C_1  and  O_2
REMARK    2  A    between atoms: O_2  and  C_3
REMARK    3  A    between atoms: C_10  and  C_11
REMARK    4  A    between atoms: N_13  and  C_14
REMARK    5  A    between atoms: C_14  and  C_15
REMARK    6  A    between atoms: C_18  and  O_19
REMARK    7  A    between atoms: O_19  and  C_20
REMARK    8  A    between atoms: C_20  and  C_21
REMARK    9  A    between atoms: C_21  and  C_22
REMARK   10  A    between atoms: C_21  and  C_24
REMARK   11  A    between atoms: C_22  and  O_23
REMARK                            x       y       z     vdW  Elec       q    Type
REMARK                         _______ _______ _______ _____ _____    ______ ____
ROOT
ATOM      1  C   UNL     1      48.515   7.939  13.413  0.00  0.00    +0.000 A 
ATOM      2  C   UNL     1      49.033   6.810  14.061  0.00  0.00    +0.000 A 
ATOM      3  C   UNL     1      49.124   6.763  15.458  0.00  0.00    +0.000 A 
ATOM      4  C   UNL     1      48.699   7.845  16.228  0.00  0.00    +0.000 A 
ATOM      5  C   UNL     1      48.121   8.945  15.591  0.00  0.00    +0.000 A 
ATOM      6  C   UNL     1      48.030   8.995  14.195  0.00  0.00    +0.000 A 
ENDROOT
BRANCH   1   7
ATOM      7  C   UNL     1      48.454   8.004  11.907  0.00  0.00    +0.000 C 
BRANCH   7  10
ATOM      8  C   UNL     1      46.326   6.913  11.326  0.00  0.00    +0.000 C 
ATOM      9  O   UNL     1      45.680   7.859  11.761  0.00  0.00    +0.000 OA
ATOM     10  N   UNL     1      47.695   6.906  11.363  0.00  0.00    +0.000 N 
ATOM     11  H   UNL     1      48.208   6.090  11.062  0.00  0.00    +0.000 HD
BRANCH   8  19
ATOM     12  C   UNL     1      44.504   4.313  12.657  0.00  0.00    +0.000 A 
ATOM     13  N   UNL     1      43.769   3.211  12.907  0.00  0.00    +0.000 NA
ATOM     14  C   UNL     1      43.436   2.432  11.875  0.00  0.00    +0.000 A 
ATOM     15  N   UNL     1      43.753   2.618  10.597  0.00  0.00    +0.000 NA
ATOM     16  C   UNL     1      44.477   3.731  10.390  0.00  0.00    +0.000 A 
ATOM     17  S   UNL     1      44.973   4.129   8.816  0.00  0.00    +0.000 S 
ATOM     18  C   UNL     1      45.760   5.532   9.364  0.00  0.00    +0.000 A 
ATOM     19  C   UNL     1      45.665   5.730  10.740  0.00  0.00    +0.000 A 
ATOM     20  C   UNL     1      44.898   4.647  11.349  0.00  0.00    +0.000 A 
BRANCH  12  22
ATOM     21  C   UNL     1      46.097   4.860  14.279  0.00  0.00    +0.000 C 
ATOM     22  O   UNL     1      44.816   5.135  13.718  0.00  0.00    +0.000 OA
ENDBRANCH  12  22
ENDBRANCH   8  19
ENDBRANCH   7  10
ENDBRANCH   1   7
BRANCH   4  23
ATOM     23  O   UNL     1      48.767   7.932  17.592  0.00  0.00    +0.000 OA
BRANCH  23  24
ATOM     24  C   UNL     1      49.683   7.043  18.244  0.00  0.00    +0.000 C 
BRANCH  24  25
ATOM     25  C   UNL     1      48.943   5.907  18.987  0.00  0.00    +0.000 C 
BRANCH  25  26
ATOM     26  C   UNL     1      48.980   4.584  18.225  0.00  0.00    +0.000 A 
ATOM     27  C   UNL     1      47.821   4.084  17.612  0.00  0.00    +0.000 A 
ATOM     28  C   UNL     1      47.859   2.895  16.877  0.00  0.00    +0.000 A 
ATOM     29  C   UNL     1      49.052   2.189  16.747  0.00  0.00    +0.000 A 
ATOM     30  C   UNL     1      50.207   2.664  17.361  0.00  0.00    +0.000 A 
ATOM     31  C   UNL     1      50.167   3.848  18.094  0.00  0.00    +0.000 A 
ENDBRANCH  25  26
BRANCH  25  32
ATOM     32  C   UNL     1      47.513   6.293  19.416  0.00  0.00    +0.000 C 
BRANCH  32  33
ATOM     33  O   UNL     1      47.074   5.691  20.629  0.00  0.00    +0.000 OA
ATOM     34  H   UNL     1      47.188   6.350  21.340  0.00  0.00    +0.000 HD
ENDBRANCH  32  33
ENDBRANCH  25  32
ENDBRANCH  24  25
ENDBRANCH  23  24
ENDBRANCH   4  23
TORSDOF 10
ENDMDL
MODEL 6
REMARK VINA RESULT:    -6.505      2.107      3.435
REMARK INTER + INTRA:         -11.787
REMARK INTER:                 -10.378
REMARK INTRA:                  -1.409
REMARK UNBOUND:                -1.670
REMARK  Name = 
REMARK  11 active torsions:
REMARK  status: ('A' for Active; 'I' for Inactive)
REMARK    1  A    between atoms: C_1  and  O_2
REMARK    2  A    between atoms: O_2  and  C_3
REMARK    3  A    between atoms: C_10  and  C_11
REMARK    4  A    between atoms: N_13  and  C_14
REMARK    5  A    between atoms: C_14  and  C_15
REMARK    6  A    between atoms: C_18  and  O_19
REMARK    7  A    between atoms: O_19  and  C_20
REMARK    8  A    between atoms: C_20  and  C_21
REMARK    9  A    between atoms: C_21  and  C_22
REMARK   10  A    between atoms: C_21  and  C_24
REMARK   11  A    between atoms: C_22  and  O_23
REMARK                            x       y       z     vdW  Elec       q    Type
REMARK                         _______ _______ _______ _____ _____    ______ ____
ROOT
ATOM      1  C   UNL     1      46.849   7.399  12.237  0.00  0.00    +0.000 A 
ATOM      2  C   UNL     1      45.729   7.100  13.024  0.00  0.00    +0.000 A 
ATOM      3  C   UNL     1      44.704   6.282  12.531  0.00  0.00    +0.000 A 
ATOM      4  C   UNL     1      44.783   5.752  11.244  0.00  0.00    +0.000 A 
ATOM      5  C   UNL     1      45.927   5.994  10.481  0.00  0.00    +0.000 A 
ATOM      6  C   UNL     1      46.953   6.811  10.970  0.00  0.00    +0.000 A 
ENDROOT
BRANCH   1   7
ATOM      7  C   UNL     1      47.933   8.312  12.754  0.00  0.00    +0.000 C 
BRANCH   7  10
ATOM      8  C   UNL     1      48.784   7.776  15.000  0.00  0.00    +0.000 C 
ATOM      9  O   UNL     1      47.973   8.529  15.527  0.00  0.00    +0.000 OA
ATOM     10  N   UNL     1      48.829   7.615  13.641  0.00  0.00    +0.000 N 
ATOM     11  H   UNL     1      49.548   7.042  13.222  0.00  0.00    +0.000 HD
BRANCH   8  19
ATOM     12  C   UNL     1      52.222   7.671  15.103  0.00  0.00    +0.000 A 
ATOM     13  N   UNL     1      53.528   7.439  15.350  0.00  0.00    +0.000 NA
ATOM     14  C   UNL     1      53.838   6.531  16.279  0.00  0.00    +0.000 A 
ATOM     15  N   UNL     1      52.991   5.809  17.006  0.00  0.00    +0.000 NA
ATOM     16  C   UNL     1      51.703   6.077  16.736  0.00  0.00    +0.000 A 
ATOM     17  S   UNL     1      50.480   5.247  17.571  0.00  0.00    +0.000 S 
ATOM     18  C   UNL     1      49.264   6.083  16.726  0.00  0.00    +0.000 A 
ATOM     19  C   UNL     1      49.754   7.003  15.801  0.00  0.00    +0.000 A 
ATOM     20  C   UNL     1      51.213   6.993  15.810  0.00  0.00    +0.000 A 
BRANCH  12  22
ATOM     21  C   UNL     1      52.613   8.480  12.944  0.00  0.00    +0.000 C 
ATOM     22  O   UNL     1      51.904   8.634  14.171  0.00  0.00    +0.000 OA
ENDBRANCH  12  22
ENDBRANCH   8  19
ENDBRANCH   7  10
ENDBRANCH   1   7
BRANCH   4  23
ATOM     23  O   UNL     1      43.835   4.971  10.641  0.00  0.00    +0.000 OA
BRANCH  23  24
ATOM     24  C   UNL     1      44.195   4.386   9.383  0.00  0.00    +0.000 C 
BRANCH  24  25
ATOM     25  C   UNL     1      44.961   3.057   9.571  0.00  0.00    +0.000 C 
BRANCH  25  26
ATOM     26  C   UNL     1      45.765   2.661   8.335  0.00  0.00    +0.000 A 
ATOM     27  C   UNL     1      46.032   3.602   7.329  0.00  0.00    +0.000 A 
ATOM     28  C   UNL     1      46.806   3.256   6.216  0.00  0.00    +0.000 A 
ATOM     29  C   UNL     1      47.318   1.968   6.091  0.00  0.00    +0.000 A 
ATOM     30  C   UNL     1      47.050   1.019   7.074  0.00  0.00    +0.000 A 
ATOM     31  C   UNL     1      46.279   1.365   8.181  0.00  0.00    +0.000 A 
ENDBRANCH  25  26
BRANCH  25  32
ATOM     32  C   UNL     1      44.066   1.906  10.077  0.00  0.00    +0.000 C 
BRANCH  32  33
ATOM     33  O   UNL     1      43.380   2.179  11.294  0.00  0.00    +0.000 OA
ATOM     34  H   UNL     1      43.742   3.010  11.655  0.00  0.00    +0.000 HD
ENDBRANCH  32  33
ENDBRANCH  25  32
ENDBRANCH  24  25
ENDBRANCH  23  24
ENDBRANCH   4  23
TORSDOF 10
ENDMDL
MODEL 7
REMARK VINA RESULT:    -5.612      3.529      5.444
REMARK INTER + INTRA:         -10.399
REMARK INTER:                  -8.769
REMARK INTRA:                  -1.630
REMARK UNBOUND:                -1.670
REMARK  Name = 
REMARK  11 active torsions:
REMARK  status: ('A' for Active; 'I' for Inactive)
REMARK    1  A    between atoms: C_1  and  O_2
REMARK    2  A    between atoms: O_2  and  C_3
REMARK    3  A    between atoms: C_10  and  C_11
REMARK    4  A    between atoms: N_13  and  C_14
REMARK    5  A    between atoms: C_14  and  C_15
REMARK    6  A    between atoms: C_18  and  O_19
REMARK    7  A    between atoms: O_19  and  C_20
REMARK    8  A    between atoms: C_20  and  C_21
REMARK    9  A    between atoms: C_21  and  C_22
REMARK   10  A    between atoms: C_21  and  C_24
REMARK   11  A    between atoms: C_22  and  O_23
REMARK                            x       y       z     vdW  Elec       q    Type
REMARK                         _______ _______ _______ _____ _____    ______ ____
ROOT
ATOM      1  C   UNL     1      48.671   6.260  15.582  0.00  0.00    +0.000 A 
ATOM      2  C   UNL     1      47.864   5.145  15.841  0.00  0.00    +0.000 A 
ATOM      3  C   UNL     1      46.978   4.660  14.870  0.00  0.00    +0.000 A 
ATOM      4  C   UNL     1      46.886   5.284  13.626  0.00  0.00    +0.000 A 
ATOM      5  C   UNL     1      47.736   6.354  13.341  0.00  0.00    +0.000 A 
ATOM      6  C   UNL     1      48.622   6.841  14.309  0.00  0.00    +0.000 A 
ENDROOT
BRANCH   1   7
ATOM      7  C   UNL     1      49.596   6.805  16.642  0.00  0.00    +0.000 C 
BRANCH   7  10
ATOM      8  C   UNL     1      50.889   5.625  18.372  0.00  0.00    +0.000 C 
ATOM      9  O   UNL     1      50.374   6.290  19.263  0.00  0.00    +0.000 OA
ATOM     10  N   UNL     1      50.562   5.819  17.057  0.00  0.00    +0.000 N 
ATOM     11  H   UNL     1      51.046   5.309  16.332  0.00  0.00    +0.000 HD
BRANCH   8  19
ATOM     12  C   UNL     1      51.276   2.358  17.362  0.00  0.00    +0.000 A 
ATOM     13  N   UNL     1      51.662   1.087  17.127  0.00  0.00    +0.000 NA
ATOM     14  C   UNL     1      52.762   0.644  17.739  0.00  0.00    +0.000 A 
ATOM     15  N   UNL     1      53.542   1.322  18.576  0.00  0.00    +0.000 NA
ATOM     16  C   UNL     1      53.128   2.584  18.775  0.00  0.00    +0.000 A 
ATOM     17  S   UNL     1      54.003   3.600  19.816  0.00  0.00    +0.000 S 
ATOM     18  C   UNL     1      52.928   4.889  19.546  0.00  0.00    +0.000 A 
ATOM     19  C   UNL     1      51.890   4.581  18.668  0.00  0.00    +0.000 A 
ATOM     20  C   UNL     1      52.015   3.200  18.212  0.00  0.00    +0.000 A 
BRANCH  12  22
ATOM     21  C   UNL     1      48.994   2.047  16.954  0.00  0.00    +0.000 C 
ATOM     22  O   UNL     1      50.161   2.826  16.701  0.00  0.00    +0.000 OA
ENDBRANCH  12  22
ENDBRANCH   8  19
ENDBRANCH   7  10
ENDBRANCH   1   7
BRANCH   4  23
ATOM     23  O   UNL     1      46.040   4.926  12.613  0.00  0.00    +0.000 OA
BRANCH  23  24
ATOM     24  C   UNL     1      45.931   5.843  11.516  0.00  0.00    +0.000 C 
BRANCH  24  25
ATOM     25  C   UNL     1      44.489   6.378  11.363  0.00  0.00    +0.000 C 
BRANCH  25  26
ATOM     26  C   UNL     1      44.415   7.901  11.441  0.00  0.00    +0.000 A 
ATOM     27  C   UNL     1      45.370   8.622  12.173  0.00  0.00    +0.000 A 
ATOM     28  C   UNL     1      45.332  10.020  12.212  0.00  0.00    +0.000 A 
ATOM     29  C   UNL     1      44.339  10.714  11.525  0.00  0.00    +0.000 A 
ATOM     30  C   UNL     1      43.377  10.012  10.806  0.00  0.00    +0.000 A 
ATOM     31  C   UNL     1      43.415   8.620  10.769  0.00  0.00    +0.000 A 
ENDBRANCH  25  26
BRANCH  25  32
ATOM     32  C   UNL     1      43.483   5.696  12.313  0.00  0.00    +0.000 C 
BRANCH  32  33
ATOM     33  O   UNL     1      42.963   4.458  11.839  0.00  0.00    +0.000 OA
ATOM     34  H   UNL     1      43.575   3.754  12.126  0.00  0.00    +0.000 HD
ENDBRANCH  32  33
ENDBRANCH  25  32
ENDBRANCH  24  25
ENDBRANCH  23  24
ENDBRANCH   4  23
TORSDOF 10
ENDMDL
MODEL 8
REMARK VINA RESULT:    -5.435      1.572      2.057
REMARK INTER + INTRA:         -10.124
REMARK INTER:                  -9.722
REMARK INTRA:                  -0.402
REMARK UNBOUND:                -1.670
REMARK  Name = 
REMARK  11 active torsions:
REMARK  status: ('A' for Active; 'I' for Inactive)
REMARK    1  A    between atoms: C_1  and  O_2
REMARK    2  A    between atoms: O_2  and  C_3
REMARK    3  A    between atoms: C_10  and  C_11
REMARK    4  A    between atoms: N_13  and  C_14
REMARK    5  A    between atoms: C_14  and  C_15
REMARK    6  A    between atoms: C_18  and  O_19
REMARK    7  A    between atoms: O_19  and  C_20
REMARK    8  A    between atoms: C_20  and  C_21
REMARK    9  A    between atoms: C_21  and  C_22
REMARK   10  A    between atoms: C_21  and  C_24
REMARK   11  A    between atoms: C_22  and  O_23
REMARK                            x       y       z     vdW  Elec       q    Type
REMARK                         _______ _______ _______ _____ _____    ______ ____
ROOT
ATOM      1  C   UNL     1      45.848   7.155  12.770  0.00  0.00    +0.000 A 
ATOM      2  C   UNL     1      45.271   5.983  13.274  0.00  0.00    +0.000 A 
ATOM      3  C   UNL     1      44.593   5.095  12.429  0.00  0.00    +0.000 A 
ATOM      4  C   UNL     1      44.483   5.368  11.065  0.00  0.00    +0.000 A 
ATOM      5  C   UNL     1      45.113   6.500  10.548  0.00  0.00    +0.000 A 
ATOM      6  C   UNL     1      45.790   7.389  11.390  0.00  0.00    +0.000 A 
ENDROOT
BRANCH   1   7
ATOM      7  C   UNL     1      46.543   8.129  13.688  0.00  0.00    +0.000 C 
BRANCH   7  10
ATOM      8  C   UNL     1      48.484   8.198  15.201  0.00  0.00    +0.000 C 
ATOM      9  O   UNL     1      48.112   9.259  15.688  0.00  0.00    +0.000 OA
ATOM     10  N   UNL     1      47.768   7.579  14.211  0.00  0.00    +0.000 N 
ATOM     11  H   UNL     1      48.125   6.740  13.775  0.00  0.00    +0.000 HD
BRANCH   8  19
ATOM     12  C   UNL     1      49.112   5.289  16.931  0.00  0.00    +0.000 A 
ATOM     13  N   UNL     1      49.630   4.223  17.572  0.00  0.00    +0.000 NA
ATOM     14  C   UNL     1      50.958   4.149  17.692  0.00  0.00    +0.000 A 
ATOM     15  N   UNL     1      51.853   5.025  17.245  0.00  0.00    +0.000 NA
ATOM     16  C   UNL     1      51.295   6.066  16.605  0.00  0.00    +0.000 A 
ATOM     17  S   UNL     1      52.287   7.286  15.965  0.00  0.00    +0.000 S 
ATOM     18  C   UNL     1      50.942   8.145  15.379  0.00  0.00    +0.000 A 
ATOM     19  C   UNL     1      49.721   7.531  15.653  0.00  0.00    +0.000 A 
ATOM     20  C   UNL     1      49.939   6.289  16.388  0.00  0.00    +0.000 A 
BRANCH  12  22
ATOM     21  C   UNL     1      47.129   4.060  16.762  0.00  0.00    +0.000 C 
ATOM     22  O   UNL     1      47.744   5.346  16.776  0.00  0.00    +0.000 OA
ENDBRANCH  12  22
ENDBRANCH   8  19
ENDBRANCH   7  10
ENDBRANCH   1   7
BRANCH   4  23
ATOM     23  O   UNL     1      43.821   4.598  10.147  0.00  0.00    +0.000 OA
BRANCH  23  24
ATOM     24  C   UNL     1      44.518   4.320   8.926  0.00  0.00    +0.000 C 
BRANCH  24  25
ATOM     25  C   UNL     1      45.362   3.029   9.034  0.00  0.00    +0.000 C 
BRANCH  25  26
ATOM     26  C   UNL     1      46.206   2.771   7.788  0.00  0.00    +0.000 A 
ATOM     27  C   UNL     1      47.041   1.647   7.716  0.00  0.00    +0.000 A 
ATOM     28  C   UNL     1      47.783   1.382   6.559  0.00  0.00    +0.000 A 
ATOM     29  C   UNL     1      47.701   2.237   5.464  0.00  0.00    +0.000 A 
ATOM     30  C   UNL     1      46.888   3.364   5.525  0.00  0.00    +0.000 A 
ATOM     31  C   UNL     1      46.151   3.627   6.678  0.00  0.00    +0.000 A 
ENDBRANCH  25  26
BRANCH  25  32
ATOM     32  C   UNL     1      44.534   1.794   9.444  0.00  0.00    +0.000 C 
BRANCH  32  33
ATOM     33  O   UNL     1      44.914   0.583   8.799  0.00  0.00    +0.000 OA
ATOM     34  H   UNL     1      44.687  -0.152   9.400  0.00  0.00    +0.000 HD
ENDBRANCH  32  33
ENDBRANCH  25  32
ENDBRANCH  24  25
ENDBRANCH  23  24
ENDBRANCH   4  23
TORSDOF 10
ENDMDL
