MODEL 1
REMARK VINA RESULT:    -8.329      0.000      0.000
REMARK INTER + INTRA:         -13.809
REMARK INTER:                 -12.468
REMARK INTRA:                  -1.341
REMARK UNBOUND:                -1.341
REMARK  Name = 
REMARK  9 active torsions:
REMARK  status: ('A' for Active; 'I' for Inactive)
REMARK    1  A    between atoms: N_1  and  C_2
REMARK    2  A    between atoms: C_2  and  C_3
REMARK    3  A    between atoms: C_6  and  C_7
REMARK    4  A    between atoms: C_7  and  N_8
REMARK    5  A    between atoms: N_8  and  C_9
REMARK    6  A    between atoms: C_9  and  C_10
REMARK    7  A    between atoms: C_13  and  C_14
REMARK    8  A    between atoms: C_14  and  N_15
REMARK    9  A    between atoms: C_16  and  C_18
REMARK                            x       y       z     vdW  Elec       q    Type
REMARK                         _______ _______ _______ _____ _____    ______ ____
ROOT
ATOM      1  C   UNL     1      44.533   5.756  11.783  0.00  0.00    +0.000 A 
ATOM      2  C   UNL     1      45.462   6.667  11.246  0.00  0.00    +0.000 A 
ATOM      3  C   UNL     1      46.702   6.867  11.852  0.00  0.00    +0.000 A 
ATOM      4  C   UNL     1      47.023   6.190  13.028  0.00  0.00    +0.000 A 
ATOM      5  C   UNL     1      46.078   5.306  13.582  0.00  0.00    +0.000 A 
ATOM      6  C   UNL     1      44.856   5.078  12.959  0.00  0.00    +0.000 A 
ENDROOT
BRANCH   1   7
ATOM      7  C   UNL     1      43.218   5.490  11.084  0.00  0.00    +0.000 C 
BRANCH   7   8
ATOM      8  N   UNL     1      43.381   4.713   9.854  0.00  0.00    +0.000 NA
ATOM      9  H   UNL     1      42.511   4.693   9.332  0.00  0.00    +0.000 HD
BRANCH   8  10
ATOM     10  C   UNL     1      43.851   3.351  10.141  0.00  0.00    +0.000 C 
BRANCH  10  14
ATOM     11  C   UNL     1      46.781   2.438   6.989  0.00  0.00    +0.000 C 
ATOM     12  C   UNL     1      46.711   3.861   7.574  0.00  0.00    +0.000 C 
ATOM     13  C   UNL     1      45.399   4.125   8.311  0.00  0.00    +0.000 C 
ATOM     14  C   UNL     1      45.160   3.071   9.402  0.00  0.00    +0.000 C 
ATOM     15  C   UNL     1      45.146   1.669   8.776  0.00  0.00    +0.000 C 
ATOM     16  C   UNL     1      46.451   1.378   8.052  0.00  0.00    +0.000 C 
BRANCH  11  17
ATOM     17  C   UNL     1      48.166   2.198   6.362  0.00  0.00    +0.000 C 
BRANCH  17  18
ATOM     18  N   UNL     1      48.209   2.552   4.947  0.00  0.00    +0.000 NA
ATOM     19  H   UNL     1      49.177   2.574   4.629  0.00  0.00    +0.000 HD
ATOM     20  H   UNL     1      47.837   3.492   4.815  0.00  0.00    +0.000 HD
ENDBRANCH  17  18
ENDBRANCH  11  17
ENDBRANCH  10  14
ENDBRANCH   8  10
ENDBRANCH   7   8
ENDBRANCH   1   7
BRANCH   4  21
ATOM     21  C   UNL     1      48.346   6.395  13.718  0.00  0.00    +0.000 C 
BRANCH  21  22
ATOM     22  N   UNL     1      48.206   6.425  15.147  0.00  0.00    +0.000 N 
ATOM     23  C   UNL     1      49.007   7.226  15.934  0.00  0.00    +0.000 C 
ATOM     24  O   UNL     1      49.858   7.969  15.468  0.00  0.00    +0.000 OA
ATOM     25  H   UNL     1      47.760   5.623  15.576  0.00  0.00    +0.000 HD
BRANCH  23  26
ATOM     26  C   UNL     1      48.714   7.178  17.373  0.00  0.00    +0.000 A 
ATOM     27  C   UNL     1      48.287   8.322  18.033  0.00  0.00    +0.000 A 
ATOM     28  S   UNL     1      47.962   8.069  19.691  0.00  0.00    +0.000 S 
ATOM     29  C   UNL     1      48.425   6.435  19.592  0.00  0.00    +0.000 A 
ATOM     30  N   UNL     1      48.414   5.634  20.692  0.00  0.00    +0.000 NA
ATOM     31  C   UNL     1      48.815   4.424  20.475  0.00  0.00    +0.000 A 
ATOM     32  N   UNL     1      49.213   3.942  19.258  0.00  0.00    +0.000 N 
ATOM     33  C   UNL     1      49.200   4.697  18.110  0.00  0.00    +0.000 A 
ATOM     34  O   UNL     1      49.494   4.212  17.028  0.00  0.00    +0.000 OA
ATOM     35  C   UNL     1      48.790   6.078  18.306  0.00  0.00    +0.000 A 
ATOM     36  H   UNL     1      49.500   2.979  19.148  0.00  0.00    +0.000 HD
ENDBRANCH  23  26
ENDBRANCH  21  22
ENDBRANCH   4  21
TORSDOF 9
ENDMDL
MODEL 2
REMARK VINA RESULT:    -7.694      2.080      2.484
REMARK INTER + INTRA:         -12.859
REMARK INTER:                 -11.497
REMARK INTRA:                  -1.362
REMARK UNBOUND:                -1.341
REMARK  Name = 
REMARK  9 active torsions:
REMARK  status: ('A' for Active; 'I' for Inactive)
REMARK    1  A    between atoms: N_1  and  C_2
REMARK    2  A    between atoms: C_2  and  C_3
REMARK    3  A    between atoms: C_6  and  C_7
REMARK    4  A    between atoms: C_7  and  N_8
REMARK    5  A    between atoms: N_8  and  C_9
REMARK    6  A    between atoms: C_9  and  C_10
REMARK    7  A    between atoms: C_13  and  C_14
REMARK    8  A    between atoms: C_14  and  N_15
REMARK    9  A    between atoms: C_16  and  C_18
REMARK                            x       y       z     vdW  Elec       q    Type
REMARK                         _______ _______ _______ _____ _____    ______ ____
ROOT
ATOM      1  C   UNL     1      44.948   4.986  12.841  0.00  0.00    +0.000 A 
ATOM      2  C   UNL     1      46.172   4.564  13.393  0.00  0.00    +0.000 A 
ATOM      3  C   UNL     1      47.240   5.450  13.533  0.00  0.00    +0.000 A 
ATOM      4  C   UNL     1      47.118   6.765  13.088  0.00  0.00    +0.000 A 
ATOM      5  C   UNL     1      45.905   7.177  12.504  0.00  0.00    +0.000 A 
ATOM      6  C   UNL     1      44.828   6.303  12.397  0.00  0.00    +0.000 A 
ENDROOT
BRANCH   1   7
ATOM      7  C   UNL     1      43.770   4.041  12.754  0.00  0.00    +0.000 C 
BRANCH   7   8
ATOM      8  N   UNL     1      44.091   2.809  12.031  0.00  0.00    +0.000 NA
ATOM      9  H   UNL     1      45.072   2.578  12.146  0.00  0.00    +0.000 HD
BRANCH   8  10
ATOM     10  C   UNL     1      43.741   2.918  10.608  0.00  0.00    +0.000 C 
BRANCH  10  14
ATOM     11  C   UNL     1      46.474   2.907   7.161  0.00  0.00    +0.000 C 
ATOM     12  C   UNL     1      46.260   4.207   7.959  0.00  0.00    +0.000 C 
ATOM     13  C   UNL     1      44.996   4.165   8.816  0.00  0.00    +0.000 C 
ATOM     14  C   UNL     1      45.004   2.944   9.748  0.00  0.00    +0.000 C 
ATOM     15  C   UNL     1      45.128   1.658   8.918  0.00  0.00    +0.000 C 
ATOM     16  C   UNL     1      46.391   1.671   8.071  0.00  0.00    +0.000 C 
BRANCH  11  17
ATOM     17  C   UNL     1      47.818   2.968   6.412  0.00  0.00    +0.000 C 
BRANCH  17  18
ATOM     18  N   UNL     1      48.234   1.664   5.906  0.00  0.00    +0.000 NA
ATOM     19  H   UNL     1      47.818   1.505   4.989  0.00  0.00    +0.000 HD
ATOM     20  H   UNL     1      47.885   0.927   6.517  0.00  0.00    +0.000 HD
ENDBRANCH  17  18
ENDBRANCH  11  17
ENDBRANCH  10  14
ENDBRANCH   8  10
ENDBRANCH   7   8
ENDBRANCH   1   7
BRANCH   4  21
ATOM     21  C   UNL     1      48.257   7.745  13.209  0.00  0.00    +0.000 C 
BRANCH  21  22
ATOM     22  N   UNL     1      49.353   7.204  13.962  0.00  0.00    +0.000 N 
ATOM     23  C   UNL     1      49.797   7.802  15.122  0.00  0.00    +0.000 C 
ATOM     24  O   UNL     1      49.276   8.805  15.588  0.00  0.00    +0.000 OA
ATOM     25  H   UNL     1      49.990   6.594  13.462  0.00  0.00    +0.000 HD
BRANCH  23  26
ATOM     26  C   UNL     1      50.899   7.107  15.801  0.00  0.00    +0.000 A 
ATOM     27  C   UNL     1      52.201   7.565  15.661  0.00  0.00    +0.000 A 
ATOM     28  S   UNL     1      53.342   6.656  16.549  0.00  0.00    +0.000 S 
ATOM     29  C   UNL     1      52.141   5.591  17.113  0.00  0.00    +0.000 A 
ATOM     30  N   UNL     1      52.456   4.537  17.913  0.00  0.00    +0.000 NA
ATOM     31  C   UNL     1      51.448   3.798  18.244  0.00  0.00    +0.000 A 
ATOM     32  N   UNL     1      50.155   4.025  17.857  0.00  0.00    +0.000 N 
ATOM     33  C   UNL     1      49.779   5.100  17.087  0.00  0.00    +0.000 A 
ATOM     34  O   UNL     1      48.606   5.311  16.822  0.00  0.00    +0.000 OA
ATOM     35  C   UNL     1      50.883   5.944  16.658  0.00  0.00    +0.000 A 
ATOM     36  H   UNL     1      49.406   3.419  18.164  0.00  0.00    +0.000 HD
ENDBRANCH  23  26
ENDBRANCH  21  22
ENDBRANCH   4  21
TORSDOF 9
ENDMDL
MODEL 3
REMARK VINA RESULT:    -7.694      1.389      2.257
REMARK INTER + INTRA:         -12.858
REMARK INTER:                 -11.962
REMARK INTRA:                  -0.896
REMARK UNBOUND:                -1.341
REMARK  Name = 
REMARK  9 active torsions:
REMARK  status: ('A' for Active; 'I' for Inactive)
REMARK    1  A    between atoms: N_1  and  C_2
REMARK    2  A    between atoms: C_2  and  C_3
REMARK    3  A    between atoms: C_6  and  C_7
REMARK    4  A    between atoms: C_7  and  N_8
REMARK    5  A    between atoms: N_8  and  C_9
REMARK    6  A    between atoms: C_9  and  C_10
REMARK    7  A    between atoms: C_13  and  C_14
REMARK    8  A    between atoms: C_14  and  N_15
REMARK    9  A    between atoms: C_16  and  C_18
REMARK                            x       y       z     vdW  Elec       q    Type
REMARK                         _______ _______ _______ _____ _____    ______ ____
ROOT
ATOM      1  C   UNL     1      44.457   5.917  12.341  0.00  0.00    +0.000 A 
ATOM      2  C   UNL     1      45.124   7.149  12.211  0.00  0.00    +0.000 A 
ATOM      3  C   UNL     1      46.377   7.352  12.791  0.00  0.00    +0.000 A 
ATOM      4  C   UNL     1      46.969   6.340  13.544  0.00  0.00    +0.000 A 
ATOM      5  C   UNL     1      46.284   5.120  13.703  0.00  0.00    +0.000 A 
ATOM      6  C   UNL     1      45.051   4.905  13.095  0.00  0.00    +0.000 A 
ENDROOT
BRANCH   1   7
ATOM      7  C   UNL     1      43.131   5.678  11.653  0.00  0.00    +0.000 C 
BRANCH   7   8
ATOM      8  N   UNL     1      43.287   5.124  10.307  0.00  0.00    +0.000 NA
ATOM      9  H   UNL     1      42.388   5.075   9.839  0.00  0.00    +0.000 HD
BRANCH   8  10
ATOM     10  C   UNL     1      43.930   3.803  10.345  0.00  0.00    +0.000 C 
BRANCH  10  14
ATOM     11  C   UNL     1      46.901   2.862   7.240  0.00  0.00    +0.000 C 
ATOM     12  C   UNL     1      45.905   1.779   7.694  0.00  0.00    +0.000 C 
ATOM     13  C   UNL     1      45.256   2.107   9.037  0.00  0.00    +0.000 C 
ATOM     14  C   UNL     1      44.585   3.489   9.000  0.00  0.00    +0.000 C 
ATOM     15  C   UNL     1      45.622   4.560   8.633  0.00  0.00    +0.000 C 
ATOM     16  C   UNL     1      46.267   4.261   7.289  0.00  0.00    +0.000 C 
BRANCH  11  17
ATOM     17  C   UNL     1      47.430   2.530   5.833  0.00  0.00    +0.000 C 
BRANCH  17  18
ATOM     18  N   UNL     1      48.613   1.676   5.869  0.00  0.00    +0.000 NA
ATOM     19  H   UNL     1      49.399   2.162   5.437  0.00  0.00    +0.000 HD
ATOM     20  H   UNL     1      48.451   0.836   5.316  0.00  0.00    +0.000 HD
ENDBRANCH  17  18
ENDBRANCH  11  17
ENDBRANCH  10  14
ENDBRANCH   8  10
ENDBRANCH   7   8
ENDBRANCH   1   7
BRANCH   4  21
ATOM     21  C   UNL     1      48.313   6.530  14.198  0.00  0.00    +0.000 C 
BRANCH  21  22
ATOM     22  N   UNL     1      48.239   6.388  15.625  0.00  0.00    +0.000 N 
ATOM     23  C   UNL     1      49.375   6.273  16.399  0.00  0.00    +0.000 C 
ATOM     24  O   UNL     1      50.501   6.309  15.926  0.00  0.00    +0.000 OA
ATOM     25  H   UNL     1      47.365   6.042  16.002  0.00  0.00    +0.000 HD
BRANCH  23  26
ATOM     26  C   UNL     1      49.137   6.178  17.845  0.00  0.00    +0.000 A 
ATOM     27  C   UNL     1      49.533   5.044  18.541  0.00  0.00    +0.000 A 
ATOM     28  S   UNL     1      49.209   5.124  20.216  0.00  0.00    +0.000 S 
ATOM     29  C   UNL     1      48.487   6.658  20.061  0.00  0.00    +0.000 A 
ATOM     30  N   UNL     1      47.957   7.296  21.139  0.00  0.00    +0.000 NA
ATOM     31  C   UNL     1      47.419   8.441  20.869  0.00  0.00    +0.000 A 
ATOM     32  N   UNL     1      47.376   9.008  19.625  0.00  0.00    +0.000 N 
ATOM     33  C   UNL     1      47.936   8.424  18.513  0.00  0.00    +0.000 A 
ATOM     34  O   UNL     1      47.942   8.992  17.432  0.00  0.00    +0.000 OA
ATOM     35  C   UNL     1      48.524   7.116  18.756  0.00  0.00    +0.000 A 
ATOM     36  H   UNL     1      46.956   9.916  19.480  0.00  0.00    +0.000 HD
ENDBRANCH  23  26
ENDBRANCH  21  22
ENDBRANCH   4  21
TORSDOF 9
ENDMDL
MODEL 4
REMARK VINA RESULT:    -7.199      3.028      3.878
REMARK INTER + INTRA:         -12.117
REMARK INTER:                 -11.155
REMARK INTRA:                  -0.962
REMARK UNBOUND:                -1.341
REMARK  Name = 
REMARK  9 active torsions:
REMARK  status: ('A' for Active; 'I' for Inactive)
REMARK    1  A    between atoms: N_1  and  C_2
REMARK    2  A    between atoms: C_2  and  C_3
REMARK    3  A    between atoms: C_6  and  C_7
REMARK    4  A    between atoms: C_7  and  N_8
REMARK    5  A    between atoms: N_8  and  C_9
REMARK    6  A    between atoms: C_9  and  C_10
REMARK    7  A    between atoms: C_13  and  C_14
REMARK    8  A    between atoms: C_14  and  N_15
REMARK    9  A    between atoms: C_16  and  C_18
REMARK                            x       y       z     vdW  Elec       q    Type
REMARK                         _______ _______ _______ _____ _____    ______ ____
ROOT
ATOM      1  C   UNL     1      46.879   4.758  13.895  0.00  0.00    +0.000 A 
ATOM      2  C   UNL     1      47.579   5.974  13.786  0.00  0.00    +0.000 A 
ATOM      3  C   UNL     1      48.322   6.473  14.855  0.00  0.00    +0.000 A 
ATOM      4  C   UNL     1      48.348   5.787  16.068  0.00  0.00    +0.000 A 
ATOM      5  C   UNL     1      47.618   4.589  16.188  0.00  0.00    +0.000 A 
ATOM      6  C   UNL     1      46.906   4.072  15.110  0.00  0.00    +0.000 A 
ENDROOT
BRANCH   1   7
ATOM      7  C   UNL     1      46.131   4.185  12.712  0.00  0.00    +0.000 C 
BRANCH   7   8
ATOM      8  N   UNL     1      44.702   4.016  12.978  0.00  0.00    +0.000 NA
ATOM      9  H   UNL     1      44.562   3.510  13.847  0.00  0.00    +0.000 HD
BRANCH   8  10
ATOM     10  C   UNL     1      44.027   3.338  11.863  0.00  0.00    +0.000 C 
BRANCH  10  14
ATOM     11  C   UNL     1      45.422   3.372   7.691  0.00  0.00    +0.000 C 
ATOM     12  C   UNL     1      45.629   4.617   8.573  0.00  0.00    +0.000 C 
ATOM     13  C   UNL     1      44.730   4.614   9.808  0.00  0.00    +0.000 C 
ATOM     14  C   UNL     1      44.921   3.326  10.624  0.00  0.00    +0.000 C 
ATOM     15  C   UNL     1      44.622   2.105   9.744  0.00  0.00    +0.000 C 
ATOM     16  C   UNL     1      45.519   2.079   8.517  0.00  0.00    +0.000 C 
BRANCH  11  17
ATOM     17  C   UNL     1      46.434   3.378   6.531  0.00  0.00    +0.000 C 
BRANCH  17  18
ATOM     18  N   UNL     1      47.812   3.245   6.991  0.00  0.00    +0.000 NA
ATOM     19  H   UNL     1      48.139   2.294   6.820  0.00  0.00    +0.000 HD
ATOM     20  H   UNL     1      47.858   3.392   7.998  0.00  0.00    +0.000 HD
ENDBRANCH  17  18
ENDBRANCH  11  17
ENDBRANCH  10  14
ENDBRANCH   8  10
ENDBRANCH   7   8
ENDBRANCH   1   7
BRANCH   4  21
ATOM     21  C   UNL     1      49.126   6.306  17.250  0.00  0.00    +0.000 C 
BRANCH  21  22
ATOM     22  N   UNL     1      50.120   5.368  17.690  0.00  0.00    +0.000 N 
ATOM     23  C   UNL     1      51.419   5.423  17.229  0.00  0.00    +0.000 C 
ATOM     24  O   UNL     1      51.805   6.278  16.447  0.00  0.00    +0.000 OA
ATOM     25  H   UNL     1      49.781   4.489  18.065  0.00  0.00    +0.000 HD
BRANCH  23  26
ATOM     26  C   UNL     1      52.328   4.422  17.804  0.00  0.00    +0.000 A 
ATOM     27  C   UNL     1      53.488   4.826  18.450  0.00  0.00    +0.000 A 
ATOM     28  S   UNL     1      54.401   3.530  19.085  0.00  0.00    +0.000 S 
ATOM     29  C   UNL     1      53.302   2.382  18.477  0.00  0.00    +0.000 A 
ATOM     30  N   UNL     1      53.513   1.049  18.646  0.00  0.00    +0.000 NA
ATOM     31  C   UNL     1      52.611   0.293  18.110  0.00  0.00    +0.000 A 
ATOM     32  N   UNL     1      51.513   0.751  17.433  0.00  0.00    +0.000 N 
ATOM     33  C   UNL     1      51.232   2.087  17.275  0.00  0.00    +0.000 A 
ATOM     34  O   UNL     1      50.205   2.458  16.727  0.00  0.00    +0.000 OA
ATOM     35  C   UNL     1      52.235   2.981  17.829  0.00  0.00    +0.000 A 
ATOM     36  H   UNL     1      50.832   0.109  17.051  0.00  0.00    +0.000 HD
ENDBRANCH  23  26
ENDBRANCH  21  22
ENDBRANCH   4  21
TORSDOF 9
ENDMDL
MODEL 5
REMARK VINA RESULT:    -7.018      5.104      9.806
REMARK INTER + INTRA:         -11.847
REMARK INTER:                 -10.826
REMARK INTRA:                  -1.020
REMARK UNBOUND:                -1.341
REMARK  Name = 
REMARK  9 active torsions:
REMARK  status: ('A' for Active; 'I' for Inactive)
REMARK    1  A    between atoms: N_1  and  C_2
REMARK    2  A    between atoms: C_2  and  C_3
REMARK    3  A    between atoms: C_6  and  C_7
REMARK    4  A    between atoms: C_7  and  N_8
REMARK    5  A    between atoms: N_8  and  C_9
REMARK    6  A    between atoms: C_9  and  C_10
REMARK    7  A    between atoms: C_13  and  C_14
REMARK    8  A    between atoms: C_14  and  N_15
REMARK    9  A    between atoms: C_16  and  C_18
REMARK                            x       y       z     vdW  Elec       q    Type
REMARK                         _______ _______ _______ _____ _____    ______ ____
ROOT
ATOM      1  C   UNL     1      51.376   3.413  17.750  0.00  0.00    +0.000 A 
ATOM      2  C   UNL     1      50.734   2.231  17.339  0.00  0.00    +0.000 A 
ATOM      3  C   UNL     1      49.375   2.225  17.023  0.00  0.00    +0.000 A 
ATOM      4  C   UNL     1      48.624   3.392  17.149  0.00  0.00    +0.000 A 
ATOM      5  C   UNL     1      49.261   4.566  17.596  0.00  0.00    +0.000 A 
ATOM      6  C   UNL     1      50.623   4.580  17.876  0.00  0.00    +0.000 A 
ENDROOT
BRANCH   1   7
ATOM      7  C   UNL     1      52.864   3.431  18.026  0.00  0.00    +0.000 C 
BRANCH   7   8
ATOM      8  N   UNL     1      53.233   2.601  19.174  0.00  0.00    +0.000 NA
ATOM      9  H   UNL     1      53.234   3.156  20.024  0.00  0.00    +0.000 HD
BRANCH   8  10
ATOM     10  C   UNL     1      54.537   1.955  18.969  0.00  0.00    +0.000 C 
BRANCH  10  14
ATOM     11  C   UNL     1      55.403  -1.717  16.708  0.00  0.00    +0.000 C 
ATOM     12  C   UNL     1      54.653  -1.809  18.049  0.00  0.00    +0.000 C 
ATOM     13  C   UNL     1      54.813  -0.547  18.896  0.00  0.00    +0.000 C 
ATOM     14  C   UNL     1      54.382   0.700  18.110  0.00  0.00    +0.000 C 
ATOM     15  C   UNL     1      55.210   0.814  16.822  0.00  0.00    +0.000 C 
ATOM     16  C   UNL     1      55.049  -0.425  15.955  0.00  0.00    +0.000 C 
BRANCH  11  17
ATOM     17  C   UNL     1      55.107  -2.966  15.857  0.00  0.00    +0.000 C 
BRANCH  17  18
ATOM     18  N   UNL     1      54.012  -2.754  14.916  0.00  0.00    +0.000 NA
ATOM     19  H   UNL     1      53.633  -1.816  15.038  0.00  0.00    +0.000 HD
ATOM     20  H   UNL     1      53.252  -3.403  15.118  0.00  0.00    +0.000 HD
ENDBRANCH  17  18
ENDBRANCH  11  17
ENDBRANCH  10  14
ENDBRANCH   8  10
ENDBRANCH   7   8
ENDBRANCH   1   7
BRANCH   4  21
ATOM     21  C   UNL     1      47.151   3.418  16.833  0.00  0.00    +0.000 C 
BRANCH  21  22
ATOM     22  N   UNL     1      46.832   4.415  15.849  0.00  0.00    +0.000 N 
ATOM     23  C   UNL     1      46.934   4.155  14.499  0.00  0.00    +0.000 C 
ATOM     24  O   UNL     1      47.274   3.066  14.060  0.00  0.00    +0.000 OA
ATOM     25  H   UNL     1      46.861   5.380  16.155  0.00  0.00    +0.000 HD
BRANCH  23  26
ATOM     26  C   UNL     1      46.533   5.261  13.619  0.00  0.00    +0.000 A 
ATOM     27  C   UNL     1      47.401   6.321  13.396  0.00  0.00    +0.000 A 
ATOM     28  S   UNL     1      46.781   7.494  12.320  0.00  0.00    +0.000 S 
ATOM     29  C   UNL     1      45.314   6.647  12.150  0.00  0.00    +0.000 A 
ATOM     30  N   UNL     1      44.309   7.134  11.375  0.00  0.00    +0.000 NA
ATOM     31  C   UNL     1      43.244   6.399  11.359  0.00  0.00    +0.000 A 
ATOM     32  N   UNL     1      43.101   5.220  12.038  0.00  0.00    +0.000 N 
ATOM     33  C   UNL     1      44.103   4.665  12.798  0.00  0.00    +0.000 A 
ATOM     34  O   UNL     1      43.965   3.574  13.332  0.00  0.00    +0.000 OA
ATOM     35  C   UNL     1      45.311   5.470  12.878  0.00  0.00    +0.000 A 
ATOM     36  H   UNL     1      42.249   4.681  11.972  0.00  0.00    +0.000 HD
ENDBRANCH  23  26
ENDBRANCH  21  22
ENDBRANCH   4  21
TORSDOF 9
ENDMDL
MODEL 6
REMARK VINA RESULT:    -6.938      3.230      8.874
REMARK INTER + INTRA:         -11.727
REMARK INTER:                 -10.073
REMARK INTRA:                  -1.654
REMARK UNBOUND:                -1.341
REMARK  Name = 
REMARK  9 active torsions:
REMARK  status: ('A' for Active; 'I' for Inactive)
REMARK    1  A    between atoms: N_1  and  C_2
REMARK    2  A    between atoms: C_2  and  C_3
REMARK    3  A    between atoms: C_6  and  C_7
REMARK    4  A    between atoms: C_7  and  N_8
REMARK    5  A    between atoms: N_8  and  C_9
REMARK    6  A    between atoms: C_9  and  C_10
REMARK    7  A    between atoms: C_13  and  C_14
REMARK    8  A    between atoms: C_14  and  N_15
REMARK    9  A    between atoms: C_16  and  C_18
REMARK                            x       y       z     vdW  Elec       q    Type
REMARK                         _______ _______ _______ _____ _____    ______ ____
ROOT
ATOM      1  C   UNL     1      48.919   8.574  15.907  0.00  0.00    +0.000 A 
ATOM      2  C   UNL     1      48.471   9.625  15.085  0.00  0.00    +0.000 A 
ATOM      3  C   UNL     1      48.092   9.390  13.763  0.00  0.00    +0.000 A 
ATOM      4  C   UNL     1      48.190   8.108  13.226  0.00  0.00    +0.000 A 
ATOM      5  C   UNL     1      48.672   7.065  14.040  0.00  0.00    +0.000 A 
ATOM      6  C   UNL     1      49.016   7.291  15.369  0.00  0.00    +0.000 A 
ENDROOT
BRANCH   1   7
ATOM      7  C   UNL     1      49.263   8.820  17.360  0.00  0.00    +0.000 C 
BRANCH   7   8
ATOM      8  N   UNL     1      48.274   8.249  18.276  0.00  0.00    +0.000 NA
ATOM      9  H   UNL     1      47.728   8.987  18.710  0.00  0.00    +0.000 HD
BRANCH   8  10
ATOM     10  C   UNL     1      48.914   7.404  19.294  0.00  0.00    +0.000 C 
BRANCH  10  14
ATOM     11  C   UNL     1      48.617   3.714  16.918  0.00  0.00    +0.000 C 
ATOM     12  C   UNL     1      49.962   4.098  17.562  0.00  0.00    +0.000 C 
ATOM     13  C   UNL     1      50.017   5.571  17.966  0.00  0.00    +0.000 C 
ATOM     14  C   UNL     1      48.843   5.933  18.888  0.00  0.00    +0.000 C 
ATOM     15  C   UNL     1      47.515   5.622  18.183  0.00  0.00    +0.000 C 
ATOM     16  C   UNL     1      47.431   4.156  17.790  0.00  0.00    +0.000 C 
BRANCH  11  17
ATOM     17  C   UNL     1      48.583   2.200  16.642  0.00  0.00    +0.000 C 
BRANCH  17  18
ATOM     18  N   UNL     1      49.882   1.678  16.230  0.00  0.00    +0.000 NA
ATOM     19  H   UNL     1      50.584   2.414  16.299  0.00  0.00    +0.000 HD
ATOM     20  H   UNL     1      49.848   1.397  15.251  0.00  0.00    +0.000 HD
ENDBRANCH  17  18
ENDBRANCH  11  17
ENDBRANCH  10  14
ENDBRANCH   8  10
ENDBRANCH   7   8
ENDBRANCH   1   7
BRANCH   4  21
ATOM     21  C   UNL     1      47.805   7.822  11.798  0.00  0.00    +0.000 C 
BRANCH  21  22
ATOM     22  N   UNL     1      47.034   6.616  11.682  0.00  0.00    +0.000 N 
ATOM     23  C   UNL     1      45.659   6.626  11.785  0.00  0.00    +0.000 C 
ATOM     24  O   UNL     1      45.018   7.652  11.955  0.00  0.00    +0.000 OA
ATOM     25  H   UNL     1      47.523   5.746  11.860  0.00  0.00    +0.000 HD
BRANCH  23  26
ATOM     26  C   UNL     1      45.010   5.320  11.604  0.00  0.00    +0.000 A 
ATOM     27  C   UNL     1      44.300   4.746  12.648  0.00  0.00    +0.000 A 
ATOM     28  S   UNL     1      43.586   3.248  12.244  0.00  0.00    +0.000 S 
ATOM     29  C   UNL     1      44.240   3.294  10.674  0.00  0.00    +0.000 A 
ATOM     30  N   UNL     1      44.034   2.275   9.797  0.00  0.00    +0.000 NA
ATOM     31  C   UNL     1      44.611   2.433   8.650  0.00  0.00    +0.000 A 
ATOM     32  N   UNL     1      45.364   3.520   8.300  0.00  0.00    +0.000 N 
ATOM     33  C   UNL     1      45.565   4.595   9.134  0.00  0.00    +0.000 A 
ATOM     34  O   UNL     1      46.182   5.580   8.761  0.00  0.00    +0.000 OA
ATOM     35  C   UNL     1      44.965   4.452  10.450  0.00  0.00    +0.000 A 
ATOM     36  H   UNL     1      45.777   3.593   7.380  0.00  0.00    +0.000 HD
ENDBRANCH  23  26
ENDBRANCH  21  22
ENDBRANCH   4  21
TORSDOF 9
ENDMDL
MODEL 7
REMARK VINA RESULT:    -6.851      3.639      8.511
REMARK INTER + INTRA:         -11.597
REMARK INTER:                 -10.187
REMARK INTRA:                  -1.410
REMARK UNBOUND:                -1.341
REMARK  Name = 
REMARK  9 active torsions:
REMARK  status: ('A' for Active; 'I' for Inactive)
REMARK    1  A    between atoms: N_1  and  C_2
REMARK    2  A    between atoms: C_2  and  C_3
REMARK    3  A    between atoms: C_6  and  C_7
REMARK    4  A    between atoms: C_7  and  N_8
REMARK    5  A    between atoms: N_8  and  C_9
REMARK    6  A    between atoms: C_9  and  C_10
REMARK    7  A    between atoms: C_13  and  C_14
REMARK    8  A    between atoms: C_14  and  N_15
REMARK    9  A    between atoms: C_16  and  C_18
REMARK                            x       y       z     vdW  Elec       q    Type
REMARK                         _______ _______ _______ _____ _____    ______ ____
ROOT
ATOM      1  C   UNL     1      48.656   8.221  16.178  0.00  0.00    +0.000 A 
ATOM      2  C   UNL     1      48.181   9.340  15.467  0.00  0.00    +0.000 A 
ATOM      3  C   UNL     1      48.091   9.320  14.075  0.00  0.00    +0.000 A 
ATOM      4  C   UNL     1      48.509   8.196  13.365  0.00  0.00    +0.000 A 
ATOM      5  C   UNL     1      49.016   7.092  14.075  0.00  0.00    +0.000 A 
ATOM      6  C   UNL     1      49.073   7.098  15.465  0.00  0.00    +0.000 A 
ENDROOT
BRANCH   1   7
ATOM      7  C   UNL     1      48.687   8.221  17.690  0.00  0.00    +0.000 C 
BRANCH   7   8
ATOM      8  N   UNL     1      47.374   7.959  18.280  0.00  0.00    +0.000 NA
ATOM      9  H   UNL     1      47.085   8.741  18.860  0.00  0.00    +0.000 HD
BRANCH   8  10
ATOM     10  C   UNL     1      47.374   6.708  19.051  0.00  0.00    +0.000 C 
BRANCH  10  14
ATOM     11  C   UNL     1      49.287   2.900  17.963  0.00  0.00    +0.000 C 
ATOM     12  C   UNL     1      48.244   3.525  17.018  0.00  0.00    +0.000 C 
ATOM     13  C   UNL     1      47.379   4.574  17.715  0.00  0.00    +0.000 C 
ATOM     14  C   UNL     1      48.249   5.659  18.367  0.00  0.00    +0.000 C 
ATOM     15  C   UNL     1      49.218   5.015  19.369  0.00  0.00    +0.000 C 
ATOM     16  C   UNL     1      50.101   3.980  18.692  0.00  0.00    +0.000 C 
BRANCH  11  17
ATOM     17  C   UNL     1      50.198   1.940  17.176  0.00  0.00    +0.000 C 
BRANCH  17  18
ATOM     18  N   UNL     1      49.705   1.684  15.826  0.00  0.00    +0.000 NA
ATOM     19  H   UNL     1      48.690   1.780  15.808  0.00  0.00    +0.000 HD
ATOM     20  H   UNL     1      49.912   0.724  15.558  0.00  0.00    +0.000 HD
ENDBRANCH  17  18
ENDBRANCH  11  17
ENDBRANCH  10  14
ENDBRANCH   8  10
ENDBRANCH   7   8
ENDBRANCH   1   7
BRANCH   4  21
ATOM     21  C   UNL     1      48.440   8.146  11.860  0.00  0.00    +0.000 C 
BRANCH  21  22
ATOM     22  N   UNL     1      47.688   7.015  11.395  0.00  0.00    +0.000 N 
ATOM     23  C   UNL     1      46.310   7.032  11.354  0.00  0.00    +0.000 C 
ATOM     24  O   UNL     1      45.652   8.008  11.684  0.00  0.00    +0.000 OA
ATOM     25  H   UNL     1      48.156   6.117  11.422  0.00  0.00    +0.000 HD
BRANCH  23  26
ATOM     26  C   UNL     1      45.687   5.816  10.815  0.00  0.00    +0.000 A 
ATOM     27  C   UNL     1      45.801   5.517   9.465  0.00  0.00    +0.000 A 
ATOM     28  S   UNL     1      45.045   4.049   9.026  0.00  0.00    +0.000 S 
ATOM     29  C   UNL     1      44.501   3.787  10.617  0.00  0.00    +0.000 A 
ATOM     30  N   UNL     1      43.747   2.699  10.931  0.00  0.00    +0.000 NA
ATOM     31  C   UNL     1      43.383   2.642  12.171  0.00  0.00    +0.000 A 
ATOM     32  N   UNL     1      43.715   3.566  13.124  0.00  0.00    +0.000 N 
ATOM     33  C   UNL     1      44.511   4.657  12.867  0.00  0.00    +0.000 A 
ATOM     34  O   UNL     1      44.846   5.422  13.758  0.00  0.00    +0.000 OA
ATOM     35  C   UNL     1      44.919   4.787  11.477  0.00  0.00    +0.000 A 
ATOM     36  H   UNL     1      43.414   3.457  14.082  0.00  0.00    +0.000 HD
ENDBRANCH  23  26
ENDBRANCH  21  22
ENDBRANCH   4  21
TORSDOF 9
ENDMDL
MODEL 8
REMARK VINA RESULT:    -6.728      4.177      5.178
REMARK INTER + INTRA:         -11.413
REMARK INTER:                 -10.893
REMARK INTRA:                  -0.520
REMARK UNBOUND:                -1.341
REMARK  Name = 
REMARK  9 active torsions:
REMARK  status: ('A' for Active; 'I' for Inactive)
REMARK    1  A    between atoms: N_1  and  C_2
REMARK    2  A    between atoms: C_2  and  C_3
REMARK    3  A    between atoms: C_6  and  C_7
REMARK    4  A    between atoms: C_7  and  N_8
REMARK    5  A    between atoms: N_8  and  C_9
REMARK    6  A    between atoms: C_9  and  C_10
REMARK    7  A    between atoms: C_13  and  C_14
REMARK    8  A    between atoms: C_14  and  N_15
REMARK    9  A    between atoms: C_16  and  C_18
REMARK                            x       y       z     vdW  Elec       q    Type
REMARK                         _______ _______ _______ _____ _____    ______ ____
ROOT
ATOM      1  C   UNL     1      44.649   4.569  12.592  0.00  0.00    +0.000 A 
ATOM      2  C   UNL     1      46.036   4.371  12.719  0.00  0.00    +0.000 A 
ATOM      3  C   UNL     1      46.898   5.446  12.935  0.00  0.00    +0.000 A 
ATOM      4  C   UNL     1      46.393   6.744  12.990  0.00  0.00    +0.000 A 
ATOM      5  C   UNL     1      45.009   6.944  12.827  0.00  0.00    +0.000 A 
ATOM      6  C   UNL     1      44.145   5.868  12.648  0.00  0.00    +0.000 A 
ENDROOT
BRANCH   1   7
ATOM      7  C   UNL     1      43.710   3.393  12.426  0.00  0.00    +0.000 C 
BRANCH   7   8
ATOM      8  N   UNL     1      43.137   3.317  11.082  0.00  0.00    +0.000 NA
ATOM      9  H   UNL     1      43.187   2.366  10.730  0.00  0.00    +0.000 HD
BRANCH   8  10
ATOM     10  C   UNL     1      43.804   4.250  10.163  0.00  0.00    +0.000 C 
BRANCH  10  14
ATOM     11  C   UNL     1      46.779   2.198   7.656  0.00  0.00    +0.000 C 
ATOM     12  C   UNL     1      45.694   1.376   8.377  0.00  0.00    +0.000 C 
ATOM     13  C   UNL     1      45.036   2.151   9.517  0.00  0.00    +0.000 C 
ATOM     14  C   UNL     1      44.469   3.489   9.017  0.00  0.00    +0.000 C 
ATOM     15  C   UNL     1      45.592   4.323   8.384  0.00  0.00    +0.000 C 
ATOM     16  C   UNL     1      46.249   3.577   7.234  0.00  0.00    +0.000 C 
BRANCH  11  17
ATOM     17  C   UNL     1      47.320   1.407   6.451  0.00  0.00    +0.000 C 
BRANCH  17  18
ATOM     18  N   UNL     1      48.579   1.947   5.948  0.00  0.00    +0.000 NA
ATOM     19  H   UNL     1      48.434   2.900   5.617  0.00  0.00    +0.000 HD
ATOM     20  H   UNL     1      48.892   1.404   5.145  0.00  0.00    +0.000 HD
ENDBRANCH  17  18
ENDBRANCH  11  17
ENDBRANCH  10  14
ENDBRANCH   8  10
ENDBRANCH   7   8
ENDBRANCH   1   7
BRANCH   4  21
ATOM     21  C   UNL     1      47.296   7.931  13.206  0.00  0.00    +0.000 C 
BRANCH  21  22
ATOM     22  N   UNL     1      48.620   7.696  12.702  0.00  0.00    +0.000 N 
ATOM     23  C   UNL     1      49.439   8.734  12.310  0.00  0.00    +0.000 C 
ATOM     24  O   UNL     1      49.101   9.906  12.388  0.00  0.00    +0.000 OA
ATOM     25  H   UNL     1      48.807   6.771  12.332  0.00  0.00    +0.000 HD
BRANCH  23  26
ATOM     26  C   UNL     1      50.778   8.335  11.857  0.00  0.00    +0.000 A 
ATOM     27  C   UNL     1      50.934   7.677  10.645  0.00  0.00    +0.000 A 
ATOM     28  S   UNL     1      52.562   7.324  10.266  0.00  0.00    +0.000 S 
ATOM     29  C   UNL     1      53.109   7.999  11.730  0.00  0.00    +0.000 A 
ATOM     30  N   UNL     1      54.430   7.993  12.055  0.00  0.00    +0.000 NA
ATOM     31  C   UNL     1      54.698   8.516  13.208  0.00  0.00    +0.000 A 
ATOM     32  N   UNL     1      53.767   9.052  14.055  0.00  0.00    +0.000 N 
ATOM     33  C   UNL     1      52.428   9.122  13.752  0.00  0.00    +0.000 A 
ATOM     34  O   UNL     1      51.636   9.674  14.502  0.00  0.00    +0.000 OA
ATOM     35  C   UNL     1      52.068   8.516  12.481  0.00  0.00    +0.000 A 
ATOM     36  H   UNL     1      54.041   9.462  14.937  0.00  0.00    +0.000 HD
ENDBRANCH  23  26
ENDBRANCH  21  22
ENDBRANCH   4  21
TORSDOF 9
ENDMDL
MODEL 9
REMARK VINA RESULT:    -6.655      4.019      9.071
REMARK INTER + INTRA:         -11.304
REMARK INTER:                  -9.133
REMARK INTRA:                  -2.170
REMARK UNBOUND:                -1.341
REMARK  Name = 
REMARK  9 active torsions:
REMARK  status: ('A' for Active; 'I' for Inactive)
REMARK    1  A    between atoms: N_1  and  C_2
REMARK    2  A    between atoms: C_2  and  C_3
REMARK    3  A    between atoms: C_6  and  C_7
REMARK    4  A    between atoms: C_7  and  N_8
REMARK    5  A    between atoms: N_8  and  C_9
REMARK    6  A    between atoms: C_9  and  C_10
REMARK    7  A    between atoms: C_13  and  C_14
REMARK    8  A    between atoms: C_14  and  N_15
REMARK    9  A    between atoms: C_16  and  C_18
REMARK                            x       y       z     vdW  Elec       q    Type
REMARK                         _______ _______ _______ _____ _____    ______ ____
ROOT
ATOM      1  C   UNL     1      49.743   5.415  19.498  0.00  0.00    +0.000 A 
ATOM      2  C   UNL     1      50.186   4.270  18.810  0.00  0.00    +0.000 A 
ATOM      3  C   UNL     1      49.381   3.651  17.854  0.00  0.00    +0.000 A 
ATOM      4  C   UNL     1      48.101   4.140  17.597  0.00  0.00    +0.000 A 
ATOM      5  C   UNL     1      47.646   5.263  18.312  0.00  0.00    +0.000 A 
ATOM      6  C   UNL     1      48.463   5.903  19.239  0.00  0.00    +0.000 A 
ENDROOT
BRANCH   1   7
ATOM      7  C   UNL     1      50.646   6.124  20.483  0.00  0.00    +0.000 C 
BRANCH   7   8
ATOM      8  N   UNL     1      50.988   7.482  20.055  0.00  0.00    +0.000 NA
ATOM      9  H   UNL     1      50.165   7.957  19.697  0.00  0.00    +0.000 HD
BRANCH   8  10
ATOM     10  C   UNL     1      52.063   7.471  19.053  0.00  0.00    +0.000 C 
BRANCH  10  14
ATOM     11  C   UNL     1      49.591   8.367  15.527  0.00  0.00    +0.000 C 
ATOM     12  C   UNL     1      49.763   9.432  16.626  0.00  0.00    +0.000 C 
ATOM     13  C   UNL     1      50.263   8.838  17.942  0.00  0.00    +0.000 C 
ATOM     14  C   UNL     1      51.566   8.052  17.730  0.00  0.00    +0.000 C 
ATOM     15  C   UNL     1      51.339   6.940  16.695  0.00  0.00    +0.000 C 
ATOM     16  C   UNL     1      50.859   7.513  15.371  0.00  0.00    +0.000 C 
BRANCH  11  17
ATOM     17  C   UNL     1      49.198   9.043  14.201  0.00  0.00    +0.000 C 
BRANCH  17  18
ATOM     18  N   UNL     1      47.941   9.777  14.298  0.00  0.00    +0.000 NA
ATOM     19  H   UNL     1      48.121  10.720  14.641  0.00  0.00    +0.000 HD
ATOM     20  H   UNL     1      47.331   9.330  14.982  0.00  0.00    +0.000 HD
ENDBRANCH  17  18
ENDBRANCH  11  17
ENDBRANCH  10  14
ENDBRANCH   8  10
ENDBRANCH   7   8
ENDBRANCH   1   7
BRANCH   4  21
ATOM     21  C   UNL     1      47.198   3.486  16.584  0.00  0.00    +0.000 C 
BRANCH  21  22
ATOM     22  N   UNL     1      46.678   4.433  15.638  0.00  0.00    +0.000 N 
ATOM     23  C   UNL     1      46.743   4.208  14.279  0.00  0.00    +0.000 C 
ATOM     24  O   UNL     1      47.220   3.189  13.802  0.00  0.00    +0.000 OA
ATOM     25  H   UNL     1      46.577   5.389  15.962  0.00  0.00    +0.000 HD
BRANCH  23  26
ATOM     26  C   UNL     1      46.132   5.250  13.444  0.00  0.00    +0.000 A 
ATOM     27  C   UNL     1      46.827   6.421  13.174  0.00  0.00    +0.000 A 
ATOM     28  S   UNL     1      45.976   7.499  12.159  0.00  0.00    +0.000 S 
ATOM     29  C   UNL     1      44.631   6.458  12.083  0.00  0.00    +0.000 A 
ATOM     30  N   UNL     1      43.515   6.803  11.387  0.00  0.00    +0.000 NA
ATOM     31  C   UNL     1      42.563   5.929  11.438  0.00  0.00    +0.000 A 
ATOM     32  N   UNL     1      42.633   4.740  12.111  0.00  0.00    +0.000 N 
ATOM     33  C   UNL     1      43.754   4.326  12.791  0.00  0.00    +0.000 A 
ATOM     34  O   UNL     1      43.806   3.226  13.320  0.00  0.00    +0.000 OA
ATOM     35  C   UNL     1      44.842   5.290  12.794  0.00  0.00    +0.000 A 
ATOM     36  H   UNL     1      41.860   4.088  12.099  0.00  0.00    +0.000 HD
ENDBRANCH  23  26
ENDBRANCH  21  22
ENDBRANCH   4  21
TORSDOF 9
ENDMDL
