MODEL 1
REMARK VINA RESULT:    -8.662      0.000      0.000
REMARK INTER + INTRA:         -12.605
REMARK INTER:                 -11.700
REMARK INTRA:                  -0.905
REMARK UNBOUND:                -0.905
REMARK  Name = 
REMARK  8 active torsions:
REMARK  status: ('A' for Active; 'I' for Inactive)
REMARK    1  A    between atoms: C_1  and  C_2
REMARK    2  A    between atoms: C_2  and  C_3
REMARK    3  A    between atoms: C_2  and  C_4
REMARK    4  A    between atoms: C_6  and  N_7
REMARK    5  A    between atoms: C_14  and  C_15
REMARK    6  A    between atoms: C_15  and  N_16
REMARK    7  A    between atoms: N_16  and  C_17
REMARK    8  A    between atoms: C_20  and  C_21
REMARK                            x       y       z     vdW  Elec       q    Type
REMARK                         _______ _______ _______ _____ _____    ______ ____
ROOT
ATOM      1  C   UNL     1      45.249   8.066  12.360  0.00  0.00    +0.000 A 
ATOM      2  C   UNL     1      46.217   7.514  13.203  0.00  0.00    +0.000 A 
ATOM      3  C   UNL     1      46.301   6.130  13.377  0.00  0.00    +0.000 A 
ATOM      4  C   UNL     1      45.364   5.366  12.682  0.00  0.00    +0.000 A 
ATOM      5  C   UNL     1      44.412   5.968  11.861  0.00  0.00    +0.000 A 
ATOM      6  N   UNL     1      44.339   7.309  11.705  0.00  0.00    +0.000 NA
ENDROOT
BRANCH   3   7
ATOM      7  N   UNL     1      47.273   5.539  14.158  0.00  0.00    +0.000 N 
ATOM      8  C   UNL     1      47.216   4.135  14.595  0.00  0.00    +0.000 C 
ATOM      9  C   UNL     1      47.434   4.040  16.122  0.00  0.00    +0.000 C 
ATOM     10  N   UNL     1      48.666   4.711  16.589  0.00  0.00    +0.000 NA
ATOM     11  C   UNL     1      48.640   6.118  16.135  0.00  0.00    +0.000 C 
ATOM     12  C   UNL     1      48.466   6.276  14.605  0.00  0.00    +0.000 C 
ATOM     13  H   UNL     1      49.463   4.255  16.143  0.00  0.00    +0.000 HD
ENDBRANCH   3   7
BRANCH   1  15
ATOM     14  C   UNL     1      46.659  10.074  11.884  0.00  0.00    +0.000 C 
ATOM     15  C   UNL     1      45.233   9.559  12.094  0.00  0.00    +0.000 C 
ATOM     16  C   UNL     1      44.352   9.894  10.891  0.00  0.00    +0.000 C 
ENDBRANCH   1  15
BRANCH   5  17
ATOM     17  C   UNL     1      43.414   5.118  11.100  0.00  0.00    +0.000 C 
BRANCH  17  18
ATOM     18  N   UNL     1      43.738   5.024   9.680  0.00  0.00    +0.000 N 
ATOM     19  H   UNL     1      42.909   5.165   9.107  0.00  0.00    +0.000 HD
BRANCH  18  20
ATOM     20  C   UNL     1      44.616   4.092   9.140  0.00  0.00    +0.000 A 
ATOM     21  C   UNL     1      45.564   4.375   8.152  0.00  0.00    +0.000 A 
ATOM     22  C   UNL     1      46.376   3.370   7.611  0.00  0.00    +0.000 A 
ATOM     23  C   UNL     1      46.217   2.041   8.011  0.00  0.00    +0.000 A 
ATOM     24  C   UNL     1      45.231   1.727   8.946  0.00  0.00    +0.000 A 
ATOM     25  C   UNL     1      44.445   2.747   9.498  0.00  0.00    +0.000 A 
BRANCH  23  26
ATOM     26  C   UNL     1      47.078   1.006   7.379  0.00  0.00    +0.000 C 
ATOM     27  N   UNL     1      46.765  -0.304   7.612  0.00  0.00    +0.000 N 
ATOM     28  O   UNL     1      48.052   1.307   6.699  0.00  0.00    +0.000 OA
ATOM     29  H   UNL     1      46.114  -0.596   8.325  0.00  0.00    +0.000 HD
ATOM     30  H   UNL     1      47.410  -0.992   7.247  0.00  0.00    +0.000 HD
ENDBRANCH  23  26
ENDBRANCH  18  20
ENDBRANCH  17  18
ENDBRANCH   5  17
TORSDOF 6
ENDMDL
MODEL 2
REMARK VINA RESULT:    -8.425      1.542      2.190
REMARK INTER + INTRA:         -12.285
REMARK INTER:                 -11.474
REMARK INTRA:                  -0.811
REMARK UNBOUND:                -0.905
REMARK  Name = 
REMARK  8 active torsions:
REMARK  status: ('A' for Active; 'I' for Inactive)
REMARK    1  A    between atoms: C_1  and  C_2
REMARK    2  A    between atoms: C_2  and  C_3
REMARK    3  A    between atoms: C_2  and  C_4
REMARK    4  A    between atoms: C_6  and  N_7
REMARK    5  A    between atoms: C_14  and  C_15
REMARK    6  A    between atoms: C_15  and  N_16
REMARK    7  A    between atoms: N_16  and  C_17
REMARK    8  A    between atoms: C_20  and  C_21
REMARK                            x       y       z     vdW  Elec       q    Type
REMARK                         _______ _______ _______ _____ _____    ______ ____
ROOT
ATOM      1  C   UNL     1      47.121   6.698  12.493  0.00  0.00    +0.000 A 
ATOM      2  C   UNL     1      47.687   6.269  13.697  0.00  0.00    +0.000 A 
ATOM      3  C   UNL     1      47.147   5.180  14.387  0.00  0.00    +0.000 A 
ATOM      4  C   UNL     1      46.025   4.583  13.810  0.00  0.00    +0.000 A 
ATOM      5  C   UNL     1      45.495   5.057  12.612  0.00  0.00    +0.000 A 
ATOM      6  N   UNL     1      46.025   6.115  11.957  0.00  0.00    +0.000 NA
ENDROOT
BRANCH   3   7
ATOM      7  N   UNL     1      47.703   4.690  15.550  0.00  0.00    +0.000 N 
ATOM      8  C   UNL     1      47.650   3.271  15.937  0.00  0.00    +0.000 C 
ATOM      9  C   UNL     1      47.126   3.130  17.383  0.00  0.00    +0.000 C 
ATOM     10  N   UNL     1      47.874   3.940  18.369  0.00  0.00    +0.000 NA
ATOM     11  C   UNL     1      47.863   5.352  17.927  0.00  0.00    +0.000 C 
ATOM     12  C   UNL     1      48.418   5.561  16.498  0.00  0.00    +0.000 C 
ATOM     13  H   UNL     1      48.843   3.622  18.369  0.00  0.00    +0.000 HD
ENDBRANCH   3   7
BRANCH   1  15
ATOM     14  C   UNL     1      47.244   9.172  12.157  0.00  0.00    +0.000 C 
ATOM     15  C   UNL     1      47.776   7.811  11.699  0.00  0.00    +0.000 C 
ATOM     16  C   UNL     1      49.299   7.755  11.825  0.00  0.00    +0.000 C 
ENDBRANCH   1  15
BRANCH   5  17
ATOM     17  C   UNL     1      44.286   4.383  11.993  0.00  0.00    +0.000 C 
BRANCH  17  18
ATOM     18  N   UNL     1      44.205   4.609  10.553  0.00  0.00    +0.000 N 
ATOM     19  H   UNL     1      43.250   4.824  10.272  0.00  0.00    +0.000 HD
BRANCH  18  20
ATOM     20  C   UNL     1      44.893   3.861   9.606  0.00  0.00    +0.000 A 
ATOM     21  C   UNL     1      44.970   2.465   9.602  0.00  0.00    +0.000 A 
ATOM     22  C   UNL     1      45.735   1.779   8.649  0.00  0.00    +0.000 A 
ATOM     23  C   UNL     1      46.488   2.484   7.707  0.00  0.00    +0.000 A 
ATOM     24  C   UNL     1      46.478   3.879   7.737  0.00  0.00    +0.000 A 
ATOM     25  C   UNL     1      45.688   4.550   8.680  0.00  0.00    +0.000 A 
BRANCH  23  26
ATOM     26  C   UNL     1      47.312   1.710   6.741  0.00  0.00    +0.000 C 
ATOM     27  N   UNL     1      48.287   2.385   6.062  0.00  0.00    +0.000 N 
ATOM     28  O   UNL     1      47.111   0.520   6.533  0.00  0.00    +0.000 OA
ATOM     29  H   UNL     1      48.348   3.392   6.041  0.00  0.00    +0.000 HD
ATOM     30  H   UNL     1      48.779   1.865   5.348  0.00  0.00    +0.000 HD
ENDBRANCH  23  26
ENDBRANCH  18  20
ENDBRANCH  17  18
ENDBRANCH   5  17
TORSDOF 6
ENDMDL
MODEL 3
REMARK VINA RESULT:    -8.000      1.882      4.136
REMARK INTER + INTRA:         -11.711
REMARK INTER:                 -10.932
REMARK INTRA:                  -0.779
REMARK UNBOUND:                -0.905
REMARK  Name = 
REMARK  8 active torsions:
REMARK  status: ('A' for Active; 'I' for Inactive)
REMARK    1  A    between atoms: C_1  and  C_2
REMARK    2  A    between atoms: C_2  and  C_3
REMARK    3  A    between atoms: C_2  and  C_4
REMARK    4  A    between atoms: C_6  and  N_7
REMARK    5  A    between atoms: C_14  and  C_15
REMARK    6  A    between atoms: C_15  and  N_16
REMARK    7  A    between atoms: N_16  and  C_17
REMARK    8  A    between atoms: C_20  and  C_21
REMARK                            x       y       z     vdW  Elec       q    Type
REMARK                         _______ _______ _______ _____ _____    ______ ____
ROOT
ATOM      1  C   UNL     1      46.687   4.702  14.322  0.00  0.00    +0.000 A 
ATOM      2  C   UNL     1      47.234   5.859  13.760  0.00  0.00    +0.000 A 
ATOM      3  C   UNL     1      46.740   6.365  12.555  0.00  0.00    +0.000 A 
ATOM      4  C   UNL     1      45.704   5.640  11.964  0.00  0.00    +0.000 A 
ATOM      5  C   UNL     1      45.201   4.487  12.562  0.00  0.00    +0.000 A 
ATOM      6  N   UNL     1      45.693   4.005  13.727  0.00  0.00    +0.000 NA
ENDROOT
BRANCH   3   7
ATOM      7  N   UNL     1      47.213   7.531  11.990  0.00  0.00    +0.000 N 
ATOM      8  C   UNL     1      48.564   7.663  11.420  0.00  0.00    +0.000 C 
ATOM      9  C   UNL     1      49.270   8.909  12.000  0.00  0.00    +0.000 C 
ATOM     10  N   UNL     1      48.488  10.156  11.855  0.00  0.00    +0.000 NA
ATOM     11  C   UNL     1      47.158   9.955  12.471  0.00  0.00    +0.000 C 
ATOM     12  C   UNL     1      46.384   8.744  11.898  0.00  0.00    +0.000 C 
ATOM     13  H   UNL     1      48.348  10.327  10.860  0.00  0.00    +0.000 HD
ENDBRANCH   3   7
BRANCH   1  15
ATOM     14  C   UNL     1      47.891   2.884  15.544  0.00  0.00    +0.000 C 
ATOM     15  C   UNL     1      47.158   4.221  15.681  0.00  0.00    +0.000 C 
ATOM     16  C   UNL     1      48.052   5.263  16.354  0.00  0.00    +0.000 C 
ENDBRANCH   1  15
BRANCH   5  17
ATOM     17  C   UNL     1      44.063   3.724  11.913  0.00  0.00    +0.000 C 
BRANCH  17  18
ATOM     18  N   UNL     1      43.920   4.047  10.496  0.00  0.00    +0.000 N 
ATOM     19  H   UNL     1      42.938   4.083  10.228  0.00  0.00    +0.000 HD
BRANCH  18  20
ATOM     20  C   UNL     1      44.737   3.537   9.494  0.00  0.00    +0.000 A 
ATOM     21  C   UNL     1      45.118   2.196   9.387  0.00  0.00    +0.000 A 
ATOM     22  C   UNL     1      45.994   1.764   8.384  0.00  0.00    +0.000 A 
ATOM     23  C   UNL     1      46.556   2.682   7.493  0.00  0.00    +0.000 A 
ATOM     24  C   UNL     1      46.242   4.035   7.625  0.00  0.00    +0.000 A 
ATOM     25  C   UNL     1      45.343   4.448   8.617  0.00  0.00    +0.000 A 
BRANCH  23  26
ATOM     26  C   UNL     1      47.510   2.179   6.470  0.00  0.00    +0.000 C 
ATOM     27  N   UNL     1      47.832   3.019   5.441  0.00  0.00    +0.000 N 
ATOM     28  O   UNL     1      47.970   1.045   6.522  0.00  0.00    +0.000 OA
ATOM     29  H   UNL     1      47.324   3.867   5.242  0.00  0.00    +0.000 HD
ATOM     30  H   UNL     1      48.413   2.631   4.710  0.00  0.00    +0.000 HD
ENDBRANCH  23  26
ENDBRANCH  18  20
ENDBRANCH  17  18
ENDBRANCH   5  17
TORSDOF 6
ENDMDL
MODEL 4
REMARK VINA RESULT:    -7.089      3.920      7.923
REMARK INTER + INTRA:         -10.481
REMARK INTER:                  -9.714
REMARK INTRA:                  -0.767
REMARK UNBOUND:                -0.905
REMARK  Name = 
REMARK  8 active torsions:
REMARK  status: ('A' for Active; 'I' for Inactive)
REMARK    1  A    between atoms: C_1  and  C_2
REMARK    2  A    between atoms: C_2  and  C_3
REMARK    3  A    between atoms: C_2  and  C_4
REMARK    4  A    between atoms: C_6  and  N_7
REMARK    5  A    between atoms: C_14  and  C_15
REMARK    6  A    between atoms: C_15  and  N_16
REMARK    7  A    between atoms: N_16  and  C_17
REMARK    8  A    between atoms: C_20  and  C_21
REMARK                            x       y       z     vdW  Elec       q    Type
REMARK                         _______ _______ _______ _____ _____    ______ ____
ROOT
ATOM      1  C   UNL     1      48.132   6.445  13.860  0.00  0.00    +0.000 A 
ATOM      2  C   UNL     1      47.167   6.081  12.917  0.00  0.00    +0.000 A 
ATOM      3  C   UNL     1      46.271   5.042  13.184  0.00  0.00    +0.000 A 
ATOM      4  C   UNL     1      46.419   4.405  14.416  0.00  0.00    +0.000 A 
ATOM      5  C   UNL     1      47.406   4.801  15.316  0.00  0.00    +0.000 A 
ATOM      6  N   UNL     1      48.270   5.805  15.043  0.00  0.00    +0.000 NA
ENDROOT
BRANCH   3   7
ATOM      7  N   UNL     1      45.270   4.683  12.305  0.00  0.00    +0.000 N 
ATOM      8  C   UNL     1      44.364   5.654  11.671  0.00  0.00    +0.000 C 
ATOM      9  C   UNL     1      42.894   5.219  11.861  0.00  0.00    +0.000 C 
ATOM     10  N   UNL     1      42.620   3.838  11.411  0.00  0.00    +0.000 NA
ATOM     11  C   UNL     1      43.548   2.920  12.107  0.00  0.00    +0.000 C 
ATOM     12  C   UNL     1      45.040   3.282  11.917  0.00  0.00    +0.000 C 
ATOM     13  H   UNL     1      42.821   3.785  10.413  0.00  0.00    +0.000 HD
ENDBRANCH   3   7
BRANCH   1  15
ATOM     14  C   UNL     1      50.208   7.635  14.585  0.00  0.00    +0.000 C 
ATOM     15  C   UNL     1      49.030   7.640  13.606  0.00  0.00    +0.000 C 
ATOM     16  C   UNL     1      49.527   7.658  12.160  0.00  0.00    +0.000 C 
ENDBRANCH   1  15
BRANCH   5  17
ATOM     17  C   UNL     1      47.538   4.107  16.657  0.00  0.00    +0.000 C 
BRANCH  17  18
ATOM     18  N   UNL     1      48.753   4.500  17.365  0.00  0.00    +0.000 N 
ATOM     19  H   UNL     1      49.007   5.462  17.147  0.00  0.00    +0.000 HD
BRANCH  18  20
ATOM     20  C   UNL     1      49.858   3.674  17.534  0.00  0.00    +0.000 A 
ATOM     21  C   UNL     1      51.118   4.112  17.954  0.00  0.00    +0.000 A 
ATOM     22  C   UNL     1      52.204   3.232  18.044  0.00  0.00    +0.000 A 
ATOM     23  C   UNL     1      52.064   1.895  17.661  0.00  0.00    +0.000 A 
ATOM     24  C   UNL     1      50.832   1.454  17.176  0.00  0.00    +0.000 A 
ATOM     25  C   UNL     1      49.749   2.341  17.116  0.00  0.00    +0.000 A 
BRANCH  23  26
ATOM     26  C   UNL     1      53.255   1.010  17.741  0.00  0.00    +0.000 C 
ATOM     27  N   UNL     1      53.081  -0.236  18.275  0.00  0.00    +0.000 N 
ATOM     28  O   UNL     1      54.362   1.385  17.372  0.00  0.00    +0.000 OA
ATOM     29  H   UNL     1      52.251  -0.508  18.779  0.00  0.00    +0.000 HD
ATOM     30  H   UNL     1      53.917  -0.792  18.401  0.00  0.00    +0.000 HD
ENDBRANCH  23  26
ENDBRANCH  18  20
ENDBRANCH  17  18
ENDBRANCH   5  17
TORSDOF 6
ENDMDL
MODEL 5
REMARK VINA RESULT:    -6.704      3.485      7.537
REMARK INTER + INTRA:          -9.960
REMARK INTER:                  -9.214
REMARK INTRA:                  -0.745
REMARK UNBOUND:                -0.905
REMARK  Name = 
REMARK  8 active torsions:
REMARK  status: ('A' for Active; 'I' for Inactive)
REMARK    1  A    between atoms: C_1  and  C_2
REMARK    2  A    between atoms: C_2  and  C_3
REMARK    3  A    between atoms: C_2  and  C_4
REMARK    4  A    between atoms: C_6  and  N_7
REMARK    5  A    between atoms: C_14  and  C_15
REMARK    6  A    between atoms: C_15  and  N_16
REMARK    7  A    between atoms: N_16  and  C_17
REMARK    8  A    between atoms: C_20  and  C_21
REMARK                            x       y       z     vdW  Elec       q    Type
REMARK                         _______ _______ _______ _____ _____    ______ ____
ROOT
ATOM      1  C   UNL     1      47.358   6.806  12.678  0.00  0.00    +0.000 A 
ATOM      2  C   UNL     1      46.650   6.313  11.580  0.00  0.00    +0.000 A 
ATOM      3  C   UNL     1      45.888   5.147  11.692  0.00  0.00    +0.000 A 
ATOM      4  C   UNL     1      45.902   4.522  12.939  0.00  0.00    +0.000 A 
ATOM      5  C   UNL     1      46.634   5.051  14.000  0.00  0.00    +0.000 A 
ATOM      6  N   UNL     1      47.372   6.178  13.876  0.00  0.00    +0.000 NA
ENDROOT
BRANCH   3   7
ATOM      7  N   UNL     1      45.132   4.653  10.649  0.00  0.00    +0.000 N 
ATOM      8  C   UNL     1      44.122   3.595  10.812  0.00  0.00    +0.000 C 
ATOM      9  C   UNL     1      44.351   2.471   9.778  0.00  0.00    +0.000 C 
ATOM     10  N   UNL     1      44.420   2.953   8.381  0.00  0.00    +0.000 NA
ATOM     11  C   UNL     1      45.469   3.992   8.291  0.00  0.00    +0.000 C 
ATOM     12  C   UNL     1      45.268   5.167   9.277  0.00  0.00    +0.000 C 
ATOM     13  H   UNL     1      43.528   3.391   8.154  0.00  0.00    +0.000 HD
ENDBRANCH   3   7
BRANCH   1  15
ATOM     14  C   UNL     1      48.042   8.867  13.917  0.00  0.00    +0.000 C 
ATOM     15  C   UNL     1      48.096   8.127  12.577  0.00  0.00    +0.000 C 
ATOM     16  C   UNL     1      49.543   7.917  12.132  0.00  0.00    +0.000 C 
ENDBRANCH   1  15
BRANCH   5  17
ATOM     17  C   UNL     1      46.621   4.366  15.352  0.00  0.00    +0.000 C 
BRANCH  17  18
ATOM     18  N   UNL     1      47.621   4.919  16.260  0.00  0.00    +0.000 N 
ATOM     19  H   UNL     1      47.849   5.880  16.010  0.00  0.00    +0.000 HD
BRANCH  18  20
ATOM     20  C   UNL     1      48.715   4.211  16.741  0.00  0.00    +0.000 A 
ATOM     21  C   UNL     1      49.883   4.797  17.239  0.00  0.00    +0.000 A 
ATOM     22  C   UNL     1      50.972   4.019  17.651  0.00  0.00    +0.000 A 
ATOM     23  C   UNL     1      50.936   2.628  17.521  0.00  0.00    +0.000 A 
ATOM     24  C   UNL     1      49.806   2.028  16.964  0.00  0.00    +0.000 A 
ATOM     25  C   UNL     1      48.715   2.818  16.581  0.00  0.00    +0.000 A 
BRANCH  23  26
ATOM     26  C   UNL     1      52.132   1.849  17.939  0.00  0.00    +0.000 C 
ATOM     27  N   UNL     1      51.994   0.494  18.051  0.00  0.00    +0.000 N 
ATOM     28  O   UNL     1      53.195   2.396  18.204  0.00  0.00    +0.000 OA
ATOM     29  H   UNL     1      51.099   0.029  18.051  0.00  0.00    +0.000 HD
ATOM     30  H   UNL     1      52.791  -0.009  18.418  0.00  0.00    +0.000 HD
ENDBRANCH  23  26
ENDBRANCH  18  20
ENDBRANCH  17  18
ENDBRANCH   5  17
TORSDOF 6
ENDMDL
MODEL 6
REMARK VINA RESULT:    -6.479      3.467      7.384
REMARK INTER + INTRA:          -9.657
REMARK INTER:                  -8.861
REMARK INTRA:                  -0.795
REMARK UNBOUND:                -0.905
REMARK  Name = 
REMARK  8 active torsions:
REMARK  status: ('A' for Active; 'I' for Inactive)
REMARK    1  A    between atoms: C_1  and  C_2
REMARK    2  A    between atoms: C_2  and  C_3
REMARK    3  A    between atoms: C_2  and  C_4
REMARK    4  A    between atoms: C_6  and  N_7
REMARK    5  A    between atoms: C_14  and  C_15
REMARK    6  A    between atoms: C_15  and  N_16
REMARK    7  A    between atoms: N_16  and  C_17
REMARK    8  A    between atoms: C_20  and  C_21
REMARK                            x       y       z     vdW  Elec       q    Type
REMARK                         _______ _______ _______ _____ _____    ______ ____
ROOT
ATOM      1  C   UNL     1      45.538   8.451  12.012  0.00  0.00    +0.000 A 
ATOM      2  C   UNL     1      44.702   7.411  11.596  0.00  0.00    +0.000 A 
ATOM      3  C   UNL     1      45.133   6.084  11.662  0.00  0.00    +0.000 A 
ATOM      4  C   UNL     1      46.426   5.882  12.145  0.00  0.00    +0.000 A 
ATOM      5  C   UNL     1      47.222   6.955  12.538  0.00  0.00    +0.000 A 
ATOM      6  N   UNL     1      46.794   8.236  12.463  0.00  0.00    +0.000 NA
ENDROOT
BRANCH   3   7
ATOM      7  N   UNL     1      44.323   5.023  11.311  0.00  0.00    +0.000 N 
ATOM      8  C   UNL     1      43.342   4.417  12.225  0.00  0.00    +0.000 C 
ATOM      9  C   UNL     1      43.527   2.884  12.269  0.00  0.00    +0.000 C 
ATOM     10  N   UNL     1      43.504   2.244  10.936  0.00  0.00    +0.000 NA
ATOM     11  C   UNL     1      44.529   2.887  10.085  0.00  0.00    +0.000 C 
ATOM     12  C   UNL     1      44.369   4.421   9.969  0.00  0.00    +0.000 C 
ATOM     13  H   UNL     1      42.593   2.424  10.514  0.00  0.00    +0.000 HD
ENDBRANCH   3   7
BRANCH   1  15
ATOM     14  C   UNL     1      46.164  10.855  11.741  0.00  0.00    +0.000 C 
ATOM     15  C   UNL     1      45.024   9.877  12.035  0.00  0.00    +0.000 C 
ATOM     16  C   UNL     1      43.877  10.065  11.042  0.00  0.00    +0.000 C 
ENDBRANCH   1  15
BRANCH   5  17
ATOM     17  C   UNL     1      48.618   6.712  13.076  0.00  0.00    +0.000 C 
BRANCH  17  18
ATOM     18  N   UNL     1      48.791   7.246  14.425  0.00  0.00    +0.000 N 
ATOM     19  H   UNL     1      49.486   7.990  14.436  0.00  0.00    +0.000 HD
BRANCH  18  20
ATOM     20  C   UNL     1      48.814   6.466  15.575  0.00  0.00    +0.000 A 
ATOM     21  C   UNL     1      47.961   5.385  15.816  0.00  0.00    +0.000 A 
ATOM     22  C   UNL     1      48.000   4.680  17.026  0.00  0.00    +0.000 A 
ATOM     23  C   UNL     1      48.862   5.082  18.050  0.00  0.00    +0.000 A 
ATOM     24  C   UNL     1      49.673   6.200  17.854  0.00  0.00    +0.000 A 
ATOM     25  C   UNL     1      49.641   6.878  16.628  0.00  0.00    +0.000 A 
BRANCH  23  26
ATOM     26  C   UNL     1      48.840   4.324  19.329  0.00  0.00    +0.000 C 
ATOM     27  N   UNL     1      48.306   3.066  19.307  0.00  0.00    +0.000 N 
ATOM     28  O   UNL     1      49.253   4.813  20.373  0.00  0.00    +0.000 OA
ATOM     29  H   UNL     1      47.769   2.709  18.532  0.00  0.00    +0.000 HD
ATOM     30  H   UNL     1      48.220   2.599  20.200  0.00  0.00    +0.000 HD
ENDBRANCH  23  26
ENDBRANCH  18  20
ENDBRANCH  17  18
ENDBRANCH   5  17
TORSDOF 6
ENDMDL
MODEL 7
REMARK VINA RESULT:    -6.285      3.173      6.338
REMARK INTER + INTRA:          -9.394
REMARK INTER:                  -8.670
REMARK INTRA:                  -0.725
REMARK UNBOUND:                -0.905
REMARK  Name = 
REMARK  8 active torsions:
REMARK  status: ('A' for Active; 'I' for Inactive)
REMARK    1  A    between atoms: C_1  and  C_2
REMARK    2  A    between atoms: C_2  and  C_3
REMARK    3  A    between atoms: C_2  and  C_4
REMARK    4  A    between atoms: C_6  and  N_7
REMARK    5  A    between atoms: C_14  and  C_15
REMARK    6  A    between atoms: C_15  and  N_16
REMARK    7  A    between atoms: N_16  and  C_17
REMARK    8  A    between atoms: C_20  and  C_21
REMARK                            x       y       z     vdW  Elec       q    Type
REMARK                         _______ _______ _______ _____ _____    ______ ____
ROOT
ATOM      1  C   UNL     1      48.880   4.968  17.473  0.00  0.00    +0.000 A 
ATOM      2  C   UNL     1      49.002   5.970  18.439  0.00  0.00    +0.000 A 
ATOM      3  C   UNL     1      48.975   7.318  18.071  0.00  0.00    +0.000 A 
ATOM      4  C   UNL     1      48.840   7.580  16.707  0.00  0.00    +0.000 A 
ATOM      5  C   UNL     1      48.732   6.542  15.784  0.00  0.00    +0.000 A 
ATOM      6  N   UNL     1      48.764   5.241  16.153  0.00  0.00    +0.000 NA
ENDROOT
BRANCH   3   7
ATOM      7  N   UNL     1      49.039   8.340  18.995  0.00  0.00    +0.000 N 
ATOM      8  C   UNL     1      48.428   8.262  20.332  0.00  0.00    +0.000 C 
ATOM      9  C   UNL     1      47.554   9.509  20.594  0.00  0.00    +0.000 C 
ATOM     10  N   UNL     1      48.267  10.788  20.391  0.00  0.00    +0.000 NA
ATOM     11  C   UNL     1      48.831  10.803  19.024  0.00  0.00    +0.000 C 
ATOM     12  C   UNL     1      49.751   9.598  18.716  0.00  0.00    +0.000 C 
ATOM     13  H   UNL     1      49.046  10.824  21.049  0.00  0.00    +0.000 HD
ENDBRANCH   3   7
BRANCH   1  15
ATOM     14  C   UNL     1      47.504   2.883  17.385  0.00  0.00    +0.000 C 
ATOM     15  C   UNL     1      48.804   3.513  17.892  0.00  0.00    +0.000 C 
ATOM     16  C   UNL     1      50.018   2.731  17.388  0.00  0.00    +0.000 C 
ENDBRANCH   1  15
BRANCH   5  17
ATOM     17  C   UNL     1      48.567   6.848  14.308  0.00  0.00    +0.000 C 
BRANCH  17  18
ATOM     18  N   UNL     1      47.166   7.003  13.930  0.00  0.00    +0.000 N 
ATOM     19  H   UNL     1      46.583   7.165  14.749  0.00  0.00    +0.000 HD
BRANCH  18  20
ATOM     20  C   UNL     1      46.532   6.241  12.956  0.00  0.00    +0.000 A 
ATOM     21  C   UNL     1      46.349   6.644  11.629  0.00  0.00    +0.000 A 
ATOM     22  C   UNL     1      45.646   5.848  10.715  0.00  0.00    +0.000 A 
ATOM     23  C   UNL     1      45.059   4.649  11.128  0.00  0.00    +0.000 A 
ATOM     24  C   UNL     1      45.173   4.263  12.464  0.00  0.00    +0.000 A 
ATOM     25  C   UNL     1      45.901   5.056  13.359  0.00  0.00    +0.000 A 
BRANCH  23  26
ATOM     26  C   UNL     1      44.292   3.859  10.129  0.00  0.00    +0.000 C 
ATOM     27  N   UNL     1      44.151   4.391   8.878  0.00  0.00    +0.000 N 
ATOM     28  O   UNL     1      43.776   2.787  10.416  0.00  0.00    +0.000 OA
ATOM     29  H   UNL     1      44.371   5.351   8.659  0.00  0.00    +0.000 HD
ATOM     30  H   UNL     1      43.555   3.882   8.238  0.00  0.00    +0.000 HD
ENDBRANCH  23  26
ENDBRANCH  18  20
ENDBRANCH  17  18
ENDBRANCH   5  17
TORSDOF 6
ENDMDL
MODEL 8
REMARK VINA RESULT:    -5.765      3.834      7.541
REMARK INTER + INTRA:          -8.691
REMARK INTER:                  -7.885
REMARK INTRA:                  -0.806
REMARK UNBOUND:                -0.905
REMARK  Name = 
REMARK  8 active torsions:
REMARK  status: ('A' for Active; 'I' for Inactive)
REMARK    1  A    between atoms: C_1  and  C_2
REMARK    2  A    between atoms: C_2  and  C_3
REMARK    3  A    between atoms: C_2  and  C_4
REMARK    4  A    between atoms: C_6  and  N_7
REMARK    5  A    between atoms: C_14  and  C_15
REMARK    6  A    between atoms: C_15  and  N_16
REMARK    7  A    between atoms: N_16  and  C_17
REMARK    8  A    between atoms: C_20  and  C_21
REMARK                            x       y       z     vdW  Elec       q    Type
REMARK                         _______ _______ _______ _____ _____    ______ ____
ROOT
ATOM      1  C   UNL     1      45.190   5.381  12.047  0.00  0.00    +0.000 A 
ATOM      2  C   UNL     1      45.981   6.494  11.751  0.00  0.00    +0.000 A 
ATOM      3  C   UNL     1      47.063   6.834  12.569  0.00  0.00    +0.000 A 
ATOM      4  C   UNL     1      47.275   6.013  13.677  0.00  0.00    +0.000 A 
ATOM      5  C   UNL     1      46.450   4.920  13.931  0.00  0.00    +0.000 A 
ATOM      6  N   UNL     1      45.403   4.606  13.134  0.00  0.00    +0.000 NA
ENDROOT
BRANCH   3   7
ATOM      7  N   UNL     1      47.901   7.892  12.287  0.00  0.00    +0.000 N 
ATOM      8  C   UNL     1      49.109   7.768  11.455  0.00  0.00    +0.000 C 
ATOM      9  C   UNL     1      50.326   8.378  12.185  0.00  0.00    +0.000 C 
ATOM     10  N   UNL     1      50.113   9.769  12.639  0.00  0.00    +0.000 NA
ATOM     11  C   UNL     1      48.900   9.810  13.486  0.00  0.00    +0.000 C 
ATOM     12  C   UNL     1      47.636   9.250  12.791  0.00  0.00    +0.000 C 
ATOM     13  H   UNL     1      49.936  10.346  11.817  0.00  0.00    +0.000 HD
ENDBRANCH   3   7
BRANCH   1  15
ATOM     14  C   UNL     1      44.246   3.484  10.721  0.00  0.00    +0.000 C 
ATOM     15  C   UNL     1      44.086   4.959  11.097  0.00  0.00    +0.000 C 
ATOM     16  C   UNL     1      42.707   5.217  11.707  0.00  0.00    +0.000 C 
ENDBRANCH   1  15
BRANCH   5  17
ATOM     17  C   UNL     1      46.709   4.031  15.131  0.00  0.00    +0.000 C 
BRANCH  17  18
ATOM     18  N   UNL     1      47.466   4.718  16.174  0.00  0.00    +0.000 N 
ATOM     19  H   UNL     1      47.415   5.728  16.056  0.00  0.00    +0.000 HD
BRANCH  18  20
ATOM     20  C   UNL     1      48.700   4.291  16.651  0.00  0.00    +0.000 A 
ATOM     21  C   UNL     1      49.046   2.953  16.868  0.00  0.00    +0.000 A 
ATOM     22  C   UNL     1      50.288   2.600  17.410  0.00  0.00    +0.000 A 
ATOM     23  C   UNL     1      51.196   3.587  17.800  0.00  0.00    +0.000 A 
ATOM     24  C   UNL     1      50.843   4.929  17.654  0.00  0.00    +0.000 A 
ATOM     25  C   UNL     1      49.607   5.266  17.086  0.00  0.00    +0.000 A 
BRANCH  23  26
ATOM     26  C   UNL     1      52.486   3.161  18.404  0.00  0.00    +0.000 C 
ATOM     27  N   UNL     1      52.705   1.819  18.540  0.00  0.00    +0.000 N 
ATOM     28  O   UNL     1      53.313   3.975  18.795  0.00  0.00    +0.000 OA
ATOM     29  H   UNL     1      51.979   1.128  18.432  0.00  0.00    +0.000 HD
ATOM     30  H   UNL     1      53.548   1.549  19.030  0.00  0.00    +0.000 HD
ENDBRANCH  23  26
ENDBRANCH  18  20
ENDBRANCH  17  18
ENDBRANCH   5  17
TORSDOF 6
ENDMDL
MODEL 9
REMARK VINA RESULT:    -5.754      2.465      3.945
REMARK INTER + INTRA:          -8.677
REMARK INTER:                  -7.885
REMARK INTRA:                  -0.792
REMARK UNBOUND:                -0.905
REMARK  Name = 
REMARK  8 active torsions:
REMARK  status: ('A' for Active; 'I' for Inactive)
REMARK    1  A    between atoms: C_1  and  C_2
REMARK    2  A    between atoms: C_2  and  C_3
REMARK    3  A    between atoms: C_2  and  C_4
REMARK    4  A    between atoms: C_6  and  N_7
REMARK    5  A    between atoms: C_14  and  C_15
REMARK    6  A    between atoms: C_15  and  N_16
REMARK    7  A    between atoms: N_16  and  C_17
REMARK    8  A    between atoms: C_20  and  C_21
REMARK                            x       y       z     vdW  Elec       q    Type
REMARK                         _______ _______ _______ _____ _____    ______ ____
ROOT
ATOM      1  C   UNL     1      49.700   8.423  12.819  0.00  0.00    +0.000 A 
ATOM      2  C   UNL     1      50.045   7.723  13.977  0.00  0.00    +0.000 A 
ATOM      3  C   UNL     1      49.054   7.191  14.807  0.00  0.00    +0.000 A 
ATOM      4  C   UNL     1      47.735   7.421  14.413  0.00  0.00    +0.000 A 
ATOM      5  C   UNL     1      47.446   8.135  13.253  0.00  0.00    +0.000 A 
ATOM      6  N   UNL     1      48.415   8.649  12.461  0.00  0.00    +0.000 NA
ENDROOT
BRANCH   3   7
ATOM      7  N   UNL     1      49.348   6.449  15.932  0.00  0.00    +0.000 N 
ATOM      8  C   UNL     1      48.422   5.468  16.519  0.00  0.00    +0.000 C 
ATOM      9  C   UNL     1      48.255   5.728  18.033  0.00  0.00    +0.000 C 
ATOM     10  N   UNL     1      49.535   5.785  18.771  0.00  0.00    +0.000 NA
ATOM     11  C   UNL     1      50.400   6.805  18.141  0.00  0.00    +0.000 C 
ATOM     12  C   UNL     1      50.639   6.572  16.630  0.00  0.00    +0.000 C 
ATOM     13  H   UNL     1      49.997   4.881  18.672  0.00  0.00    +0.000 HD
ENDBRANCH   3   7
BRANCH   1  15
ATOM     14  C   UNL     1      51.159   7.790  10.890  0.00  0.00    +0.000 C 
ATOM     15  C   UNL     1      50.781   8.904  11.871  0.00  0.00    +0.000 C 
ATOM     16  C   UNL     1      50.337  10.160  11.120  0.00  0.00    +0.000 C 
ENDBRANCH   1  15
BRANCH   5  17
ATOM     17  C   UNL     1      46.007   8.358  12.833  0.00  0.00    +0.000 C 
BRANCH  17  18
ATOM     18  N   UNL     1      45.188   7.162  13.009  0.00  0.00    +0.000 N 
ATOM     19  H   UNL     1      45.331   6.756  13.933  0.00  0.00    +0.000 HD
BRANCH  18  20
ATOM     20  C   UNL     1      44.984   6.205  12.023  0.00  0.00    +0.000 A 
ATOM     21  C   UNL     1      44.190   5.064  12.178  0.00  0.00    +0.000 A 
ATOM     22  C   UNL     1      44.078   4.109  11.159  0.00  0.00    +0.000 A 
ATOM     23  C   UNL     1      44.807   4.249   9.976  0.00  0.00    +0.000 A 
ATOM     24  C   UNL     1      45.657   5.346   9.829  0.00  0.00    +0.000 A 
ATOM     25  C   UNL     1      45.738   6.306  10.846  0.00  0.00    +0.000 A 
BRANCH  23  26
ATOM     26  C   UNL     1      44.682   3.190   8.941  0.00  0.00    +0.000 C 
ATOM     27  N   UNL     1      44.678   1.890   9.365  0.00  0.00    +0.000 N 
ATOM     28  O   UNL     1      44.616   3.460   7.748  0.00  0.00    +0.000 OA
ATOM     29  H   UNL     1      44.941   1.615  10.300  0.00  0.00    +0.000 HD
ATOM     30  H   UNL     1      44.679   1.182   8.643  0.00  0.00    +0.000 HD
ENDBRANCH  23  26
ENDBRANCH  18  20
ENDBRANCH  17  18
ENDBRANCH   5  17
TORSDOF 6
ENDMDL
