MODEL 1
REMARK VINA RESULT:    -8.070      0.000      0.000
REMARK INTER + INTRA:         -11.196
REMARK INTER:                 -10.664
REMARK INTRA:                  -0.531
REMARK UNBOUND:                -0.531
REMARK  Name = 
REMARK  6 active torsions:
REMARK  status: ('A' for Active; 'I' for Inactive)
REMARK    1  A    between atoms: C_2  and  C_4
REMARK    2  A    between atoms: C_7  and  N_8
REMARK    3  A    between atoms: N_8  and  C_9
REMARK    4  A    between atoms: C_9  and  C_10
REMARK    5  A    between atoms: C_10  and  O_11
REMARK    6  A    between atoms: C_10  and  C_12
REMARK                            x       y       z     vdW  Elec       q    Type
REMARK                         _______ _______ _______ _____ _____    ______ ____
ROOT
ATOM      1  N   UNL     1      43.705   4.867   9.539  0.00  0.00    +0.000 N 
ATOM      2  H   UNL     1      42.876   4.809   8.948  0.00  0.00    +0.000 HD
ENDROOT
BRANCH   1   6
ATOM      3  C   UNL     1      46.414   2.291   7.821  0.00  0.00    +0.000 A 
ATOM      4  C   UNL     1      46.453   3.645   7.534  0.00  0.00    +0.000 A 
ATOM      5  N   UNL     1      45.592   4.534   8.099  0.00  0.00    +0.000 NA
ATOM      6  C   UNL     1      44.668   4.027   8.943  0.00  0.00    +0.000 A 
ATOM      7  C   UNL     1      44.686   2.663   9.268  0.00  0.00    +0.000 A 
ATOM      8  N   UNL     1      45.537   1.759   8.717  0.00  0.00    +0.000 NA
BRANCH   3  10
ATOM      9  N   UNL     1      48.364   1.938   6.434  0.00  0.00    +0.000 N 
ATOM     10  C   UNL     1      47.335   1.355   7.120  0.00  0.00    +0.000 C 
ATOM     11  O   UNL     1      47.190   0.138   7.160  0.00  0.00    +0.000 OA
ATOM     12  H   UNL     1      49.038   1.356   5.955  0.00  0.00    +0.000 HD
ATOM     13  H   UNL     1      48.467   2.947   6.438  0.00  0.00    +0.000 HD
ENDBRANCH   3  10
ENDBRANCH   1   6
BRANCH   1  14
ATOM     14  C   UNL     1      43.377   4.494  10.936  0.00  0.00    +0.000 C 
BRANCH  14  15
ATOM     15  C   UNL     1      43.606   5.688  11.913  0.00  0.00    +0.000 C 
BRANCH  15  16
ATOM     16  C   UNL     1      45.032   5.848  12.422  0.00  0.00    +0.000 A 
ATOM     17  C   UNL     1      45.962   6.690  11.786  0.00  0.00    +0.000 A 
ATOM     18  C   UNL     1      47.295   6.736  12.203  0.00  0.00    +0.000 A 
ATOM     19  C   UNL     1      47.719   5.950  13.270  0.00  0.00    +0.000 A 
ATOM     20  C   UNL     1      46.800   5.145  13.937  0.00  0.00    +0.000 A 
ATOM     21 CL   UNL     1      47.325   4.153  15.241  0.00  0.00    +0.000 Cl
ATOM     22  C   UNL     1      45.464   5.109  13.534  0.00  0.00    +0.000 A 
ENDBRANCH  15  16
BRANCH  15  23
ATOM     23  O   UNL     1      43.175   6.887  11.248  0.00  0.00    +0.000 OA
ATOM     24  H   UNL     1      42.910   6.585  10.358  0.00  0.00    +0.000 HD
ENDBRANCH  15  23
ENDBRANCH  14  15
ENDBRANCH   1  14
TORSDOF 6
ENDMDL
MODEL 2
REMARK VINA RESULT:    -8.016      1.439      1.712
REMARK INTER + INTRA:         -11.125
REMARK INTER:                 -10.604
REMARK INTRA:                  -0.521
REMARK UNBOUND:                -0.531
REMARK  Name = 
REMARK  6 active torsions:
REMARK  status: ('A' for Active; 'I' for Inactive)
REMARK    1  A    between atoms: C_2  and  C_4
REMARK    2  A    between atoms: C_7  and  N_8
REMARK    3  A    between atoms: N_8  and  C_9
REMARK    4  A    between atoms: C_9  and  C_10
REMARK    5  A    between atoms: C_10  and  O_11
REMARK    6  A    between atoms: C_10  and  C_12
REMARK                            x       y       z     vdW  Elec       q    Type
REMARK                         _______ _______ _______ _____ _____    ______ ____
ROOT
ATOM      1  N   UNL     1      43.742   4.704   9.971  0.00  0.00    +0.000 N 
ATOM      2  H   UNL     1      42.961   4.884   9.339  0.00  0.00    +0.000 HD
ENDROOT
BRANCH   1   6
ATOM      3  C   UNL     1      46.461   2.532   7.776  0.00  0.00    +0.000 A 
ATOM      4  C   UNL     1      46.353   3.901   7.604  0.00  0.00    +0.000 A 
ATOM      5  N   UNL     1      45.484   4.660   8.325  0.00  0.00    +0.000 NA
ATOM      6  C   UNL     1      44.704   4.006   9.212  0.00  0.00    +0.000 A 
ATOM      7  C   UNL     1      44.874   2.629   9.417  0.00  0.00    +0.000 A 
ATOM      8  N   UNL     1      45.735   1.854   8.708  0.00  0.00    +0.000 NA
BRANCH   3  10
ATOM      9  N   UNL     1      48.475   2.412   6.442  0.00  0.00    +0.000 N 
ATOM     10  C   UNL     1      47.378   1.743   6.910  0.00  0.00    +0.000 C 
ATOM     11  O   UNL     1      47.173   0.565   6.636  0.00  0.00    +0.000 OA
ATOM     12  H   UNL     1      49.149   1.926   5.867  0.00  0.00    +0.000 HD
ATOM     13  H   UNL     1      48.626   3.380   6.704  0.00  0.00    +0.000 HD
ENDBRANCH   3  10
ENDBRANCH   1   6
BRANCH   1  14
ATOM     14  C   UNL     1      43.283   3.963  11.171  0.00  0.00    +0.000 C 
BRANCH  14  15
ATOM     15  C   UNL     1      43.372   4.846  12.454  0.00  0.00    +0.000 C 
BRANCH  15  16
ATOM     16  C   UNL     1      44.747   5.426  12.751  0.00  0.00    +0.000 A 
ATOM     17  C   UNL     1      45.802   4.635  13.242  0.00  0.00    +0.000 A 
ATOM     18  C   UNL     1      47.021   5.208  13.614  0.00  0.00    +0.000 A 
ATOM     19  C   UNL     1      47.211   6.581  13.490  0.00  0.00    +0.000 A 
ATOM     20  C   UNL     1      46.193   7.370  12.964  0.00  0.00    +0.000 A 
ATOM     21 CL   UNL     1      46.415   9.072  12.833  0.00  0.00    +0.000 Cl
ATOM     22  C   UNL     1      44.980   6.800  12.577  0.00  0.00    +0.000 A 
ENDBRANCH  15  16
BRANCH  15  23
ATOM     23  O   UNL     1      42.402   5.900  12.328  0.00  0.00    +0.000 OA
ATOM     24  H   UNL     1      42.921   6.719  12.439  0.00  0.00    +0.000 HD
ENDBRANCH  15  23
ENDBRANCH  14  15
ENDBRANCH   1  14
TORSDOF 6
ENDMDL
MODEL 3
REMARK VINA RESULT:    -7.488      1.414      1.727
REMARK INTER + INTRA:         -10.427
REMARK INTER:                  -9.973
REMARK INTRA:                  -0.454
REMARK UNBOUND:                -0.531
REMARK  Name = 
REMARK  6 active torsions:
REMARK  status: ('A' for Active; 'I' for Inactive)
REMARK    1  A    between atoms: C_2  and  C_4
REMARK    2  A    between atoms: C_7  and  N_8
REMARK    3  A    between atoms: N_8  and  C_9
REMARK    4  A    between atoms: C_9  and  C_10
REMARK    5  A    between atoms: C_10  and  O_11
REMARK    6  A    between atoms: C_10  and  C_12
REMARK                            x       y       z     vdW  Elec       q    Type
REMARK                         _______ _______ _______ _____ _____    ______ ____
ROOT
ATOM      1  N   UNL     1      43.865   4.778   9.905  0.00  0.00    +0.000 N 
ATOM      2  H   UNL     1      42.979   4.286   9.787  0.00  0.00    +0.000 HD
ENDROOT
BRANCH   1   6
ATOM      3  C   UNL     1      46.545   2.535   7.733  0.00  0.00    +0.000 A 
ATOM      4  C   UNL     1      46.482   3.908   7.569  0.00  0.00    +0.000 A 
ATOM      5  N   UNL     1      45.628   4.689   8.283  0.00  0.00    +0.000 NA
ATOM      6  C   UNL     1      44.815   4.054   9.154  0.00  0.00    +0.000 A 
ATOM      7  C   UNL     1      44.938   2.672   9.352  0.00  0.00    +0.000 A 
ATOM      8  N   UNL     1      45.784   1.874   8.649  0.00  0.00    +0.000 NA
BRANCH   3  10
ATOM      9  N   UNL     1      48.531   2.382   6.361  0.00  0.00    +0.000 N 
ATOM     10  C   UNL     1      47.449   1.722   6.873  0.00  0.00    +0.000 C 
ATOM     11  O   UNL     1      47.245   0.535   6.644  0.00  0.00    +0.000 OA
ATOM     12  H   UNL     1      49.195   1.881   5.787  0.00  0.00    +0.000 HD
ATOM     13  H   UNL     1      48.681   3.360   6.587  0.00  0.00    +0.000 HD
ENDBRANCH   3  10
ENDBRANCH   1   6
BRANCH   1  14
ATOM     14  C   UNL     1      44.210   4.893  11.342  0.00  0.00    +0.000 C 
BRANCH  14  15
ATOM     15  C   UNL     1      43.881   6.315  11.894  0.00  0.00    +0.000 C 
BRANCH  15  16
ATOM     16  C   UNL     1      45.080   7.236  12.076  0.00  0.00    +0.000 A 
ATOM     17  C   UNL     1      44.967   8.635  11.991  0.00  0.00    +0.000 A 
ATOM     18  C   UNL     1      46.097   9.454  12.050  0.00  0.00    +0.000 A 
ATOM     19  C   UNL     1      47.359   8.889  12.205  0.00  0.00    +0.000 A 
ATOM     20  C   UNL     1      47.482   7.509  12.334  0.00  0.00    +0.000 A 
ATOM     21 CL   UNL     1      49.043   6.805  12.501  0.00  0.00    +0.000 Cl
ATOM     22  C   UNL     1      46.355   6.688  12.292  0.00  0.00    +0.000 A 
ENDBRANCH  15  16
BRANCH  15  23
ATOM     23  O   UNL     1      42.919   6.915  11.011  0.00  0.00    +0.000 OA
ATOM     24  H   UNL     1      42.806   6.259  10.297  0.00  0.00    +0.000 HD
ENDBRANCH  15  23
ENDBRANCH  14  15
ENDBRANCH   1  14
TORSDOF 6
ENDMDL
MODEL 4
REMARK VINA RESULT:    -7.447      3.347      6.586
REMARK INTER + INTRA:         -10.373
REMARK INTER:                 -10.112
REMARK INTRA:                  -0.261
REMARK UNBOUND:                -0.531
REMARK  Name = 
REMARK  6 active torsions:
REMARK  status: ('A' for Active; 'I' for Inactive)
REMARK    1  A    between atoms: C_2  and  C_4
REMARK    2  A    between atoms: C_7  and  N_8
REMARK    3  A    between atoms: N_8  and  C_9
REMARK    4  A    between atoms: C_9  and  C_10
REMARK    5  A    between atoms: C_10  and  O_11
REMARK    6  A    between atoms: C_10  and  C_12
REMARK                            x       y       z     vdW  Elec       q    Type
REMARK                         _______ _______ _______ _____ _____    ______ ____
ROOT
ATOM      1  N   UNL     1      44.911   3.136  11.805  0.00  0.00    +0.000 N 
ATOM      2  H   UNL     1      44.378   2.711  12.564  0.00  0.00    +0.000 HD
ENDROOT
BRANCH   1   6
ATOM      3  C   UNL     1      45.507   7.080  12.815  0.00  0.00    +0.000 A 
ATOM      4  C   UNL     1      44.375   6.697  12.117  0.00  0.00    +0.000 A 
ATOM      5  N   UNL     1      44.127   5.401  11.784  0.00  0.00    +0.000 NA
ATOM      6  C   UNL     1      45.061   4.497  12.148  0.00  0.00    +0.000 A 
ATOM      7  C   UNL     1      46.168   4.895  12.909  0.00  0.00    +0.000 A 
ATOM      8  N   UNL     1      46.434   6.182  13.252  0.00  0.00    +0.000 NA
BRANCH   3  10
ATOM      9  N   UNL     1      46.765   8.787  13.979  0.00  0.00    +0.000 N 
ATOM     10  C   UNL     1      45.760   8.521  13.090  0.00  0.00    +0.000 C 
ATOM     11  O   UNL     1      45.118   9.415  12.551  0.00  0.00    +0.000 OA
ATOM     12  H   UNL     1      47.002   9.746  14.192  0.00  0.00    +0.000 HD
ATOM     13  H   UNL     1      47.290   8.024  14.392  0.00  0.00    +0.000 HD
ENDBRANCH   3  10
ENDBRANCH   1   6
BRANCH   1  14
ATOM     14  C   UNL     1      44.227   2.925  10.506  0.00  0.00    +0.000 C 
BRANCH  14  15
ATOM     15  C   UNL     1      44.829   3.834   9.391  0.00  0.00    +0.000 C 
BRANCH  15  16
ATOM     16  C   UNL     1      45.712   3.122   8.377  0.00  0.00    +0.000 A 
ATOM     17  C   UNL     1      46.311   3.801   7.300  0.00  0.00    +0.000 A 
ATOM     18  C   UNL     1      47.025   3.108   6.319  0.00  0.00    +0.000 A 
ATOM     19  C   UNL     1      47.163   1.726   6.404  0.00  0.00    +0.000 A 
ATOM     20  C   UNL     1      46.614   1.046   7.486  0.00  0.00    +0.000 A 
ATOM     21 CL   UNL     1      46.761  -0.666   7.582  0.00  0.00    +0.000 Cl
ATOM     22  C   UNL     1      45.914   1.736   8.477  0.00  0.00    +0.000 A 
ENDBRANCH  15  16
BRANCH  15  23
ATOM     23  O   UNL     1      43.738   4.493   8.728  0.00  0.00    +0.000 OA
ATOM     24  H   UNL     1      43.202   4.862   9.455  0.00  0.00    +0.000 HD
ENDBRANCH  15  23
ENDBRANCH  14  15
ENDBRANCH   1  14
TORSDOF 6
ENDMDL
MODEL 5
REMARK VINA RESULT:    -7.252      3.628      6.355
REMARK INTER + INTRA:         -10.114
REMARK INTER:                  -9.575
REMARK INTRA:                  -0.540
REMARK UNBOUND:                -0.531
REMARK  Name = 
REMARK  6 active torsions:
REMARK  status: ('A' for Active; 'I' for Inactive)
REMARK    1  A    between atoms: C_2  and  C_4
REMARK    2  A    between atoms: C_7  and  N_8
REMARK    3  A    between atoms: N_8  and  C_9
REMARK    4  A    between atoms: C_9  and  C_10
REMARK    5  A    between atoms: C_10  and  O_11
REMARK    6  A    between atoms: C_10  and  C_12
REMARK                            x       y       z     vdW  Elec       q    Type
REMARK                         _______ _______ _______ _____ _____    ______ ____
ROOT
ATOM      1  N   UNL     1      43.493   4.871  12.351  0.00  0.00    +0.000 N 
ATOM      2  H   UNL     1      42.779   5.525  12.675  0.00  0.00    +0.000 HD
ENDROOT
BRANCH   1   6
ATOM      3  C   UNL     1      47.024   6.534  13.653  0.00  0.00    +0.000 A 
ATOM      4  C   UNL     1      46.774   5.185  13.834  0.00  0.00    +0.000 A 
ATOM      5  N   UNL     1      45.631   4.590  13.397  0.00  0.00    +0.000 NA
ATOM      6  C   UNL     1      44.727   5.391  12.795  0.00  0.00    +0.000 A 
ATOM      7  C   UNL     1      45.025   6.741  12.565  0.00  0.00    +0.000 A 
ATOM      8  N   UNL     1      46.160   7.354  12.992  0.00  0.00    +0.000 NA
BRANCH   3  10
ATOM      9  N   UNL     1      48.076   8.262  14.979  0.00  0.00    +0.000 N 
ATOM     10  C   UNL     1      48.260   7.144  14.214  0.00  0.00    +0.000 C 
ATOM     11  O   UNL     1      49.374   6.674  14.012  0.00  0.00    +0.000 OA
ATOM     12  H   UNL     1      48.874   8.711  15.407  0.00  0.00    +0.000 HD
ATOM     13  H   UNL     1      47.139   8.614  15.142  0.00  0.00    +0.000 HD
ENDBRANCH   3  10
ENDBRANCH   1   6
BRANCH   1  14
ATOM     14  C   UNL     1      43.416   4.700  10.880  0.00  0.00    +0.000 C 
BRANCH  14  15
ATOM     15  C   UNL     1      43.777   3.243  10.457  0.00  0.00    +0.000 C 
BRANCH  15  16
ATOM     16  C   UNL     1      44.852   3.124   9.387  0.00  0.00    +0.000 A 
ATOM     17  C   UNL     1      45.327   4.240   8.675  0.00  0.00    +0.000 A 
ATOM     18  C   UNL     1      46.232   4.092   7.621  0.00  0.00    +0.000 A 
ATOM     19  C   UNL     1      46.687   2.826   7.267  0.00  0.00    +0.000 A 
ATOM     20  C   UNL     1      46.261   1.716   7.990  0.00  0.00    +0.000 A 
ATOM     21 CL   UNL     1      46.802   0.146   7.540  0.00  0.00    +0.000 Cl
ATOM     22  C   UNL     1      45.369   1.861   9.054  0.00  0.00    +0.000 A 
ENDBRANCH  15  16
BRANCH  15  23
ATOM     23  O   UNL     1      44.167   2.528  11.640  0.00  0.00    +0.000 OA
ATOM     24  H   UNL     1      45.142   2.508  11.598  0.00  0.00    +0.000 HD
ENDBRANCH  15  23
ENDBRANCH  14  15
ENDBRANCH   1  14
TORSDOF 6
ENDMDL
MODEL 6
REMARK VINA RESULT:    -7.048      4.097      6.886
REMARK INTER + INTRA:          -9.845
REMARK INTER:                  -9.505
REMARK INTRA:                  -0.340
REMARK UNBOUND:                -0.531
REMARK  Name = 
REMARK  6 active torsions:
REMARK  status: ('A' for Active; 'I' for Inactive)
REMARK    1  A    between atoms: C_2  and  C_4
REMARK    2  A    between atoms: C_7  and  N_8
REMARK    3  A    between atoms: N_8  and  C_9
REMARK    4  A    between atoms: C_9  and  C_10
REMARK    5  A    between atoms: C_10  and  O_11
REMARK    6  A    between atoms: C_10  and  C_12
REMARK                            x       y       z     vdW  Elec       q    Type
REMARK                         _______ _______ _______ _____ _____    ______ ____
ROOT
ATOM      1  N   UNL     1      45.740   5.598  10.967  0.00  0.00    +0.000 N 
ATOM      2  H   UNL     1      46.550   5.832  10.393  0.00  0.00    +0.000 HD
ENDROOT
BRANCH   1   6
ATOM      3  C   UNL     1      47.122   4.960  14.790  0.00  0.00    +0.000 A 
ATOM      4  C   UNL     1      47.622   6.001  14.027  0.00  0.00    +0.000 A 
ATOM      5  N   UNL     1      47.175   6.262  12.768  0.00  0.00    +0.000 NA
ATOM      6  C   UNL     1      46.229   5.432  12.280  0.00  0.00    +0.000 A 
ATOM      7  C   UNL     1      45.691   4.423  13.091  0.00  0.00    +0.000 A 
ATOM      8  N   UNL     1      46.122   4.147  14.350  0.00  0.00    +0.000 NA
BRANCH   3  10
ATOM      9  N   UNL     1      48.020   5.777  16.882  0.00  0.00    +0.000 N 
ATOM     10  C   UNL     1      47.698   4.679  16.134  0.00  0.00    +0.000 C 
ATOM     11  O   UNL     1      47.866   3.538  16.550  0.00  0.00    +0.000 OA
ATOM     12  H   UNL     1      48.394   5.654  17.813  0.00  0.00    +0.000 HD
ATOM     13  H   UNL     1      47.849   6.707  16.515  0.00  0.00    +0.000 HD
ENDBRANCH   3  10
ENDBRANCH   1   6
BRANCH   1  14
ATOM     14  C   UNL     1      45.052   4.396  10.436  0.00  0.00    +0.000 C 
BRANCH  14  15
ATOM     15  C   UNL     1      45.020   4.402   8.876  0.00  0.00    +0.000 C 
BRANCH  15  16
ATOM     16  C   UNL     1      45.656   3.192   8.208  0.00  0.00    +0.000 A 
ATOM     17  C   UNL     1      45.592   1.905   8.773  0.00  0.00    +0.000 A 
ATOM     18  C   UNL     1      46.278   0.831   8.200  0.00  0.00    +0.000 A 
ATOM     19  C   UNL     1      47.030   1.022   7.045  0.00  0.00    +0.000 A 
ATOM     20  C   UNL     1      47.067   2.279   6.449  0.00  0.00    +0.000 A 
ATOM     21 CL   UNL     1      48.015   2.525   5.035  0.00  0.00    +0.000 Cl
ATOM     22  C   UNL     1      46.371   3.351   7.009  0.00  0.00    +0.000 A 
ENDBRANCH  15  16
BRANCH  15  23
ATOM     23  O   UNL     1      43.649   4.535   8.468  0.00  0.00    +0.000 OA
ATOM     24  H   UNL     1      43.497   3.772   7.879  0.00  0.00    +0.000 HD
ENDBRANCH  15  23
ENDBRANCH  14  15
ENDBRANCH   1  14
TORSDOF 6
ENDMDL
MODEL 7
REMARK VINA RESULT:    -6.527      4.457      6.639
REMARK INTER + INTRA:          -9.156
REMARK INTER:                  -8.686
REMARK INTRA:                  -0.470
REMARK UNBOUND:                -0.531
REMARK  Name = 
REMARK  6 active torsions:
REMARK  status: ('A' for Active; 'I' for Inactive)
REMARK    1  A    between atoms: C_2  and  C_4
REMARK    2  A    between atoms: C_7  and  N_8
REMARK    3  A    between atoms: N_8  and  C_9
REMARK    4  A    between atoms: C_9  and  C_10
REMARK    5  A    between atoms: C_10  and  O_11
REMARK    6  A    between atoms: C_10  and  C_12
REMARK                            x       y       z     vdW  Elec       q    Type
REMARK                         _______ _______ _______ _____ _____    ______ ____
ROOT
ATOM      1  N   UNL     1      46.783   5.796  12.462  0.00  0.00    +0.000 N 
ATOM      2  H   UNL     1      46.965   5.136  11.706  0.00  0.00    +0.000 HD
ENDROOT
BRANCH   1   6
ATOM      3  C   UNL     1      47.798   3.701  15.855  0.00  0.00    +0.000 A 
ATOM      4  C   UNL     1      47.851   5.084  15.841  0.00  0.00    +0.000 A 
ATOM      5  N   UNL     1      47.501   5.816  14.749  0.00  0.00    +0.000 NA
ATOM      6  C   UNL     1      47.119   5.123  13.656  0.00  0.00    +0.000 A 
ATOM      7  C   UNL     1      47.012   3.726  13.710  0.00  0.00    +0.000 A 
ATOM      8  N   UNL     1      47.355   2.977  14.790  0.00  0.00    +0.000 NA
BRANCH   3  10
ATOM      9  N   UNL     1      47.366   2.874  18.086  0.00  0.00    +0.000 N 
ATOM     10  C   UNL     1      48.260   2.950  17.054  0.00  0.00    +0.000 C 
ATOM     11  O   UNL     1      49.366   2.425  17.115  0.00  0.00    +0.000 OA
ATOM     12  H   UNL     1      47.611   2.358  18.921  0.00  0.00    +0.000 HD
ATOM     13  H   UNL     1      46.452   3.302  17.996  0.00  0.00    +0.000 HD
ENDBRANCH   3  10
ENDBRANCH   1   6
BRANCH   1  14
ATOM     14  C   UNL     1      45.375   6.261  12.421  0.00  0.00    +0.000 C 
BRANCH  14  15
ATOM     15  C   UNL     1      44.833   6.306  10.959  0.00  0.00    +0.000 C 
BRANCH  15  16
ATOM     16  C   UNL     1      44.807   4.969  10.233  0.00  0.00    +0.000 A 
ATOM     17  C   UNL     1      44.186   3.832  10.780  0.00  0.00    +0.000 A 
ATOM     18  C   UNL     1      44.271   2.589  10.149  0.00  0.00    +0.000 A 
ATOM     19  C   UNL     1      44.970   2.464   8.951  0.00  0.00    +0.000 A 
ATOM     20  C   UNL     1      45.552   3.588   8.375  0.00  0.00    +0.000 A 
ATOM     21 CL   UNL     1      46.437   3.432   6.907  0.00  0.00    +0.000 Cl
ATOM     22  C   UNL     1      45.455   4.834   8.994  0.00  0.00    +0.000 A 
ENDBRANCH  15  16
BRANCH  15  23
ATOM     23  O   UNL     1      43.515   6.879  11.000  0.00  0.00    +0.000 OA
ATOM     24  H   UNL     1      43.670   7.827  11.172  0.00  0.00    +0.000 HD
ENDBRANCH  15  23
ENDBRANCH  14  15
ENDBRANCH   1  14
TORSDOF 6
ENDMDL
MODEL 8
REMARK VINA RESULT:    -6.507      4.482      6.389
REMARK INTER + INTRA:          -9.130
REMARK INTER:                  -8.801
REMARK INTRA:                  -0.330
REMARK UNBOUND:                -0.531
REMARK  Name = 
REMARK  6 active torsions:
REMARK  status: ('A' for Active; 'I' for Inactive)
REMARK    1  A    between atoms: C_2  and  C_4
REMARK    2  A    between atoms: C_7  and  N_8
REMARK    3  A    between atoms: N_8  and  C_9
REMARK    4  A    between atoms: C_9  and  C_10
REMARK    5  A    between atoms: C_10  and  O_11
REMARK    6  A    between atoms: C_10  and  C_12
REMARK                            x       y       z     vdW  Elec       q    Type
REMARK                         _______ _______ _______ _____ _____    ______ ____
ROOT
ATOM      1  N   UNL     1      47.297   3.392  14.503  0.00  0.00    +0.000 N 
ATOM      2  H   UNL     1      48.195   3.521  14.036  0.00  0.00    +0.000 HD
ENDROOT
BRANCH   1   6
ATOM      3  C   UNL     1      44.496   4.667  11.771  0.00  0.00    +0.000 A 
ATOM      4  C   UNL     1      44.809   3.323  11.881  0.00  0.00    +0.000 A 
ATOM      5  N   UNL     1      45.711   2.857  12.787  0.00  0.00    +0.000 NA
ATOM      6  C   UNL     1      46.314   3.779  13.567  0.00  0.00    +0.000 A 
ATOM      7  C   UNL     1      45.937   5.126  13.483  0.00  0.00    +0.000 A 
ATOM      8  N   UNL     1      45.039   5.612  12.587  0.00  0.00    +0.000 NA
BRANCH   3  10
ATOM      9  N   UNL     1      43.778   4.628   9.461  0.00  0.00    +0.000 N 
ATOM     10  C   UNL     1      43.554   5.127  10.714  0.00  0.00    +0.000 C 
ATOM     11  O   UNL     1      42.629   5.898  10.949  0.00  0.00    +0.000 OA
ATOM     12  H   UNL     1      43.160   4.885   8.704  0.00  0.00    +0.000 HD
ATOM     13  H   UNL     1      44.539   3.977   9.305  0.00  0.00    +0.000 HD
ENDBRANCH   3  10
ENDBRANCH   1   6
BRANCH   1  14
ATOM     14  C   UNL     1      47.249   4.168  15.765  0.00  0.00    +0.000 C 
BRANCH  14  15
ATOM     15  C   UNL     1      47.696   3.302  16.983  0.00  0.00    +0.000 C 
BRANCH  15  16
ATOM     16  C   UNL     1      49.170   3.403  17.348  0.00  0.00    +0.000 A 
ATOM     17  C   UNL     1      49.779   4.631  17.664  0.00  0.00    +0.000 A 
ATOM     18  C   UNL     1      51.156   4.716  17.886  0.00  0.00    +0.000 A 
ATOM     19  C   UNL     1      51.946   3.573  17.807  0.00  0.00    +0.000 A 
ATOM     20  C   UNL     1      51.351   2.345  17.538  0.00  0.00    +0.000 A 
ATOM     21 CL   UNL     1      52.328   0.933  17.415  0.00  0.00    +0.000 Cl
ATOM     22  C   UNL     1      49.974   2.252  17.332  0.00  0.00    +0.000 A 
ENDBRANCH  15  16
BRANCH  15  23
ATOM     23  O   UNL     1      46.877   3.669  18.105  0.00  0.00    +0.000 OA
ATOM     24  H   UNL     1      47.506   3.745  18.848  0.00  0.00    +0.000 HD
ENDBRANCH  15  23
ENDBRANCH  14  15
ENDBRANCH   1  14
TORSDOF 6
ENDMDL
MODEL 9
REMARK VINA RESULT:    -6.032      5.455      7.673
REMARK INTER + INTRA:          -8.503
REMARK INTER:                  -8.177
REMARK INTRA:                  -0.326
REMARK UNBOUND:                -0.531
REMARK  Name = 
REMARK  6 active torsions:
REMARK  status: ('A' for Active; 'I' for Inactive)
REMARK    1  A    between atoms: C_2  and  C_4
REMARK    2  A    between atoms: C_7  and  N_8
REMARK    3  A    between atoms: N_8  and  C_9
REMARK    4  A    between atoms: C_9  and  C_10
REMARK    5  A    between atoms: C_10  and  O_11
REMARK    6  A    between atoms: C_10  and  C_12
REMARK                            x       y       z     vdW  Elec       q    Type
REMARK                         _______ _______ _______ _____ _____    ______ ____
ROOT
ATOM      1  N   UNL     1      46.226   4.676  14.623  0.00  0.00    +0.000 N 
ATOM      2  H   UNL     1      45.483   5.136  15.150  0.00  0.00    +0.000 HD
ENDROOT
BRANCH   1   6
ATOM      3  C   UNL     1      49.288   4.168  17.324  0.00  0.00    +0.000 A 
ATOM      4  C   UNL     1      48.379   3.150  17.093  0.00  0.00    +0.000 A 
ATOM      5  N   UNL     1      47.366   3.268  16.192  0.00  0.00    +0.000 NA
ATOM      6  C   UNL     1      47.272   4.447  15.542  0.00  0.00    +0.000 A 
ATOM      7  C   UNL     1      48.239   5.441  15.743  0.00  0.00    +0.000 A 
ATOM      8  N   UNL     1      49.257   5.344  16.637  0.00  0.00    +0.000 NA
BRANCH   3  10
ATOM      9  N   UNL     1      49.955   4.353  19.642  0.00  0.00    +0.000 N 
ATOM     10  C   UNL     1      50.332   4.010  18.373  0.00  0.00    +0.000 C 
ATOM     11  O   UNL     1      51.457   3.592  18.122  0.00  0.00    +0.000 OA
ATOM     12  H   UNL     1      50.612   4.247  20.403  0.00  0.00    +0.000 HD
ATOM     13  H   UNL     1      49.011   4.676  19.819  0.00  0.00    +0.000 HD
ENDBRANCH   3  10
ENDBRANCH   1   6
BRANCH   1  14
ATOM     14  C   UNL     1      46.630   5.502  13.460  0.00  0.00    +0.000 C 
BRANCH  14  15
ATOM     15  C   UNL     1      45.397   5.914  12.598  0.00  0.00    +0.000 C 
BRANCH  15  16
ATOM     16  C   UNL     1      44.911   4.860  11.613  0.00  0.00    +0.000 A 
ATOM     17  C   UNL     1      44.040   3.824  11.996  0.00  0.00    +0.000 A 
ATOM     18  C   UNL     1      43.696   2.805  11.105  0.00  0.00    +0.000 A 
ATOM     19  C   UNL     1      44.208   2.810   9.811  0.00  0.00    +0.000 A 
ATOM     20  C   UNL     1      45.035   3.851   9.404  0.00  0.00    +0.000 A 
ATOM     21 CL   UNL     1      45.689   3.848   7.812  0.00  0.00    +0.000 Cl
ATOM     22  C   UNL     1      45.368   4.880  10.286  0.00  0.00    +0.000 A 
ENDBRANCH  15  16
BRANCH  15  23
ATOM     23  O   UNL     1      44.339   6.284  13.497  0.00  0.00    +0.000 OA
ATOM     24  H   UNL     1      44.176   5.478  14.021  0.00  0.00    +0.000 HD
ENDBRANCH  15  23
ENDBRANCH  14  15
ENDBRANCH   1  14
TORSDOF 6
ENDMDL
