MODEL 1
REMARK VINA RESULT:    -7.348      0.000      0.000
REMARK INTER + INTRA:         -10.752
REMARK INTER:                  -9.925
REMARK INTRA:                  -0.827
REMARK UNBOUND:                -0.827
REMARK  Name = 
REMARK  8 active torsions:
REMARK  status: ('A' for Active; 'I' for Inactive)
REMARK    1  A    between atoms: C_1  and  C_2
REMARK    2  A    between atoms: C_2  and  N_3
REMARK    3  A    between atoms: C_2  and  C_19
REMARK    4  A    between atoms: C_7  and  C_8
REMARK    5  A    between atoms: C_8  and  C_9
REMARK    6  A    between atoms: C_8  and  N_10
REMARK    7  A    between atoms: N_10  and  C_11
REMARK    8  A    between atoms: C_11  and  C_12
REMARK                            x       y       z     vdW  Elec       q    Type
REMARK                         _______ _______ _______ _____ _____    ______ ____
ROOT
ATOM      1  N   UNL     1      47.932   7.246  14.493  0.00  0.00    +0.000 N 
ATOM      2  C   UNL     1      47.168   6.331  13.771  0.00  0.00    +0.000 A 
ATOM      3  C   UNL     1      46.469   6.736  12.629  0.00  0.00    +0.000 A 
ATOM      4  N   UNL     1      45.522   5.990  11.995  0.00  0.00    +0.000 NA
ATOM      5  C   UNL     1      45.236   4.801  12.581  0.00  0.00    +0.000 A 
ATOM      6  C   UNL     1      45.973   4.358  13.674  0.00  0.00    +0.000 A 
ATOM      7  N   UNL     1      46.948   5.096  14.270  0.00  0.00    +0.000 NA
ATOM      8  H   UNL     1      48.198   8.082  13.974  0.00  0.00    +0.000 HD
ENDROOT
BRANCH   1  10
ATOM      9  C   UNL     1      50.329   7.430  14.879  0.00  0.00    +0.000 C 
ATOM     10  C   UNL     1      49.029   6.744  15.320  0.00  0.00    +0.000 C 
BRANCH  10  11
ATOM     11  C   UNL     1      48.839   6.899  16.827  0.00  0.00    +0.000 A 
ATOM     12  C   UNL     1      48.591   8.130  17.418  0.00  0.00    +0.000 A 
ATOM     13  S   UNL     1      48.478   8.060  19.118  0.00  0.00    +0.000 S 
ATOM     14  C   UNL     1      48.714   6.375  19.120  0.00  0.00    +0.000 A 
ATOM     15  N   UNL     1      48.729   5.676  20.284  0.00  0.00    +0.000 NA
ATOM     16  C   UNL     1      48.904   4.405  20.139  0.00  0.00    +0.000 A 
ATOM     17  N   UNL     1      49.052   3.767  18.933  0.00  0.00    +0.000 N 
ATOM     18  C   UNL     1      49.003   4.426  17.722  0.00  0.00    +0.000 A 
ATOM     19  O   UNL     1      49.031   3.814  16.660  0.00  0.00    +0.000 OA
ATOM     20  C   UNL     1      48.860   5.866  17.840  0.00  0.00    +0.000 A 
ATOM     21  H   UNL     1      49.144   2.763  18.892  0.00  0.00    +0.000 HD
ENDBRANCH  10  11
ENDBRANCH   1  10
BRANCH   5  22
ATOM     22  C   UNL     1      44.044   3.999  12.074  0.00  0.00    +0.000 C 
ATOM     23  C   UNL     1      43.242   4.866  11.092  0.00  0.00    +0.000 C 
BRANCH  22  24
ATOM     24  N   UNL     1      44.405   2.752  11.373  0.00  0.00    +0.000 NA
ATOM     25  H   UNL     1      43.533   2.337  11.037  0.00  0.00    +0.000 HD
BRANCH  24  26
ATOM     26  C   UNL     1      45.303   2.990  10.240  0.00  0.00    +0.000 C 
BRANCH  26  27
ATOM     27  C   UNL     1      44.806   2.345   8.918  0.00  0.00    +0.000 C 
ATOM     28  C   UNL     1      44.876   3.250   7.693  0.00  0.00    +0.000 C 
ATOM     29  C   UNL     1      46.329   3.165   7.268  0.00  0.00    +0.000 C 
ATOM     30  C   UNL     1      46.789   1.797   7.750  0.00  0.00    +0.000 C 
ATOM     31  N   UNL     1      45.669   1.225   8.502  0.00  0.00    +0.000 NA
ATOM     32  H   UNL     1      46.002   0.693   9.304  0.00  0.00    +0.000 HD
ENDBRANCH  26  27
ENDBRANCH  24  26
ENDBRANCH  22  24
ENDBRANCH   5  22
TORSDOF 6
ENDMDL
MODEL 2
REMARK VINA RESULT:    -7.006      2.356      3.112
REMARK INTER + INTRA:         -10.290
REMARK INTER:                  -9.503
REMARK INTRA:                  -0.787
REMARK UNBOUND:                -0.827
REMARK  Name = 
REMARK  8 active torsions:
REMARK  status: ('A' for Active; 'I' for Inactive)
REMARK    1  A    between atoms: C_1  and  C_2
REMARK    2  A    between atoms: C_2  and  N_3
REMARK    3  A    between atoms: C_2  and  C_19
REMARK    4  A    between atoms: C_7  and  C_8
REMARK    5  A    between atoms: C_8  and  C_9
REMARK    6  A    between atoms: C_8  and  N_10
REMARK    7  A    between atoms: N_10  and  C_11
REMARK    8  A    between atoms: C_11  and  C_12
REMARK                            x       y       z     vdW  Elec       q    Type
REMARK                         _______ _______ _______ _____ _____    ______ ____
ROOT
ATOM      1  N   UNL     1      48.129   3.730  15.516  0.00  0.00    +0.000 N 
ATOM      2  C   UNL     1      47.143   4.164  14.632  0.00  0.00    +0.000 A 
ATOM      3  C   UNL     1      46.634   3.298  13.657  0.00  0.00    +0.000 A 
ATOM      4  N   UNL     1      45.852   3.684  12.612  0.00  0.00    +0.000 NA
ATOM      5  C   UNL     1      45.621   5.018  12.524  0.00  0.00    +0.000 A 
ATOM      6  C   UNL     1      46.062   5.877  13.524  0.00  0.00    +0.000 A 
ATOM      7  N   UNL     1      46.805   5.471  14.588  0.00  0.00    +0.000 NA
ATOM      8  H   UNL     1      48.198   2.718  15.615  0.00  0.00    +0.000 HD
ENDROOT
BRANCH   1  10
ATOM      9  C   UNL     1      47.176   3.899  17.751  0.00  0.00    +0.000 C 
ATOM     10  C   UNL     1      48.266   4.415  16.801  0.00  0.00    +0.000 C 
BRANCH  10  11
ATOM     11  C   UNL     1      49.637   4.298  17.464  0.00  0.00    +0.000 A 
ATOM     12  C   UNL     1      50.200   5.342  18.185  0.00  0.00    +0.000 A 
ATOM     13  S   UNL     1      51.762   4.995  18.777  0.00  0.00    +0.000 S 
ATOM     14  C   UNL     1      51.721   3.424  18.127  0.00  0.00    +0.000 A 
ATOM     15  N   UNL     1      52.774   2.580  18.280  0.00  0.00    +0.000 NA
ATOM     16  C   UNL     1      52.605   1.416  17.749  0.00  0.00    +0.000 A 
ATOM     17  N   UNL     1      51.471   1.013  17.089  0.00  0.00    +0.000 N 
ATOM     18  C   UNL     1      50.359   1.818  16.943  0.00  0.00    +0.000 A 
ATOM     19  O   UNL     1      49.324   1.392  16.444  0.00  0.00    +0.000 OA
ATOM     20  C   UNL     1      50.525   3.157  17.481  0.00  0.00    +0.000 A 
ATOM     21  H   UNL     1      51.391   0.072  16.734  0.00  0.00    +0.000 HD
ENDBRANCH  10  11
ENDBRANCH   1  10
BRANCH   5  22
ATOM     22  C   UNL     1      44.944   5.566  11.274  0.00  0.00    +0.000 C 
ATOM     23  C   UNL     1      45.891   6.565  10.593  0.00  0.00    +0.000 C 
BRANCH  22  24
ATOM     24  N   UNL     1      44.590   4.538  10.275  0.00  0.00    +0.000 NA
ATOM     25  H   UNL     1      43.612   4.695  10.023  0.00  0.00    +0.000 HD
BRANCH  24  26
ATOM     26  C   UNL     1      45.426   4.618   9.074  0.00  0.00    +0.000 C 
BRANCH  26  27
ATOM     27  C   UNL     1      44.931   3.702   7.922  0.00  0.00    +0.000 C 
ATOM     28  C   UNL     1      46.009   3.266   6.937  0.00  0.00    +0.000 C 
ATOM     29  C   UNL     1      46.700   2.117   7.646  0.00  0.00    +0.000 C 
ATOM     30  C   UNL     1      45.630   1.532   8.557  0.00  0.00    +0.000 C 
ATOM     31  N   UNL     1      44.457   2.401   8.429  0.00  0.00    +0.000 NA
ATOM     32  H   UNL     1      43.978   2.501   9.322  0.00  0.00    +0.000 HD
ENDBRANCH  26  27
ENDBRANCH  24  26
ENDBRANCH  22  24
ENDBRANCH   5  22
TORSDOF 6
ENDMDL
MODEL 3
REMARK VINA RESULT:    -6.920      1.607      2.053
REMARK INTER + INTRA:         -10.173
REMARK INTER:                  -9.349
REMARK INTRA:                  -0.824
REMARK UNBOUND:                -0.827
REMARK  Name = 
REMARK  8 active torsions:
REMARK  status: ('A' for Active; 'I' for Inactive)
REMARK    1  A    between atoms: C_1  and  C_2
REMARK    2  A    between atoms: C_2  and  N_3
REMARK    3  A    between atoms: C_2  and  C_19
REMARK    4  A    between atoms: C_7  and  C_8
REMARK    5  A    between atoms: C_8  and  C_9
REMARK    6  A    between atoms: C_8  and  N_10
REMARK    7  A    between atoms: N_10  and  C_11
REMARK    8  A    between atoms: C_11  and  C_12
REMARK                            x       y       z     vdW  Elec       q    Type
REMARK                         _______ _______ _______ _____ _____    ______ ____
ROOT
ATOM      1  N   UNL     1      48.432   7.396  14.798  0.00  0.00    +0.000 N 
ATOM      2  C   UNL     1      47.656   6.461  14.114  0.00  0.00    +0.000 A 
ATOM      3  C   UNL     1      46.727   6.877  13.155  0.00  0.00    +0.000 A 
ATOM      4  N   UNL     1      45.771   6.078  12.606  0.00  0.00    +0.000 NA
ATOM      5  C   UNL     1      45.724   4.814  13.095  0.00  0.00    +0.000 A 
ATOM      6  C   UNL     1      46.686   4.371  13.996  0.00  0.00    +0.000 A 
ATOM      7  N   UNL     1      47.664   5.168  14.502  0.00  0.00    +0.000 NA
ATOM      8  H   UNL     1      48.510   8.303  14.339  0.00  0.00    +0.000 HD
ENDROOT
BRANCH   1  10
ATOM      9  C   UNL     1      50.725   8.100  15.214  0.00  0.00    +0.000 C 
ATOM     10  C   UNL     1      49.705   6.964  15.372  0.00  0.00    +0.000 C 
BRANCH  10  11
ATOM     11  C   UNL     1      49.647   6.510  16.829  0.00  0.00    +0.000 A 
ATOM     12  C   UNL     1      50.322   5.383  17.279  0.00  0.00    +0.000 A 
ATOM     13  S   UNL     1      50.056   5.043  18.929  0.00  0.00    +0.000 S 
ATOM     14  C   UNL     1      49.063   6.413  19.109  0.00  0.00    +0.000 A 
ATOM     15  N   UNL     1      48.497   6.709  20.307  0.00  0.00    +0.000 NA
ATOM     16  C   UNL     1      47.779   7.782  20.306  0.00  0.00    +0.000 A 
ATOM     17  N   UNL     1      47.587   8.595  19.217  0.00  0.00    +0.000 N 
ATOM     18  C   UNL     1      48.173   8.360  17.990  0.00  0.00    +0.000 A 
ATOM     19  O   UNL     1      48.070   9.162  17.069  0.00  0.00    +0.000 OA
ATOM     20  C   UNL     1      48.949   7.133  17.932  0.00  0.00    +0.000 A 
ATOM     21  H   UNL     1      47.046   9.443  19.299  0.00  0.00    +0.000 HD
ENDBRANCH  10  11
ENDBRANCH   1  10
BRANCH   5  22
ATOM     22  C   UNL     1      44.555   3.918  12.705  0.00  0.00    +0.000 C 
ATOM     23  C   UNL     1      43.433   4.788  12.121  0.00  0.00    +0.000 C 
BRANCH  22  24
ATOM     24  N   UNL     1      44.888   2.889  11.700  0.00  0.00    +0.000 NA
ATOM     25  H   UNL     1      44.062   2.296  11.598  0.00  0.00    +0.000 HD
BRANCH  24  26
ATOM     26  C   UNL     1      45.237   3.472  10.401  0.00  0.00    +0.000 C 
BRANCH  26  27
ATOM     27  C   UNL     1      44.580   2.734   9.204  0.00  0.00    +0.000 C 
ATOM     28  C   UNL     1      44.727   3.432   7.857  0.00  0.00    +0.000 C 
ATOM     29  C   UNL     1      46.127   3.058   7.409  0.00  0.00    +0.000 C 
ATOM     30  C   UNL     1      46.394   1.716   8.076  0.00  0.00    +0.000 C 
ATOM     31  N   UNL     1      45.239   1.442   8.935  0.00  0.00    +0.000 NA
ATOM     32  H   UNL     1      45.526   0.984   9.797  0.00  0.00    +0.000 HD
ENDBRANCH  26  27
ENDBRANCH  24  26
ENDBRANCH  22  24
ENDBRANCH   5  22
TORSDOF 6
ENDMDL
MODEL 4
REMARK VINA RESULT:    -6.802      3.020      8.543
REMARK INTER + INTRA:         -10.015
REMARK INTER:                  -9.089
REMARK INTRA:                  -0.926
REMARK UNBOUND:                -0.827
REMARK  Name = 
REMARK  8 active torsions:
REMARK  status: ('A' for Active; 'I' for Inactive)
REMARK    1  A    between atoms: C_1  and  C_2
REMARK    2  A    between atoms: C_2  and  N_3
REMARK    3  A    between atoms: C_2  and  C_19
REMARK    4  A    between atoms: C_7  and  C_8
REMARK    5  A    between atoms: C_8  and  C_9
REMARK    6  A    between atoms: C_8  and  N_10
REMARK    7  A    between atoms: N_10  and  C_11
REMARK    8  A    between atoms: C_11  and  C_12
REMARK                            x       y       z     vdW  Elec       q    Type
REMARK                         _______ _______ _______ _____ _____    ______ ____
ROOT
ATOM      1  N   UNL     1      46.898   6.564  11.853  0.00  0.00    +0.000 N 
ATOM      2  C   UNL     1      47.764   6.896  12.893  0.00  0.00    +0.000 A 
ATOM      3  C   UNL     1      49.004   7.484  12.623  0.00  0.00    +0.000 A 
ATOM      4  N   UNL     1      50.006   7.631  13.533  0.00  0.00    +0.000 NA
ATOM      5  C   UNL     1      49.755   7.107  14.759  0.00  0.00    +0.000 A 
ATOM      6  C   UNL     1      48.501   6.584  15.058  0.00  0.00    +0.000 A 
ATOM      7  N   UNL     1      47.494   6.484  14.151  0.00  0.00    +0.000 NA
ATOM      8  H   UNL     1      47.074   7.057  10.978  0.00  0.00    +0.000 HD
ENDROOT
BRANCH   1  10
ATOM      9  C   UNL     1      44.735   7.598  11.421  0.00  0.00    +0.000 C 
ATOM     10  C   UNL     1      45.468   6.456  12.140  0.00  0.00    +0.000 C 
BRANCH  10  11
ATOM     11  C   UNL     1      44.826   5.117  11.785  0.00  0.00    +0.000 A 
ATOM     12  C   UNL     1      44.016   4.426  12.676  0.00  0.00    +0.000 A 
ATOM     13  S   UNL     1      43.467   2.927  12.077  0.00  0.00    +0.000 S 
ATOM     14  C   UNL     1      44.259   3.168  10.591  0.00  0.00    +0.000 A 
ATOM     15  N   UNL     1      44.190   2.234   9.606  0.00  0.00    +0.000 NA
ATOM     16  C   UNL     1      44.824   2.551   8.528  0.00  0.00    +0.000 A 
ATOM     17  N   UNL     1      45.511   3.724   8.338  0.00  0.00    +0.000 N 
ATOM     18  C   UNL     1      45.577   4.720   9.291  0.00  0.00    +0.000 A 
ATOM     19  O   UNL     1      46.107   5.799   9.051  0.00  0.00    +0.000 OA
ATOM     20  C   UNL     1      44.919   4.384  10.541  0.00  0.00    +0.000 A 
ATOM     21  H   UNL     1      45.951   3.923   7.452  0.00  0.00    +0.000 HD
ENDBRANCH  10  11
ENDBRANCH   1  10
BRANCH   5  22
ATOM     22  C   UNL     1      50.890   7.027  15.771  0.00  0.00    +0.000 C 
ATOM     23  C   UNL     1      51.357   8.451  16.110  0.00  0.00    +0.000 C 
BRANCH  22  24
ATOM     24  N   UNL     1      50.528   6.364  17.039  0.00  0.00    +0.000 NA
ATOM     25  H   UNL     1      49.534   6.133  16.979  0.00  0.00    +0.000 HD
BRANCH  24  26
ATOM     26  C   UNL     1      51.303   5.142  17.269  0.00  0.00    +0.000 C 
BRANCH  26  27
ATOM     27  C   UNL     1      50.667   4.206  18.332  0.00  0.00    +0.000 C 
ATOM     28  C   UNL     1      49.155   4.048  18.231  0.00  0.00    +0.000 C 
ATOM     29  C   UNL     1      48.973   3.027  17.124  0.00  0.00    +0.000 C 
ATOM     30  C   UNL     1      50.245   2.192  17.163  0.00  0.00    +0.000 C 
ATOM     31  N   UNL     1      51.117   2.811  18.166  0.00  0.00    +0.000 NA
ATOM     32  H   UNL     1      52.092   2.766  17.878  0.00  0.00    +0.000 HD
ENDBRANCH  26  27
ENDBRANCH  24  26
ENDBRANCH  22  24
ENDBRANCH   5  22
TORSDOF 6
ENDMDL
MODEL 5
REMARK VINA RESULT:    -6.421      1.796      2.335
REMARK INTER + INTRA:          -9.500
REMARK INTER:                  -8.911
REMARK INTRA:                  -0.589
REMARK UNBOUND:                -0.827
REMARK  Name = 
REMARK  8 active torsions:
REMARK  status: ('A' for Active; 'I' for Inactive)
REMARK    1  A    between atoms: C_1  and  C_2
REMARK    2  A    between atoms: C_2  and  N_3
REMARK    3  A    between atoms: C_2  and  C_19
REMARK    4  A    between atoms: C_7  and  C_8
REMARK    5  A    between atoms: C_8  and  C_9
REMARK    6  A    between atoms: C_8  and  N_10
REMARK    7  A    between atoms: N_10  and  C_11
REMARK    8  A    between atoms: C_11  and  C_12
REMARK                            x       y       z     vdW  Elec       q    Type
REMARK                         _______ _______ _______ _____ _____    ______ ____
ROOT
ATOM      1  N   UNL     1      47.781   5.452  15.881  0.00  0.00    +0.000 N 
ATOM      2  C   UNL     1      47.190   5.166  14.651  0.00  0.00    +0.000 A 
ATOM      3  C   UNL     1      47.590   5.848  13.497  0.00  0.00    +0.000 A 
ATOM      4  N   UNL     1      46.928   5.813  12.308  0.00  0.00    +0.000 NA
ATOM      5  C   UNL     1      45.777   5.094  12.308  0.00  0.00    +0.000 A 
ATOM      6  C   UNL     1      45.407   4.356  13.428  0.00  0.00    +0.000 A 
ATOM      7  N   UNL     1      46.104   4.366  14.596  0.00  0.00    +0.000 NA
ATOM      8  H   UNL     1      48.689   5.910  15.821  0.00  0.00    +0.000 HD
ENDROOT
BRANCH   1  10
ATOM      9  C   UNL     1      48.352   3.134  16.359  0.00  0.00    +0.000 C 
ATOM     10  C   UNL     1      47.753   4.429  16.925  0.00  0.00    +0.000 C 
BRANCH  10  11
ATOM     11  C   UNL     1      48.451   4.804  18.230  0.00  0.00    +0.000 A 
ATOM     12  C   UNL     1      47.953   4.425  19.470  0.00  0.00    +0.000 A 
ATOM     13  S   UNL     1      48.872   5.014  20.781  0.00  0.00    +0.000 S 
ATOM     14  C   UNL     1      49.989   5.759  19.737  0.00  0.00    +0.000 A 
ATOM     15  N   UNL     1      51.048   6.451  20.231  0.00  0.00    +0.000 NA
ATOM     16  C   UNL     1      51.823   6.953  19.329  0.00  0.00    +0.000 A 
ATOM     17  N   UNL     1      51.642   6.815  17.975  0.00  0.00    +0.000 N 
ATOM     18  C   UNL     1      50.606   6.089  17.424  0.00  0.00    +0.000 A 
ATOM     19  O   UNL     1      50.533   5.895  16.216  0.00  0.00    +0.000 OA
ATOM     20  C   UNL     1      49.679   5.549  18.403  0.00  0.00    +0.000 A 
ATOM     21  H   UNL     1      52.312   7.201  17.326  0.00  0.00    +0.000 HD
ENDBRANCH  10  11
ENDBRANCH   1  10
BRANCH   5  22
ATOM     22  C   UNL     1      44.859   5.175  11.096  0.00  0.00    +0.000 C 
ATOM     23  C   UNL     1      45.662   5.701   9.897  0.00  0.00    +0.000 C 
BRANCH  22  24
ATOM     24  N   UNL     1      44.261   3.886  10.699  0.00  0.00    +0.000 NA
ATOM     25  H   UNL     1      43.556   4.091   9.988  0.00  0.00    +0.000 HD
BRANCH  24  26
ATOM     26  C   UNL     1      45.254   2.957  10.151  0.00  0.00    +0.000 C 
BRANCH  26  27
ATOM     27  C   UNL     1      44.790   2.269   8.839  0.00  0.00    +0.000 C 
ATOM     28  C   UNL     1      44.887   3.134   7.587  0.00  0.00    +0.000 C 
ATOM     29  C   UNL     1      46.350   3.041   7.200  0.00  0.00    +0.000 C 
ATOM     30  C   UNL     1      46.803   1.690   7.737  0.00  0.00    +0.000 C 
ATOM     31  N   UNL     1      45.666   1.139   8.480  0.00  0.00    +0.000 NA
ATOM     32  H   UNL     1      45.982   0.634   9.306  0.00  0.00    +0.000 HD
ENDBRANCH  26  27
ENDBRANCH  24  26
ENDBRANCH  22  24
ENDBRANCH   5  22
TORSDOF 6
ENDMDL
MODEL 6
REMARK VINA RESULT:    -6.263      3.009      8.676
REMARK INTER + INTRA:          -9.286
REMARK INTER:                  -8.388
REMARK INTRA:                  -0.898
REMARK UNBOUND:                -0.827
REMARK  Name = 
REMARK  8 active torsions:
REMARK  status: ('A' for Active; 'I' for Inactive)
REMARK    1  A    between atoms: C_1  and  C_2
REMARK    2  A    between atoms: C_2  and  N_3
REMARK    3  A    between atoms: C_2  and  C_19
REMARK    4  A    between atoms: C_7  and  C_8
REMARK    5  A    between atoms: C_8  and  C_9
REMARK    6  A    between atoms: C_8  and  N_10
REMARK    7  A    between atoms: N_10  and  C_11
REMARK    8  A    between atoms: C_11  and  C_12
REMARK                            x       y       z     vdW  Elec       q    Type
REMARK                         _______ _______ _______ _____ _____    ______ ____
ROOT
ATOM      1  N   UNL     1      46.944   4.950  15.055  0.00  0.00    +0.000 N 
ATOM      2  C   UNL     1      47.877   5.007  16.090  0.00  0.00    +0.000 A 
ATOM      3  C   UNL     1      48.220   3.850  16.798  0.00  0.00    +0.000 A 
ATOM      4  N   UNL     1      48.932   3.836  17.959  0.00  0.00    +0.000 NA
ATOM      5  C   UNL     1      49.262   5.057  18.449  0.00  0.00    +0.000 A 
ATOM      6  C   UNL     1      48.987   6.208  17.719  0.00  0.00    +0.000 A 
ATOM      7  N   UNL     1      48.314   6.203  16.537  0.00  0.00    +0.000 NA
ATOM      8  H   UNL     1      46.802   4.021  14.659  0.00  0.00    +0.000 HD
ENDROOT
BRANCH   1  10
ATOM      9  C   UNL     1      48.307   5.862  13.255  0.00  0.00    +0.000 C 
ATOM     10  C   UNL     1      46.983   5.984  14.022  0.00  0.00    +0.000 C 
BRANCH  10  11
ATOM     11  C   UNL     1      45.809   5.980  13.045  0.00  0.00    +0.000 A 
ATOM     12  C   UNL     1      45.252   7.153  12.554  0.00  0.00    +0.000 A 
ATOM     13  S   UNL     1      43.914   6.894  11.528  0.00  0.00    +0.000 S 
ATOM     14  C   UNL     1      44.059   5.206  11.671  0.00  0.00    +0.000 A 
ATOM     15  N   UNL     1      43.199   4.376  11.026  0.00  0.00    +0.000 NA
ATOM     16  C   UNL     1      43.431   3.120  11.211  0.00  0.00    +0.000 A 
ATOM     17  N   UNL     1      44.455   2.617  11.974  0.00  0.00    +0.000 N 
ATOM     18  C   UNL     1      45.379   3.416  12.615  0.00  0.00    +0.000 A 
ATOM     19  O   UNL     1      46.344   2.935  13.199  0.00  0.00    +0.000 OA
ATOM     20  C   UNL     1      45.125   4.839  12.476  0.00  0.00    +0.000 A 
ATOM     21  H   UNL     1      44.602   1.620  12.041  0.00  0.00    +0.000 HD
ENDBRANCH  10  11
ENDBRANCH   1  10
BRANCH   5  22
ATOM     22  C   UNL     1      49.862   5.150  19.846  0.00  0.00    +0.000 C 
ATOM     23  C   UNL     1      48.792   4.760  20.876  0.00  0.00    +0.000 C 
BRANCH  22  24
ATOM     24  N   UNL     1      51.029   4.274  20.065  0.00  0.00    +0.000 NA
ATOM     25  H   UNL     1      50.798   3.365  19.658  0.00  0.00    +0.000 HD
BRANCH  24  26
ATOM     26  C   UNL     1      52.245   4.797  19.436  0.00  0.00    +0.000 C 
BRANCH  26  27
ATOM     27  C   UNL     1      52.516   4.193  18.032  0.00  0.00    +0.000 C 
ATOM     28  C   UNL     1      53.988   4.088  17.648  0.00  0.00    +0.000 C 
ATOM     29  C   UNL     1      54.454   2.831  18.356  0.00  0.00    +0.000 C 
ATOM     30  C   UNL     1      53.203   1.972  18.472  0.00  0.00    +0.000 C 
ATOM     31  N   UNL     1      52.096   2.782  17.958  0.00  0.00    +0.000 NA
ATOM     32  H   UNL     1      51.245   2.618  18.492  0.00  0.00    +0.000 HD
ENDBRANCH  26  27
ENDBRANCH  24  26
ENDBRANCH  22  24
ENDBRANCH   5  22
TORSDOF 6
ENDMDL
MODEL 7
REMARK VINA RESULT:    -5.945      4.066      8.660
REMARK INTER + INTRA:          -8.856
REMARK INTER:                  -7.983
REMARK INTRA:                  -0.874
REMARK UNBOUND:                -0.827
REMARK  Name = 
REMARK  8 active torsions:
REMARK  status: ('A' for Active; 'I' for Inactive)
REMARK    1  A    between atoms: C_1  and  C_2
REMARK    2  A    between atoms: C_2  and  N_3
REMARK    3  A    between atoms: C_2  and  C_19
REMARK    4  A    between atoms: C_7  and  C_8
REMARK    5  A    between atoms: C_8  and  C_9
REMARK    6  A    between atoms: C_8  and  N_10
REMARK    7  A    between atoms: N_10  and  C_11
REMARK    8  A    between atoms: C_11  and  C_12
REMARK                            x       y       z     vdW  Elec       q    Type
REMARK                         _______ _______ _______ _____ _____    ______ ____
ROOT
ATOM      1  N   UNL     1      47.019   6.689  11.435  0.00  0.00    +0.000 N 
ATOM      2  C   UNL     1      48.023   7.291  12.191  0.00  0.00    +0.000 A 
ATOM      3  C   UNL     1      49.139   7.856  11.565  0.00  0.00    +0.000 A 
ATOM      4  N   UNL     1      50.270   8.255  12.211  0.00  0.00    +0.000 NA
ATOM      5  C   UNL     1      50.287   8.018  13.546  0.00  0.00    +0.000 A 
ATOM      6  C   UNL     1      49.157   7.522  14.188  0.00  0.00    +0.000 A 
ATOM      7  N   UNL     1      48.017   7.170  13.536  0.00  0.00    +0.000 NA
ATOM      8  H   UNL     1      46.994   6.973  10.456  0.00  0.00    +0.000 HD
ENDROOT
BRANCH   1  10
ATOM      9  C   UNL     1      44.823   7.740  11.468  0.00  0.00    +0.000 C 
ATOM     10  C   UNL     1      45.678   6.585  12.008  0.00  0.00    +0.000 C 
BRANCH  10  11
ATOM     11  C   UNL     1      44.966   5.254  11.778  0.00  0.00    +0.000 A 
ATOM     12  C   UNL     1      44.188   4.653  12.758  0.00  0.00    +0.000 A 
ATOM     13  S   UNL     1      43.547   3.144  12.288  0.00  0.00    +0.000 S 
ATOM     14  C   UNL     1      44.254   3.260  10.746  0.00  0.00    +0.000 A 
ATOM     15  N   UNL     1      44.089   2.272   9.828  0.00  0.00    +0.000 NA
ATOM     16  C   UNL     1      44.667   2.496   8.696  0.00  0.00    +0.000 A 
ATOM     17  N   UNL     1      45.385   3.626   8.392  0.00  0.00    +0.000 N 
ATOM     18  C   UNL     1      45.546   4.675   9.274  0.00  0.00    +0.000 A 
ATOM     19  O   UNL     1      46.100   5.714   8.935  0.00  0.00    +0.000 OA
ATOM     20  C   UNL     1      44.955   4.443  10.580  0.00  0.00    +0.000 A 
ATOM     21  H   UNL     1      45.776   3.752   7.470  0.00  0.00    +0.000 HD
ENDBRANCH  10  11
ENDBRANCH   1  10
BRANCH   5  22
ATOM     22  C   UNL     1      51.586   8.227  14.314  0.00  0.00    +0.000 C 
ATOM     23  C   UNL     1      51.485   7.512  15.669  0.00  0.00    +0.000 C 
BRANCH  22  24
ATOM     24  N   UNL     1      52.786   7.709  13.627  0.00  0.00    +0.000 NA
ATOM     25  H   UNL     1      52.459   7.072  12.898  0.00  0.00    +0.000 HD
BRANCH  24  26
ATOM     26  C   UNL     1      53.585   8.778  13.022  0.00  0.00    +0.000 C 
BRANCH  26  27
ATOM     27  C   UNL     1      54.472   8.289  11.846  0.00  0.00    +0.000 C 
ATOM     28  C   UNL     1      53.758   7.415  10.820  0.00  0.00    +0.000 C 
ATOM     29  C   UNL     1      53.027   8.414   9.944  0.00  0.00    +0.000 C 
ATOM     30  C   UNL     1      53.864   9.683  10.033  0.00  0.00    +0.000 C 
ATOM     31  N   UNL     1      54.926   9.411  11.005  0.00  0.00    +0.000 NA
ATOM     32  H   UNL     1      55.129  10.237  11.563  0.00  0.00    +0.000 HD
ENDBRANCH  26  27
ENDBRANCH  24  26
ENDBRANCH  22  24
ENDBRANCH   5  22
TORSDOF 6
ENDMDL
MODEL 8
REMARK VINA RESULT:    -5.804      2.452      3.582
REMARK INTER + INTRA:          -8.666
REMARK INTER:                  -7.577
REMARK INTRA:                  -1.089
REMARK UNBOUND:                -0.827
REMARK  Name = 
REMARK  8 active torsions:
REMARK  status: ('A' for Active; 'I' for Inactive)
REMARK    1  A    between atoms: C_1  and  C_2
REMARK    2  A    between atoms: C_2  and  N_3
REMARK    3  A    between atoms: C_2  and  C_19
REMARK    4  A    between atoms: C_7  and  C_8
REMARK    5  A    between atoms: C_8  and  C_9
REMARK    6  A    between atoms: C_8  and  N_10
REMARK    7  A    between atoms: N_10  and  C_11
REMARK    8  A    between atoms: C_11  and  C_12
REMARK                            x       y       z     vdW  Elec       q    Type
REMARK                         _______ _______ _______ _____ _____    ______ ____
ROOT
ATOM      1  N   UNL     1      51.352   7.515  15.637  0.00  0.00    +0.000 N 
ATOM      2  C   UNL     1      50.312   7.311  14.732  0.00  0.00    +0.000 A 
ATOM      3  C   UNL     1      50.257   8.042  13.540  0.00  0.00    +0.000 A 
ATOM      4  N   UNL     1      49.179   8.089  12.709  0.00  0.00    +0.000 NA
ATOM      5  C   UNL     1      48.089   7.404  13.138  0.00  0.00    +0.000 A 
ATOM      6  C   UNL     1      48.156   6.619  14.284  0.00  0.00    +0.000 A 
ATOM      7  N   UNL     1      49.255   6.546  15.081  0.00  0.00    +0.000 NA
ATOM      8  H   UNL     1      52.184   7.950  15.240  0.00  0.00    +0.000 HD
ENDROOT
BRANCH   1  10
ATOM      9  C   UNL     1      53.218   6.338  16.668  0.00  0.00    +0.000 C 
ATOM     10  C   UNL     1      51.689   6.439  16.568  0.00  0.00    +0.000 C 
BRANCH  10  11
ATOM     11  C   UNL     1      51.080   6.562  17.963  0.00  0.00    +0.000 A 
ATOM     12  C   UNL     1      51.285   7.678  18.763  0.00  0.00    +0.000 A 
ATOM     13  S   UNL     1      50.555   7.557  20.300  0.00  0.00    +0.000 S 
ATOM     14  C   UNL     1      49.905   6.029  19.934  0.00  0.00    +0.000 A 
ATOM     15  N   UNL     1      49.155   5.356  20.844  0.00  0.00    +0.000 NA
ATOM     16  C   UNL     1      48.713   4.216  20.430  0.00  0.00    +0.000 A 
ATOM     17  N   UNL     1      48.943   3.692  19.182  0.00  0.00    +0.000 N 
ATOM     18  C   UNL     1      49.663   4.354  18.209  0.00  0.00    +0.000 A 
ATOM     19  O   UNL     1      49.758   3.909  17.071  0.00  0.00    +0.000 OA
ATOM     20  C   UNL     1      50.223   5.620  18.649  0.00  0.00    +0.000 A 
ATOM     21  H   UNL     1      48.531   2.811  18.912  0.00  0.00    +0.000 HD
ENDBRANCH  10  11
ENDBRANCH   1  10
BRANCH   5  22
ATOM     22  C   UNL     1      46.772   7.576  12.392  0.00  0.00    +0.000 C 
ATOM     23  C   UNL     1      46.785   6.678  11.145  0.00  0.00    +0.000 C 
BRANCH  22  24
ATOM     24  N   UNL     1      45.577   7.223  13.181  0.00  0.00    +0.000 NA
ATOM     25  H   UNL     1      45.101   8.099  13.407  0.00  0.00    +0.000 HD
BRANCH  24  26
ATOM     26  C   UNL     1      44.663   6.345  12.445  0.00  0.00    +0.000 C 
BRANCH  26  27
ATOM     27  C   UNL     1      44.214   5.104  13.262  0.00  0.00    +0.000 C 
ATOM     28  C   UNL     1      43.314   4.129  12.513  0.00  0.00    +0.000 C 
ATOM     29  C   UNL     1      44.283   3.314  11.678  0.00  0.00    +0.000 C 
ATOM     30  C   UNL     1      45.586   3.349  12.465  0.00  0.00    +0.000 C 
ATOM     31  N   UNL     1      45.357   4.239  13.606  0.00  0.00    +0.000 NA
ATOM     32  H   UNL     1      46.190   4.786  13.814  0.00  0.00    +0.000 HD
ENDBRANCH  26  27
ENDBRANCH  24  26
ENDBRANCH  22  24
ENDBRANCH   5  22
TORSDOF 6
ENDMDL
MODEL 9
REMARK VINA RESULT:    -5.756      2.665      3.312
REMARK INTER + INTRA:          -8.602
REMARK INTER:                  -7.880
REMARK INTRA:                  -0.721
REMARK UNBOUND:                -0.827
REMARK  Name = 
REMARK  8 active torsions:
REMARK  status: ('A' for Active; 'I' for Inactive)
REMARK    1  A    between atoms: C_1  and  C_2
REMARK    2  A    between atoms: C_2  and  N_3
REMARK    3  A    between atoms: C_2  and  C_19
REMARK    4  A    between atoms: C_7  and  C_8
REMARK    5  A    between atoms: C_8  and  C_9
REMARK    6  A    between atoms: C_8  and  N_10
REMARK    7  A    between atoms: N_10  and  C_11
REMARK    8  A    between atoms: C_11  and  C_12
REMARK                            x       y       z     vdW  Elec       q    Type
REMARK                         _______ _______ _______ _____ _____    ______ ____
ROOT
ATOM      1  N   UNL     1      47.231   8.754  14.195  0.00  0.00    +0.000 N 
ATOM      2  C   UNL     1      46.724   7.862  13.252  0.00  0.00    +0.000 A 
ATOM      3  C   UNL     1      45.414   7.997  12.781  0.00  0.00    +0.000 A 
ATOM      4  N   UNL     1      44.753   7.059  12.048  0.00  0.00    +0.000 NA
ATOM      5  C   UNL     1      45.439   5.908  11.831  0.00  0.00    +0.000 A 
ATOM      6  C   UNL     1      46.765   5.791  12.234  0.00  0.00    +0.000 A 
ATOM      7  N   UNL     1      47.426   6.755  12.927  0.00  0.00    +0.000 NA
ATOM      8  H   UNL     1      46.734   9.642  14.253  0.00  0.00    +0.000 HD
ENDROOT
BRANCH   1  10
ATOM      9  C   UNL     1      48.974  10.402  14.618  0.00  0.00    +0.000 C 
ATOM     10  C   UNL     1      48.680   8.933  14.281  0.00  0.00    +0.000 C 
BRANCH  10  11
ATOM     11  C   UNL     1      49.398   8.015  15.267  0.00  0.00    +0.000 A 
ATOM     12  C   UNL     1      48.734   7.392  16.315  0.00  0.00    +0.000 A 
ATOM     13  S   UNL     1      49.758   6.467  17.317  0.00  0.00    +0.000 S 
ATOM     14  C   UNL     1      51.117   6.833  16.361  0.00  0.00    +0.000 A 
ATOM     15  N   UNL     1      52.343   6.342  16.678  0.00  0.00    +0.000 NA
ATOM     16  C   UNL     1      53.281   6.686  15.861  0.00  0.00    +0.000 A 
ATOM     17  N   UNL     1      53.102   7.468  14.747  0.00  0.00    +0.000 N 
ATOM     18  C   UNL     1      51.871   7.956  14.360  0.00  0.00    +0.000 A 
ATOM     19  O   UNL     1      51.727   8.559  13.303  0.00  0.00    +0.000 OA
ATOM     20  C   UNL     1      50.794   7.635  15.279  0.00  0.00    +0.000 A 
ATOM     21  H   UNL     1      53.876   7.664  14.129  0.00  0.00    +0.000 HD
ENDBRANCH  10  11
ENDBRANCH   1  10
BRANCH   5  22
ATOM     22  C   UNL     1      44.707   4.722  11.214  0.00  0.00    +0.000 C 
ATOM     23  C   UNL     1      43.775   4.109  12.269  0.00  0.00    +0.000 C 
BRANCH  22  24
ATOM     24  N   UNL     1      43.885   5.062  10.037  0.00  0.00    +0.000 NA
ATOM     25  H   UNL     1      44.007   6.063   9.869  0.00  0.00    +0.000 HD
BRANCH  24  26
ATOM     26  C   UNL     1      44.284   4.312   8.843  0.00  0.00    +0.000 C 
BRANCH  26  27
ATOM     27  C   UNL     1      45.760   3.833   8.887  0.00  0.00    +0.000 C 
ATOM     28  C   UNL     1      45.956   2.331   8.717  0.00  0.00    +0.000 C 
ATOM     29  C   UNL     1      45.861   2.124   7.217  0.00  0.00    +0.000 C 
ATOM     30  C   UNL     1      46.319   3.447   6.620  0.00  0.00    +0.000 C 
ATOM     31  N   UNL     1      46.535   4.358   7.748  0.00  0.00    +0.000 NA
ATOM     32  H   UNL     1      46.251   5.306   7.509  0.00  0.00    +0.000 HD
ENDBRANCH  26  27
ENDBRANCH  24  26
ENDBRANCH  22  24
ENDBRANCH   5  22
TORSDOF 6
ENDMDL
