MODEL 1
REMARK VINA RESULT:    -8.594      0.000      0.000
REMARK INTER + INTRA:         -11.460
REMARK INTER:                 -10.854
REMARK INTRA:                  -0.606
REMARK UNBOUND:                -0.606
REMARK  Name = 
REMARK  5 active torsions:
REMARK  status: ('A' for Active; 'I' for Inactive)
REMARK    1  A    between atoms: C_2  and  C_4
REMARK    2  A    between atoms: C_7  and  C_8
REMARK    3  A    between atoms: C_8  and  N_9
REMARK    4  A    between atoms: C_11  and  C_12
REMARK    5  A    between atoms: C_12  and  O_13
REMARK                            x       y       z     vdW  Elec       q    Type
REMARK                         _______ _______ _______ _____ _____    ______ ____
ROOT
ATOM      1  C   UNL     1      43.903   4.544  10.493  0.00  0.00    +0.000 C 
ENDROOT
BRANCH   1   2
ATOM      2  N   UNL     1      44.629   5.018  11.668  0.00  0.00    +0.000 N 
ATOM      3  C   UNL     1      45.247   4.196  12.583  0.00  0.00    +0.000 A 
ATOM      4  C   UNL     1      46.004   4.976  13.443  0.00  0.00    +0.000 A 
ATOM      5  C   UNL     1      45.839   6.320  13.012  0.00  0.00    +0.000 A 
ATOM      6  N   UNL     1      46.424   7.438  13.507  0.00  0.00    +0.000 NA
ATOM      7  C   UNL     1      46.118   8.577  12.855  0.00  0.00    +0.000 A 
ATOM      8  C   UNL     1      45.256   8.679  11.774  0.00  0.00    +0.000 A 
ATOM      9  C   UNL     1      44.643   7.531  11.282  0.00  0.00    +0.000 A 
ATOM     10  C   UNL     1      44.970   6.331  11.920  0.00  0.00    +0.000 A 
BRANCH   4  11
ATOM     11  C   UNL     1      46.879   4.528  14.559  0.00  0.00    +0.000 C 
BRANCH  11  12
ATOM     12  O   UNL     1      47.350   3.194  14.375  0.00  0.00    +0.000 OA
ATOM     13  H   UNL     1      48.308   3.271  14.230  0.00  0.00    +0.000 HD
ENDBRANCH  11  12
ENDBRANCH   4  11
ENDBRANCH   1   2
BRANCH   1  17
ATOM     14  C   UNL     1      46.445   2.476   7.674  0.00  0.00    +0.000 A 
ATOM     15  C   UNL     1      46.394   3.875   7.672  0.00  0.00    +0.000 A 
ATOM     16  C   UNL     1      45.580   4.547   8.589  0.00  0.00    +0.000 A 
ATOM     17  C   UNL     1      44.791   3.833   9.503  0.00  0.00    +0.000 A 
ATOM     18  C   UNL     1      44.840   2.430   9.485  0.00  0.00    +0.000 A 
ATOM     19  C   UNL     1      45.658   1.755   8.574  0.00  0.00    +0.000 A 
BRANCH  14  21
ATOM     20  N   UNL     1      48.353   2.432   6.166  0.00  0.00    +0.000 N 
ATOM     21  C   UNL     1      47.314   1.735   6.723  0.00  0.00    +0.000 C 
ATOM     22  O   UNL     1      47.136   0.551   6.475  0.00  0.00    +0.000 OA
ATOM     23  H   UNL     1      48.998   1.899   5.599  0.00  0.00    +0.000 HD
ATOM     24  H   UNL     1      48.670   3.314   6.535  0.00  0.00    +0.000 HD
ENDBRANCH  14  21
ENDBRANCH   1  17
TORSDOF 5
ENDMDL
MODEL 2
REMARK VINA RESULT:    -8.309      0.654      1.241
REMARK INTER + INTRA:         -11.101
REMARK INTER:                 -10.300
REMARK INTRA:                  -0.801
REMARK UNBOUND:                -0.606
REMARK  Name = 
REMARK  5 active torsions:
REMARK  status: ('A' for Active; 'I' for Inactive)
REMARK    1  A    between atoms: C_2  and  C_4
REMARK    2  A    between atoms: C_7  and  C_8
REMARK    3  A    between atoms: C_8  and  N_9
REMARK    4  A    between atoms: C_11  and  C_12
REMARK    5  A    between atoms: C_12  and  O_13
REMARK                            x       y       z     vdW  Elec       q    Type
REMARK                         _______ _______ _______ _____ _____    ______ ____
ROOT
ATOM      1  C   UNL     1      43.818   4.613  10.400  0.00  0.00    +0.000 C 
ENDROOT
BRANCH   1   2
ATOM      2  N   UNL     1      44.516   5.194  11.543  0.00  0.00    +0.000 N 
ATOM      3  C   UNL     1      45.253   4.471  12.454  0.00  0.00    +0.000 A 
ATOM      4  C   UNL     1      45.936   5.353  13.275  0.00  0.00    +0.000 A 
ATOM      5  C   UNL     1      45.603   6.658  12.825  0.00  0.00    +0.000 A 
ATOM      6  N   UNL     1      46.067   7.848  13.280  0.00  0.00    +0.000 NA
ATOM      7  C   UNL     1      45.610   8.928  12.616  0.00  0.00    +0.000 A 
ATOM      8  C   UNL     1      44.712   8.905  11.560  0.00  0.00    +0.000 A 
ATOM      9  C   UNL     1      44.225   7.682  11.109  0.00  0.00    +0.000 A 
ATOM     10  C   UNL     1      44.709   6.543  11.759  0.00  0.00    +0.000 A 
BRANCH   4  11
ATOM     11  C   UNL     1      46.889   5.035  14.373  0.00  0.00    +0.000 C 
BRANCH  11  12
ATOM     12  O   UNL     1      48.182   5.594  14.145  0.00  0.00    +0.000 OA
ATOM     13  H   UNL     1      48.336   5.517  13.188  0.00  0.00    +0.000 HD
ENDBRANCH  11  12
ENDBRANCH   4  11
ENDBRANCH   1   2
BRANCH   1  17
ATOM     14  C   UNL     1      46.463   2.491   7.718  0.00  0.00    +0.000 A 
ATOM     15  C   UNL     1      45.673   1.779   8.628  0.00  0.00    +0.000 A 
ATOM     16  C   UNL     1      44.809   2.462   9.490  0.00  0.00    +0.000 A 
ATOM     17  C   UNL     1      44.740   3.863   9.470  0.00  0.00    +0.000 A 
ATOM     18  C   UNL     1      45.548   4.566   8.564  0.00  0.00    +0.000 A 
ATOM     19  C   UNL     1      46.407   3.886   7.696  0.00  0.00    +0.000 A 
BRANCH  14  21
ATOM     20  N   UNL     1      48.463   2.500   6.334  0.00  0.00    +0.000 N 
ATOM     21  C   UNL     1      47.377   1.792   6.778  0.00  0.00    +0.000 C 
ATOM     22  O   UNL     1      47.195   0.631   6.444  0.00  0.00    +0.000 OA
ATOM     23  H   UNL     1      49.133   1.989   5.776  0.00  0.00    +0.000 HD
ATOM     24  H   UNL     1      48.772   3.349   6.778  0.00  0.00    +0.000 HD
ENDBRANCH  14  21
ENDBRANCH   1  17
TORSDOF 5
ENDMDL
MODEL 3
REMARK VINA RESULT:    -8.269      1.399      2.808
REMARK INTER + INTRA:         -11.050
REMARK INTER:                 -10.333
REMARK INTRA:                  -0.718
REMARK UNBOUND:                -0.606
REMARK  Name = 
REMARK  5 active torsions:
REMARK  status: ('A' for Active; 'I' for Inactive)
REMARK    1  A    between atoms: C_2  and  C_4
REMARK    2  A    between atoms: C_7  and  C_8
REMARK    3  A    between atoms: C_8  and  N_9
REMARK    4  A    between atoms: C_11  and  C_12
REMARK    5  A    between atoms: C_12  and  O_13
REMARK                            x       y       z     vdW  Elec       q    Type
REMARK                         _______ _______ _______ _____ _____    ______ ____
ROOT
ATOM      1  C   UNL     1      43.993   4.754  10.345  0.00  0.00    +0.000 C 
ENDROOT
BRANCH   1   2
ATOM      2  N   UNL     1      44.781   5.564  11.269  0.00  0.00    +0.000 N 
ATOM      3  C   UNL     1      44.658   6.928  11.407  0.00  0.00    +0.000 A 
ATOM      4  C   UNL     1      45.403   7.335  12.502  0.00  0.00    +0.000 A 
ATOM      5  C   UNL     1      45.985   6.159  13.048  0.00  0.00    +0.000 A 
ATOM      6  N   UNL     1      46.754   6.040  14.158  0.00  0.00    +0.000 NA
ATOM      7  C   UNL     1      47.119   4.780  14.464  0.00  0.00    +0.000 A 
ATOM      8  C   UNL     1      46.797   3.647  13.733  0.00  0.00    +0.000 A 
ATOM      9  C   UNL     1      46.023   3.777  12.584  0.00  0.00    +0.000 A 
ATOM     10  C   UNL     1      45.602   5.071  12.262  0.00  0.00    +0.000 A 
BRANCH   4  11
ATOM     11  C   UNL     1      45.536   8.706  13.065  0.00  0.00    +0.000 C 
BRANCH  11  12
ATOM     12  O   UNL     1      46.616   8.807  13.992  0.00  0.00    +0.000 OA
ATOM     13  H   UNL     1      46.364   8.252  14.750  0.00  0.00    +0.000 HD
ENDBRANCH  11  12
ENDBRANCH   4  11
ENDBRANCH   1   2
BRANCH   1  17
ATOM     14  C   UNL     1      46.443   2.433   7.643  0.00  0.00    +0.000 A 
ATOM     15  C   UNL     1      45.630   1.785   8.581  0.00  0.00    +0.000 A 
ATOM     16  C   UNL     1      44.829   2.532   9.450  0.00  0.00    +0.000 A 
ATOM     17  C   UNL     1      44.846   3.934   9.409  0.00  0.00    +0.000 A 
ATOM     18  C   UNL     1      45.676   4.573   8.475  0.00  0.00    +0.000 A 
ATOM     19  C   UNL     1      46.473   3.829   7.600  0.00  0.00    +0.000 A 
BRANCH  14  21
ATOM     20  N   UNL     1      48.330   2.342   6.112  0.00  0.00    +0.000 N 
ATOM     21  C   UNL     1      47.292   1.665   6.696  0.00  0.00    +0.000 C 
ATOM     22  O   UNL     1      47.102   0.478   6.475  0.00  0.00    +0.000 OA
ATOM     23  H   UNL     1      48.962   1.791   5.547  0.00  0.00    +0.000 HD
ATOM     24  H   UNL     1      48.659   3.228   6.458  0.00  0.00    +0.000 HD
ENDBRANCH  14  21
ENDBRANCH   1  17
TORSDOF 5
ENDMDL
MODEL 4
REMARK VINA RESULT:    -7.857      0.597      1.222
REMARK INTER + INTRA:         -10.530
REMARK INTER:                  -9.867
REMARK INTRA:                  -0.662
REMARK UNBOUND:                -0.606
REMARK  Name = 
REMARK  5 active torsions:
REMARK  status: ('A' for Active; 'I' for Inactive)
REMARK    1  A    between atoms: C_2  and  C_4
REMARK    2  A    between atoms: C_7  and  C_8
REMARK    3  A    between atoms: C_8  and  N_9
REMARK    4  A    between atoms: C_11  and  C_12
REMARK    5  A    between atoms: C_12  and  O_13
REMARK                            x       y       z     vdW  Elec       q    Type
REMARK                         _______ _______ _______ _____ _____    ______ ____
ROOT
ATOM      1  C   UNL     1      44.149   4.703  10.657  0.00  0.00    +0.000 C 
ENDROOT
BRANCH   1   2
ATOM      2  N   UNL     1      44.919   5.010  11.858  0.00  0.00    +0.000 N 
ATOM      3  C   UNL     1      45.233   4.094  12.836  0.00  0.00    +0.000 A 
ATOM      4  C   UNL     1      46.135   4.671  13.715  0.00  0.00    +0.000 A 
ATOM      5  C   UNL     1      46.380   5.984  13.231  0.00  0.00    +0.000 A 
ATOM      6  N   UNL     1      47.232   6.916  13.724  0.00  0.00    +0.000 NA
ATOM      7  C   UNL     1      47.294   8.061  13.017  0.00  0.00    +0.000 A 
ATOM      8  C   UNL     1      46.552   8.348  11.882  0.00  0.00    +0.000 A 
ATOM      9  C   UNL     1      45.664   7.396  11.392  0.00  0.00    +0.000 A 
ATOM     10  C   UNL     1      45.606   6.185  12.088  0.00  0.00    +0.000 A 
BRANCH   4  11
ATOM     11  C   UNL     1      46.791   4.051  14.898  0.00  0.00    +0.000 C 
BRANCH  11  12
ATOM     12  O   UNL     1      47.696   3.010  14.530  0.00  0.00    +0.000 OA
ATOM     13  H   UNL     1      47.280   2.554  13.779  0.00  0.00    +0.000 HD
ENDBRANCH  11  12
ENDBRANCH   4  11
ENDBRANCH   1   2
BRANCH   1  17
ATOM     14  C   UNL     1      46.453   2.584   7.674  0.00  0.00    +0.000 A 
ATOM     15  C   UNL     1      45.703   1.869   8.616  0.00  0.00    +0.000 A 
ATOM     16  C   UNL     1      44.949   2.551   9.576  0.00  0.00    +0.000 A 
ATOM     17  C   UNL     1      44.952   3.954   9.622  0.00  0.00    +0.000 A 
ATOM     18  C   UNL     1      45.719   4.659   8.683  0.00  0.00    +0.000 A 
ATOM     19  C   UNL     1      46.468   3.980   7.717  0.00  0.00    +0.000 A 
BRANCH  14  21
ATOM     20  N   UNL     1      48.026   2.673   5.822  0.00  0.00    +0.000 N 
ATOM     21  C   UNL     1      47.250   1.887   6.632  0.00  0.00    +0.000 C 
ATOM     22  O   UNL     1      47.247   0.669   6.524  0.00  0.00    +0.000 OA
ATOM     23  H   UNL     1      48.641   2.188   5.182  0.00  0.00    +0.000 HD
ATOM     24  H   UNL     1      48.242   3.631   6.045  0.00  0.00    +0.000 HD
ENDBRANCH  14  21
ENDBRANCH   1  17
TORSDOF 5
ENDMDL
MODEL 5
REMARK VINA RESULT:    -6.234      2.850      6.577
REMARK INTER + INTRA:          -8.479
REMARK INTER:                  -7.743
REMARK INTRA:                  -0.737
REMARK UNBOUND:                -0.606
REMARK  Name = 
REMARK  5 active torsions:
REMARK  status: ('A' for Active; 'I' for Inactive)
REMARK    1  A    between atoms: C_2  and  C_4
REMARK    2  A    between atoms: C_7  and  C_8
REMARK    3  A    between atoms: C_8  and  N_9
REMARK    4  A    between atoms: C_11  and  C_12
REMARK    5  A    between atoms: C_12  and  O_13
REMARK                            x       y       z     vdW  Elec       q    Type
REMARK                         _______ _______ _______ _____ _____    ______ ____
ROOT
ATOM      1  C   UNL     1      45.289   7.072  11.443  0.00  0.00    +0.000 C 
ENDROOT
BRANCH   1   2
ATOM      2  N   UNL     1      45.037   5.637  11.361  0.00  0.00    +0.000 N 
ATOM      3  C   UNL     1      44.386   4.905  12.328  0.00  0.00    +0.000 A 
ATOM      4  C   UNL     1      44.144   3.632  11.837  0.00  0.00    +0.000 A 
ATOM      5  C   UNL     1      44.662   3.609  10.515  0.00  0.00    +0.000 A 
ATOM      6  N   UNL     1      44.615   2.599   9.611  0.00  0.00    +0.000 NA
ATOM      7  C   UNL     1      45.145   2.889   8.406  0.00  0.00    +0.000 A 
ATOM      8  C   UNL     1      45.738   4.092   8.055  0.00  0.00    +0.000 A 
ATOM      9  C   UNL     1      45.801   5.118   8.992  0.00  0.00    +0.000 A 
ATOM     10  C   UNL     1      45.228   4.855  10.239  0.00  0.00    +0.000 A 
BRANCH   4  11
ATOM     11  C   UNL     1      43.428   2.511  12.503  0.00  0.00    +0.000 C 
BRANCH  11  12
ATOM     12  O   UNL     1      42.920   1.561  11.567  0.00  0.00    +0.000 OA
ATOM     13  H   UNL     1      43.096   1.939  10.689  0.00  0.00    +0.000 HD
ENDBRANCH  11  12
ENDBRANCH   4  11
ENDBRANCH   1   2
BRANCH   1  17
ATOM     14  C   UNL     1      48.795   8.060  13.770  0.00  0.00    +0.000 A 
ATOM     15  C   UNL     1      48.844   7.011  12.844  0.00  0.00    +0.000 A 
ATOM     16  C   UNL     1      47.715   6.695  12.083  0.00  0.00    +0.000 A 
ATOM     17  C   UNL     1      46.517   7.407  12.252  0.00  0.00    +0.000 A 
ATOM     18  C   UNL     1      46.476   8.446  13.194  0.00  0.00    +0.000 A 
ATOM     19  C   UNL     1      47.606   8.769  13.951  0.00  0.00    +0.000 A 
BRANCH  14  21
ATOM     20  N   UNL     1      51.153   7.775  14.295  0.00  0.00    +0.000 N 
ATOM     21  C   UNL     1      49.984   8.430  14.581  0.00  0.00    +0.000 C 
ATOM     22  O   UNL     1      49.937   9.302  15.436  0.00  0.00    +0.000 OA
ATOM     23  H   UNL     1      51.979   8.099  14.780  0.00  0.00    +0.000 HD
ATOM     24  H   UNL     1      51.282   7.247  13.447  0.00  0.00    +0.000 HD
ENDBRANCH  14  21
ENDBRANCH   1  17
TORSDOF 5
ENDMDL
MODEL 6
REMARK VINA RESULT:    -5.883      4.020      7.656
REMARK INTER + INTRA:          -8.036
REMARK INTER:                  -7.393
REMARK INTRA:                  -0.643
REMARK UNBOUND:                -0.606
REMARK  Name = 
REMARK  5 active torsions:
REMARK  status: ('A' for Active; 'I' for Inactive)
REMARK    1  A    between atoms: C_2  and  C_4
REMARK    2  A    between atoms: C_7  and  C_8
REMARK    3  A    between atoms: C_8  and  N_9
REMARK    4  A    between atoms: C_11  and  C_12
REMARK    5  A    between atoms: C_12  and  O_13
REMARK                            x       y       z     vdW  Elec       q    Type
REMARK                         _______ _______ _______ _____ _____    ______ ____
ROOT
ATOM      1  C   UNL     1      47.716   5.515  13.242  0.00  0.00    +0.000 C 
ENDROOT
BRANCH   1   2
ATOM      2  N   UNL     1      46.397   5.944  12.787  0.00  0.00    +0.000 N 
ATOM      3  C   UNL     1      46.068   7.244  12.473  0.00  0.00    +0.000 A 
ATOM      4  C   UNL     1      44.812   7.257  11.888  0.00  0.00    +0.000 A 
ATOM      5  C   UNL     1      44.381   5.905  11.839  0.00  0.00    +0.000 A 
ATOM      6  N   UNL     1      43.239   5.406  11.304  0.00  0.00    +0.000 NA
ATOM      7  C   UNL     1      43.126   4.064  11.355  0.00  0.00    +0.000 A 
ATOM      8  C   UNL     1      44.049   3.199  11.919  0.00  0.00    +0.000 A 
ATOM      9  C   UNL     1      45.210   3.717  12.484  0.00  0.00    +0.000 A 
ATOM     10  C   UNL     1      45.368   5.104  12.414  0.00  0.00    +0.000 A 
BRANCH   4  11
ATOM     11  C   UNL     1      44.064   8.423  11.346  0.00  0.00    +0.000 C 
BRANCH  11  12
ATOM     12  O   UNL     1      42.730   8.082  10.970  0.00  0.00    +0.000 OA
ATOM     13  H   UNL     1      42.248   8.924  10.918  0.00  0.00    +0.000 HD
ENDBRANCH  11  12
ENDBRANCH   4  11
ENDBRANCH   1   2
BRANCH   1  17
ATOM     14  C   UNL     1      47.976   5.110  17.539  0.00  0.00    +0.000 A 
ATOM     15  C   UNL     1      47.264   4.166  16.790  0.00  0.00    +0.000 A 
ATOM     16  C   UNL     1      47.186   4.288  15.400  0.00  0.00    +0.000 A 
ATOM     17  C   UNL     1      47.798   5.366  14.741  0.00  0.00    +0.000 A 
ATOM     18  C   UNL     1      48.496   6.314  15.504  0.00  0.00    +0.000 A 
ATOM     19  C   UNL     1      48.582   6.191  16.894  0.00  0.00    +0.000 A 
BRANCH  14  21
ATOM     20  N   UNL     1      48.364   3.752  19.519  0.00  0.00    +0.000 N 
ATOM     21  C   UNL     1      48.090   4.997  19.016  0.00  0.00    +0.000 C 
ATOM     22  O   UNL     1      47.984   5.970  19.748  0.00  0.00    +0.000 OA
ATOM     23  H   UNL     1      48.539   3.699  20.513  0.00  0.00    +0.000 HD
ATOM     24  H   UNL     1      48.700   2.999  18.942  0.00  0.00    +0.000 HD
ENDBRANCH  14  21
ENDBRANCH   1  17
TORSDOF 5
ENDMDL
MODEL 7
REMARK VINA RESULT:    -5.694      3.460      5.228
REMARK INTER + INTRA:          -7.798
REMARK INTER:                  -6.989
REMARK INTRA:                  -0.809
REMARK UNBOUND:                -0.606
REMARK  Name = 
REMARK  5 active torsions:
REMARK  status: ('A' for Active; 'I' for Inactive)
REMARK    1  A    between atoms: C_2  and  C_4
REMARK    2  A    between atoms: C_7  and  C_8
REMARK    3  A    between atoms: C_8  and  N_9
REMARK    4  A    between atoms: C_11  and  C_12
REMARK    5  A    between atoms: C_12  and  O_13
REMARK                            x       y       z     vdW  Elec       q    Type
REMARK                         _______ _______ _______ _____ _____    ______ ____
ROOT
ATOM      1  C   UNL     1      46.448   7.817  12.831  0.00  0.00    +0.000 C 
ENDROOT
BRANCH   1   2
ATOM      2  N   UNL     1      47.906   7.749  12.806  0.00  0.00    +0.000 N 
ATOM      3  C   UNL     1      48.684   8.137  11.739  0.00  0.00    +0.000 A 
ATOM      4  C   UNL     1      50.013   8.130  12.131  0.00  0.00    +0.000 A 
ATOM      5  C   UNL     1      50.025   7.734  13.495  0.00  0.00    +0.000 A 
ATOM      6  N   UNL     1      51.088   7.633  14.331  0.00  0.00    +0.000 NA
ATOM      7  C   UNL     1      50.785   7.284  15.597  0.00  0.00    +0.000 A 
ATOM      8  C   UNL     1      49.513   7.006  16.073  0.00  0.00    +0.000 A 
ATOM      9  C   UNL     1      48.428   7.093  15.206  0.00  0.00    +0.000 A 
ATOM     10  C   UNL     1      48.712   7.486  13.895  0.00  0.00    +0.000 A 
BRANCH   4  11
ATOM     11  C   UNL     1      51.208   8.520  11.334  0.00  0.00    +0.000 C 
BRANCH  11  12
ATOM     12  O   UNL     1      52.308   7.636  11.543  0.00  0.00    +0.000 OA
ATOM     13  H   UNL     1      52.902   8.098  12.159  0.00  0.00    +0.000 HD
ENDBRANCH  11  12
ENDBRANCH   4  11
ENDBRANCH   1   2
BRANCH   1  17
ATOM     14  C   UNL     1      44.577   4.160  11.483  0.00  0.00    +0.000 A 
ATOM     15  C   UNL     1      44.964   5.131  10.552  0.00  0.00    +0.000 A 
ATOM     16  C   UNL     1      45.577   6.311  10.984  0.00  0.00    +0.000 A 
ATOM     17  C   UNL     1      45.793   6.546  12.350  0.00  0.00    +0.000 A 
ATOM     18  C   UNL     1      45.388   5.571  13.275  0.00  0.00    +0.000 A 
ATOM     19  C   UNL     1      44.781   4.387  12.846  0.00  0.00    +0.000 A 
BRANCH  14  21
ATOM     20  N   UNL     1      44.527   2.227  10.007  0.00  0.00    +0.000 N 
ATOM     21  C   UNL     1      43.938   2.889  11.052  0.00  0.00    +0.000 C 
ATOM     22  O   UNL     1      42.959   2.433  11.624  0.00  0.00    +0.000 OA
ATOM     23  H   UNL     1      44.148   1.317   9.784  0.00  0.00    +0.000 HD
ATOM     24  H   UNL     1      45.458   2.440   9.689  0.00  0.00    +0.000 HD
ENDBRANCH  14  21
ENDBRANCH   1  17
TORSDOF 5
ENDMDL
