MODEL 1
REMARK VINA RESULT:    -7.028      0.000      0.000
REMARK INTER + INTRA:         -10.721
REMARK INTER:                  -9.904
REMARK INTRA:                  -0.817
REMARK UNBOUND:                -0.817
REMARK  Name = 
REMARK  9 active torsions:
REMARK  status: ('A' for Active; 'I' for Inactive)
REMARK    1  A    between atoms: C_1  and  C_2
REMARK    2  A    between atoms: C_2  and  N_3
REMARK    3  A    between atoms: C_2  and  C_18
REMARK    4  A    between atoms: C_4  and  C_6
REMARK    5  A    between atoms: C_9  and  C_10
REMARK    6  A    between atoms: C_10  and  C_11
REMARK    7  A    between atoms: C_11  and  O_12
REMARK    8  A    between atoms: C_11  and  C_13
REMARK    9  A    between atoms: C_13  and  O_15
REMARK                            x       y       z     vdW  Elec       q    Type
REMARK                         _______ _______ _______ _____ _____    ______ ____
ROOT
ATOM      1  N   UNL     1      47.820   5.503  16.390  0.00  0.00    +0.000 N 
ATOM      2  C   UNL     1      48.007   6.066  15.142  0.00  0.00    +0.000 C 
ATOM      3  O   UNL     1      48.808   6.966  14.927  0.00  0.00    +0.000 OA
ATOM      4  H   UNL     1      47.319   4.625  16.489  0.00  0.00    +0.000 HD
ENDROOT
BRANCH   2   5
ATOM      5  C   UNL     1      47.195   5.527  14.013  0.00  0.00    +0.000 A 
ATOM      6  C   UNL     1      46.686   4.223  13.988  0.00  0.00    +0.000 A 
ATOM      7  C   UNL     1      45.900   3.791  12.906  0.00  0.00    +0.000 A 
ATOM      8  C   UNL     1      45.607   4.658  11.839  0.00  0.00    +0.000 A 
ATOM      9  C   UNL     1      46.105   5.966  11.887  0.00  0.00    +0.000 A 
ATOM     10  C   UNL     1      46.884   6.398  12.964  0.00  0.00    +0.000 A 
BRANCH   8  11
ATOM     11  C   UNL     1      44.826   4.204  10.623  0.00  0.00    +0.000 C 
BRANCH  11  12
ATOM     12  C   UNL     1      43.312   4.074  10.827  0.00  0.00    +0.000 C 
BRANCH  12  13
ATOM     13  O   UNL     1      42.952   2.863  11.519  0.00  0.00    +0.000 OA
ATOM     14  H   UNL     1      41.990   2.890  11.679  0.00  0.00    +0.000 HD
ENDBRANCH  12  13
BRANCH  12  15
ATOM     15  C   UNL     1      42.778   5.235  11.672  0.00  0.00    +0.000 C 
ATOM     16  O   UNL     1      42.543   5.197  12.869  0.00  0.00    +0.000 OA
BRANCH  15  17
ATOM     17  O   UNL     1      42.598   6.351  10.917  0.00  0.00    +0.000 OA
ATOM     18  H   UNL     1      42.333   7.090  11.514  0.00  0.00    +0.000 HD
ENDBRANCH  15  17
ENDBRANCH  12  15
ENDBRANCH  11  12
ENDBRANCH   8  11
ENDBRANCH   2   5
BRANCH   1  20
ATOM     19  C   UNL     1      47.829   5.753  18.842  0.00  0.00    +0.000 C 
ATOM     20  C   UNL     1      48.592   5.957  17.534  0.00  0.00    +0.000 C 
BRANCH  20  21
ATOM     21  C   UNL     1      49.957   5.298  17.537  0.00  0.00    +0.000 A 
ATOM     22  C   UNL     1      51.138   6.019  17.624  0.00  0.00    +0.000 A 
ATOM     23  S   UNL     1      52.534   5.037  17.682  0.00  0.00    +0.000 S 
ATOM     24  C   UNL     1      51.611   3.616  17.534  0.00  0.00    +0.000 A 
ATOM     25  N   UNL     1      52.205   2.393  17.493  0.00  0.00    +0.000 NA
ATOM     26  C   UNL     1      51.382   1.409  17.349  0.00  0.00    +0.000 A 
ATOM     27  N   UNL     1      50.019   1.534  17.255  0.00  0.00    +0.000 N 
ATOM     28  C   UNL     1      49.371   2.749  17.288  0.00  0.00    +0.000 A 
ATOM     29  O   UNL     1      48.151   2.835  17.162  0.00  0.00    +0.000 OA
ATOM     30  C   UNL     1      50.257   3.886  17.452  0.00  0.00    +0.000 A 
ATOM     31  H   UNL     1      49.436   0.719  17.128  0.00  0.00    +0.000 HD
ENDBRANCH  20  21
ENDBRANCH   1  20
TORSDOF 8
ENDMDL
MODEL 2
REMARK VINA RESULT:    -6.998      1.424      1.992
REMARK INTER + INTRA:         -10.679
REMARK INTER:                  -9.767
REMARK INTRA:                  -0.911
REMARK UNBOUND:                -0.817
REMARK  Name = 
REMARK  9 active torsions:
REMARK  status: ('A' for Active; 'I' for Inactive)
REMARK    1  A    between atoms: C_1  and  C_2
REMARK    2  A    between atoms: C_2  and  N_3
REMARK    3  A    between atoms: C_2  and  C_18
REMARK    4  A    between atoms: C_4  and  C_6
REMARK    5  A    between atoms: C_9  and  C_10
REMARK    6  A    between atoms: C_10  and  C_11
REMARK    7  A    between atoms: C_11  and  O_12
REMARK    8  A    between atoms: C_11  and  C_13
REMARK    9  A    between atoms: C_13  and  O_15
REMARK                            x       y       z     vdW  Elec       q    Type
REMARK                         _______ _______ _______ _____ _____    ______ ____
ROOT
ATOM      1  N   UNL     1      47.708   5.481  16.309  0.00  0.00    +0.000 N 
ATOM      2  C   UNL     1      47.928   5.853  14.997  0.00  0.00    +0.000 C 
ATOM      3  O   UNL     1      48.809   6.633  14.661  0.00  0.00    +0.000 OA
ATOM      4  H   UNL     1      47.125   4.679  16.526  0.00  0.00    +0.000 HD
ENDROOT
BRANCH   2   5
ATOM      5  C   UNL     1      47.050   5.250  13.952  0.00  0.00    +0.000 A 
ATOM      6  C   UNL     1      46.459   5.995  12.925  0.00  0.00    +0.000 A 
ATOM      7  C   UNL     1      45.668   5.356  11.954  0.00  0.00    +0.000 A 
ATOM      8  C   UNL     1      45.465   3.967  11.992  0.00  0.00    +0.000 A 
ATOM      9  C   UNL     1      46.080   3.230  13.013  0.00  0.00    +0.000 A 
ATOM     10  C   UNL     1      46.869   3.864  13.977  0.00  0.00    +0.000 A 
BRANCH   8  11
ATOM     11  C   UNL     1      44.561   3.256  11.005  0.00  0.00    +0.000 C 
BRANCH  11  12
ATOM     12  C   UNL     1      45.228   2.833   9.692  0.00  0.00    +0.000 C 
BRANCH  12  13
ATOM     13  O   UNL     1      44.756   1.555   9.223  0.00  0.00    +0.000 OA
ATOM     14  H   UNL     1      45.421   1.206   8.600  0.00  0.00    +0.000 HD
ENDBRANCH  12  13
BRANCH  12  15
ATOM     15  C   UNL     1      44.928   3.843   8.581  0.00  0.00    +0.000 C 
ATOM     16  O   UNL     1      45.647   4.087   7.625  0.00  0.00    +0.000 OA
BRANCH  15  17
ATOM     17  O   UNL     1      43.728   4.451   8.780  0.00  0.00    +0.000 OA
ATOM     18  H   UNL     1      43.378   4.166   9.656  0.00  0.00    +0.000 HD
ENDBRANCH  15  17
ENDBRANCH  12  15
ENDBRANCH  11  12
ENDBRANCH   8  11
ENDBRANCH   2   5
BRANCH   1  20
ATOM     19  C   UNL     1      47.825   5.931  18.729  0.00  0.00    +0.000 C 
ATOM     20  C   UNL     1      48.538   6.005  17.380  0.00  0.00    +0.000 C 
BRANCH  20  21
ATOM     21  C   UNL     1      49.884   5.310  17.384  0.00  0.00    +0.000 A 
ATOM     22  C   UNL     1      51.086   6.001  17.352  0.00  0.00    +0.000 A 
ATOM     23  S   UNL     1      52.458   4.988  17.439  0.00  0.00    +0.000 S 
ATOM     24  C   UNL     1      51.494   3.587  17.464  0.00  0.00    +0.000 A 
ATOM     25  N   UNL     1      52.054   2.348  17.509  0.00  0.00    +0.000 NA
ATOM     26  C   UNL     1      51.201   1.380  17.493  0.00  0.00    +0.000 A 
ATOM     27  N   UNL     1      49.839   1.536  17.447  0.00  0.00    +0.000 N 
ATOM     28  C   UNL     1      49.223   2.767  17.397  0.00  0.00    +0.000 A 
ATOM     29  O   UNL     1      48.002   2.877  17.318  0.00  0.00    +0.000 OA
ATOM     30  C   UNL     1      50.145   3.888  17.416  0.00  0.00    +0.000 A 
ATOM     31  H   UNL     1      49.230   0.730  17.423  0.00  0.00    +0.000 HD
ENDBRANCH  20  21
ENDBRANCH   1  20
TORSDOF 8
ENDMDL
MODEL 3
REMARK VINA RESULT:    -6.823      0.730      1.343
REMARK INTER + INTRA:         -10.432
REMARK INTER:                  -9.428
REMARK INTRA:                  -1.004
REMARK UNBOUND:                -0.817
REMARK  Name = 
REMARK  9 active torsions:
REMARK  status: ('A' for Active; 'I' for Inactive)
REMARK    1  A    between atoms: C_1  and  C_2
REMARK    2  A    between atoms: C_2  and  N_3
REMARK    3  A    between atoms: C_2  and  C_18
REMARK    4  A    between atoms: C_4  and  C_6
REMARK    5  A    between atoms: C_9  and  C_10
REMARK    6  A    between atoms: C_10  and  C_11
REMARK    7  A    between atoms: C_11  and  O_12
REMARK    8  A    between atoms: C_11  and  C_13
REMARK    9  A    between atoms: C_13  and  O_15
REMARK                            x       y       z     vdW  Elec       q    Type
REMARK                         _______ _______ _______ _____ _____    ______ ____
ROOT
ATOM      1  N   UNL     1      48.104   5.509  16.671  0.00  0.00    +0.000 N 
ATOM      2  C   UNL     1      48.276   6.177  15.474  0.00  0.00    +0.000 C 
ATOM      3  O   UNL     1      49.045   7.120  15.338  0.00  0.00    +0.000 OA
ATOM      4  H   UNL     1      47.634   4.609  16.695  0.00  0.00    +0.000 HD
ENDROOT
BRANCH   2   5
ATOM      5  C   UNL     1      47.489   5.703  14.299  0.00  0.00    +0.000 A 
ATOM      6  C   UNL     1      47.270   6.482  13.157  0.00  0.00    +0.000 A 
ATOM      7  C   UNL     1      46.545   5.959  12.072  0.00  0.00    +0.000 A 
ATOM      8  C   UNL     1      46.038   4.649  12.111  0.00  0.00    +0.000 A 
ATOM      9  C   UNL     1      46.283   3.872  13.251  0.00  0.00    +0.000 A 
ATOM     10  C   UNL     1      47.005   4.391  14.329  0.00  0.00    +0.000 A 
BRANCH   8  11
ATOM     11  C   UNL     1      45.192   4.079  10.992  0.00  0.00    +0.000 C 
BRANCH  11  12
ATOM     12  C   UNL     1      44.049   4.980  10.509  0.00  0.00    +0.000 C 
BRANCH  12  13
ATOM     13  O   UNL     1      43.652   4.687   9.156  0.00  0.00    +0.000 OA
ATOM     14  H   UNL     1      43.757   5.506   8.635  0.00  0.00    +0.000 HD
ENDBRANCH  12  13
BRANCH  12  15
ATOM     15  C   UNL     1      42.805   4.791  11.381  0.00  0.00    +0.000 C 
ATOM     16  O   UNL     1      42.074   5.682  11.785  0.00  0.00    +0.000 OA
BRANCH  15  17
ATOM     17  O   UNL     1      42.590   3.476  11.654  0.00  0.00    +0.000 OA
ATOM     18  H   UNL     1      41.640   3.275  11.483  0.00  0.00    +0.000 HD
ENDBRANCH  15  17
ENDBRANCH  12  15
ENDBRANCH  11  12
ENDBRANCH   8  11
ENDBRANCH   2   5
BRANCH   1  20
ATOM     19  C   UNL     1      48.068   5.615  19.133  0.00  0.00    +0.000 C 
ATOM     20  C   UNL     1      48.854   5.896  17.853  0.00  0.00    +0.000 C 
BRANCH  20  21
ATOM     21  C   UNL     1      50.220   5.238  17.843  0.00  0.00    +0.000 A 
ATOM     22  C   UNL     1      51.398   5.954  17.988  0.00  0.00    +0.000 A 
ATOM     23  S   UNL     1      52.794   4.971  18.016  0.00  0.00    +0.000 S 
ATOM     24  C   UNL     1      51.876   3.560  17.777  0.00  0.00    +0.000 A 
ATOM     25  N   UNL     1      52.472   2.341  17.679  0.00  0.00    +0.000 NA
ATOM     26  C   UNL     1      51.653   1.365  17.469  0.00  0.00    +0.000 A 
ATOM     27  N   UNL     1      50.292   1.496  17.359  0.00  0.00    +0.000 N 
ATOM     28  C   UNL     1      49.641   2.706  17.447  0.00  0.00    +0.000 A 
ATOM     29  O   UNL     1      48.424   2.798  17.306  0.00  0.00    +0.000 OA
ATOM     30  C   UNL     1      50.524   3.834  17.687  0.00  0.00    +0.000 A 
ATOM     31  H   UNL     1      49.712   0.688  17.179  0.00  0.00    +0.000 HD
ENDBRANCH  20  21
ENDBRANCH   1  20
TORSDOF 8
ENDMDL
MODEL 4
REMARK VINA RESULT:    -6.791      2.479      3.379
REMARK INTER + INTRA:         -10.387
REMARK INTER:                  -9.453
REMARK INTRA:                  -0.934
REMARK UNBOUND:                -0.817
REMARK  Name = 
REMARK  9 active torsions:
REMARK  status: ('A' for Active; 'I' for Inactive)
REMARK    1  A    between atoms: C_1  and  C_2
REMARK    2  A    between atoms: C_2  and  N_3
REMARK    3  A    between atoms: C_2  and  C_18
REMARK    4  A    between atoms: C_4  and  C_6
REMARK    5  A    between atoms: C_9  and  C_10
REMARK    6  A    between atoms: C_10  and  C_11
REMARK    7  A    between atoms: C_11  and  O_12
REMARK    8  A    between atoms: C_11  and  C_13
REMARK    9  A    between atoms: C_13  and  O_15
REMARK                            x       y       z     vdW  Elec       q    Type
REMARK                         _______ _______ _______ _____ _____    ______ ____
ROOT
ATOM      1  N   UNL     1      48.016   7.511  15.309  0.00  0.00    +0.000 N 
ATOM      2  C   UNL     1      48.467   6.951  14.129  0.00  0.00    +0.000 C 
ATOM      3  O   UNL     1      49.638   6.993  13.773  0.00  0.00    +0.000 OA
ATOM      4  H   UNL     1      47.099   7.271  15.675  0.00  0.00    +0.000 HD
ENDROOT
BRANCH   2   5
ATOM      5  C   UNL     1      47.468   6.252  13.270  0.00  0.00    +0.000 A 
ATOM      6  C   UNL     1      46.791   5.094  13.667  0.00  0.00    +0.000 A 
ATOM      7  C   UNL     1      45.837   4.506  12.818  0.00  0.00    +0.000 A 
ATOM      8  C   UNL     1      45.542   5.072  11.567  0.00  0.00    +0.000 A 
ATOM      9  C   UNL     1      46.211   6.244  11.190  0.00  0.00    +0.000 A 
ATOM     10  C   UNL     1      47.158   6.831  12.034  0.00  0.00    +0.000 A 
BRANCH   8  11
ATOM     11  C   UNL     1      44.574   4.425  10.597  0.00  0.00    +0.000 C 
BRANCH  11  12
ATOM     12  C   UNL     1      44.672   2.899  10.494  0.00  0.00    +0.000 C 
BRANCH  12  13
ATOM     13  O   UNL     1      43.465   2.240  10.924  0.00  0.00    +0.000 OA
ATOM     14  H   UNL     1      42.744   2.898  10.893  0.00  0.00    +0.000 HD
ENDBRANCH  12  13
BRANCH  12  15
ATOM     15  C   UNL     1      44.913   2.468   9.044  0.00  0.00    +0.000 C 
ATOM     16  O   UNL     1      45.603   1.528   8.684  0.00  0.00    +0.000 OA
BRANCH  15  17
ATOM     17  O   UNL     1      44.240   3.269   8.175  0.00  0.00    +0.000 OA
ATOM     18  H   UNL     1      43.425   3.596   8.623  0.00  0.00    +0.000 HD
ENDBRANCH  15  17
ENDBRANCH  12  15
ENDBRANCH  11  12
ENDBRANCH   8  11
ENDBRANCH   2   5
BRANCH   1  20
ATOM     19  C   UNL     1      48.959   9.692  15.961  0.00  0.00    +0.000 C 
ATOM     20  C   UNL     1      48.933   8.185  16.211  0.00  0.00    +0.000 C 
BRANCH  20  21
ATOM     21  C   UNL     1      48.607   7.831  17.648  0.00  0.00    +0.000 A 
ATOM     22  C   UNL     1      48.109   8.754  18.555  0.00  0.00    +0.000 A 
ATOM     23  S   UNL     1      47.757   8.086  20.086  0.00  0.00    +0.000 S 
ATOM     24  C   UNL     1      48.311   6.551  19.608  0.00  0.00    +0.000 A 
ATOM     25  N   UNL     1      48.309   5.502  20.473  0.00  0.00    +0.000 NA
ATOM     26  C   UNL     1      48.786   4.407  19.980  0.00  0.00    +0.000 A 
ATOM     27  N   UNL     1      49.254   4.264  18.699  0.00  0.00    +0.000 N 
ATOM     28  C   UNL     1      49.281   5.295  17.787  0.00  0.00    +0.000 A 
ATOM     29  O   UNL     1      49.742   5.148  16.657  0.00  0.00    +0.000 OA
ATOM     30  C   UNL     1      48.750   6.547  18.296  0.00  0.00    +0.000 A 
ATOM     31  H   UNL     1      49.627   3.379  18.386  0.00  0.00    +0.000 HD
ENDBRANCH  20  21
ENDBRANCH   1  20
TORSDOF 8
ENDMDL
MODEL 5
REMARK VINA RESULT:    -6.768      5.169      6.735
REMARK INTER + INTRA:         -10.354
REMARK INTER:                  -9.670
REMARK INTRA:                  -0.683
REMARK UNBOUND:                -0.817
REMARK  Name = 
REMARK  9 active torsions:
REMARK  status: ('A' for Active; 'I' for Inactive)
REMARK    1  A    between atoms: C_1  and  C_2
REMARK    2  A    between atoms: C_2  and  N_3
REMARK    3  A    between atoms: C_2  and  C_18
REMARK    4  A    between atoms: C_4  and  C_6
REMARK    5  A    between atoms: C_9  and  C_10
REMARK    6  A    between atoms: C_10  and  C_11
REMARK    7  A    between atoms: C_11  and  O_12
REMARK    8  A    between atoms: C_11  and  C_13
REMARK    9  A    between atoms: C_13  and  O_15
REMARK                            x       y       z     vdW  Elec       q    Type
REMARK                         _______ _______ _______ _____ _____    ______ ____
ROOT
ATOM      1  N   UNL     1      46.665   7.291  11.737  0.00  0.00    +0.000 N 
ATOM      2  C   UNL     1      45.426   6.716  11.529  0.00  0.00    +0.000 C 
ATOM      3  O   UNL     1      44.381   7.213  11.929  0.00  0.00    +0.000 OA
ATOM      4  H   UNL     1      47.474   6.974  11.212  0.00  0.00    +0.000 HD
ENDROOT
BRANCH   2   5
ATOM      5  C   UNL     1      45.379   5.435  10.764  0.00  0.00    +0.000 A 
ATOM      6  C   UNL     1      44.953   4.224  11.322  0.00  0.00    +0.000 A 
ATOM      7  C   UNL     1      44.903   3.062  10.533  0.00  0.00    +0.000 A 
ATOM      8  C   UNL     1      45.269   3.096   9.177  0.00  0.00    +0.000 A 
ATOM      9  C   UNL     1      45.672   4.319   8.626  0.00  0.00    +0.000 A 
ATOM     10  C   UNL     1      45.720   5.476   9.408  0.00  0.00    +0.000 A 
BRANCH   8  11
ATOM     11  C   UNL     1      45.297   1.849   8.318  0.00  0.00    +0.000 C 
BRANCH  11  12
ATOM     12  C   UNL     1      46.694   1.356   7.923  0.00  0.00    +0.000 C 
BRANCH  12  13
ATOM     13  O   UNL     1      46.780  -0.081   7.888  0.00  0.00    +0.000 OA
ATOM     14  H   UNL     1      47.694  -0.315   7.637  0.00  0.00    +0.000 HD
ENDBRANCH  12  13
BRANCH  12  15
ATOM     15  C   UNL     1      47.067   1.850   6.522  0.00  0.00    +0.000 C 
ATOM     16  O   UNL     1      46.385   2.576   5.816  0.00  0.00    +0.000 OA
BRANCH  15  17
ATOM     17  O   UNL     1      48.287   1.384   6.145  0.00  0.00    +0.000 OA
ATOM     18  H   UNL     1      48.173   0.844   5.327  0.00  0.00    +0.000 HD
ENDBRANCH  15  17
ENDBRANCH  12  15
ENDBRANCH  11  12
ENDBRANCH   8  11
ENDBRANCH   2   5
BRANCH   1  20
ATOM     19  C   UNL     1      46.947   8.329  13.954  0.00  0.00    +0.000 C 
ATOM     20  C   UNL     1      46.790   8.550  12.450  0.00  0.00    +0.000 C 
BRANCH  20  21
ATOM     21  C   UNL     1      47.912   9.377  11.855  0.00  0.00    +0.000 A 
ATOM     22  C   UNL     1      47.731  10.680  11.414  0.00  0.00    +0.000 A 
ATOM     23  S   UNL     1      49.166  11.416  10.854  0.00  0.00    +0.000 S 
ATOM     24  C   UNL     1      50.068  10.000  11.128  0.00  0.00    +0.000 A 
ATOM     25  N   UNL     1      51.394   9.943  10.830  0.00  0.00    +0.000 NA
ATOM     26  C   UNL     1      51.940   8.796  11.064  0.00  0.00    +0.000 A 
ATOM     27  N   UNL     1      51.284   7.706  11.576  0.00  0.00    +0.000 N 
ATOM     28  C   UNL     1      49.943   7.712  11.890  0.00  0.00    +0.000 A 
ATOM     29  O   UNL     1      49.372   6.709  12.312  0.00  0.00    +0.000 OA
ATOM     30  C   UNL     1      49.287   8.984  11.647  0.00  0.00    +0.000 A 
ATOM     31  H   UNL     1      51.773   6.833  11.719  0.00  0.00    +0.000 HD
ENDBRANCH  20  21
ENDBRANCH   1  20
TORSDOF 8
ENDMDL
MODEL 6
REMARK VINA RESULT:    -6.438      2.989      3.912
REMARK INTER + INTRA:          -9.890
REMARK INTER:                  -9.137
REMARK INTRA:                  -0.752
REMARK UNBOUND:                -0.817
REMARK  Name = 
REMARK  9 active torsions:
REMARK  status: ('A' for Active; 'I' for Inactive)
REMARK    1  A    between atoms: C_1  and  C_2
REMARK    2  A    between atoms: C_2  and  N_3
REMARK    3  A    between atoms: C_2  and  C_18
REMARK    4  A    between atoms: C_4  and  C_6
REMARK    5  A    between atoms: C_9  and  C_10
REMARK    6  A    between atoms: C_10  and  C_11
REMARK    7  A    between atoms: C_11  and  O_12
REMARK    8  A    between atoms: C_11  and  C_13
REMARK    9  A    between atoms: C_13  and  O_15
REMARK                            x       y       z     vdW  Elec       q    Type
REMARK                         _______ _______ _______ _____ _____    ______ ____
ROOT
ATOM      1  N   UNL     1      48.279   6.262  15.094  0.00  0.00    +0.000 N 
ATOM      2  C   UNL     1      47.679   5.051  14.808  0.00  0.00    +0.000 C 
ATOM      3  O   UNL     1      47.923   4.021  15.423  0.00  0.00    +0.000 OA
ATOM      4  H   UNL     1      47.899   7.126  14.719  0.00  0.00    +0.000 HD
ENDROOT
BRANCH   2   5
ATOM      5  C   UNL     1      46.676   5.021  13.704  0.00  0.00    +0.000 A 
ATOM      6  C   UNL     1      46.268   6.164  13.007  0.00  0.00    +0.000 A 
ATOM      7  C   UNL     1      45.342   6.058  11.954  0.00  0.00    +0.000 A 
ATOM      8  C   UNL     1      44.820   4.808  11.580  0.00  0.00    +0.000 A 
ATOM      9  C   UNL     1      45.253   3.669  12.272  0.00  0.00    +0.000 A 
ATOM     10  C   UNL     1      46.175   3.774  13.317  0.00  0.00    +0.000 A 
BRANCH   8  11
ATOM     11  C   UNL     1      43.766   4.666  10.500  0.00  0.00    +0.000 C 
BRANCH  11  12
ATOM     12  C   UNL     1      44.304   4.370   9.096  0.00  0.00    +0.000 C 
BRANCH  12  13
ATOM     13  O   UNL     1      45.467   5.158   8.775  0.00  0.00    +0.000 OA
ATOM     14  H   UNL     1      45.624   5.072   7.815  0.00  0.00    +0.000 HD
ENDBRANCH  12  13
BRANCH  12  15
ATOM     15  C   UNL     1      44.724   2.902   8.974  0.00  0.00    +0.000 C 
ATOM     16  O   UNL     1      44.103   1.944   9.406  0.00  0.00    +0.000 OA
BRANCH  15  17
ATOM     17  O   UNL     1      45.899   2.781   8.299  0.00  0.00    +0.000 OA
ATOM     18  H   UNL     1      45.931   3.481   7.606  0.00  0.00    +0.000 HD
ENDBRANCH  15  17
ENDBRANCH  12  15
ENDBRANCH  11  12
ENDBRANCH   8  11
ENDBRANCH   2   5
BRANCH   1  20
ATOM     19  C   UNL     1      50.534   7.050  15.699  0.00  0.00    +0.000 C 
ATOM     20  C   UNL     1      49.246   6.377  16.171  0.00  0.00    +0.000 C 
BRANCH  20  21
ATOM     21  C   UNL     1      48.619   7.072  17.363  0.00  0.00    +0.000 A 
ATOM     22  C   UNL     1      48.322   8.426  17.372  0.00  0.00    +0.000 A 
ATOM     23  S   UNL     1      47.555   8.947  18.806  0.00  0.00    +0.000 S 
ATOM     24  C   UNL     1      47.646   7.392  19.489  0.00  0.00    +0.000 A 
ATOM     25  N   UNL     1      47.180   7.146  20.743  0.00  0.00    +0.000 NA
ATOM     26  C   UNL     1      47.343   5.928  21.139  0.00  0.00    +0.000 A 
ATOM     27  N   UNL     1      47.919   4.931  20.393  0.00  0.00    +0.000 N 
ATOM     28  C   UNL     1      48.409   5.130  19.121  0.00  0.00    +0.000 A 
ATOM     29  O   UNL     1      48.956   4.228  18.490  0.00  0.00    +0.000 OA
ATOM     30  C   UNL     1      48.244   6.487  18.631  0.00  0.00    +0.000 A 
ATOM     31  H   UNL     1      48.028   4.002  20.774  0.00  0.00    +0.000 HD
ENDBRANCH  20  21
ENDBRANCH   1  20
TORSDOF 8
ENDMDL
MODEL 7
REMARK VINA RESULT:    -6.332      2.344      3.841
REMARK INTER + INTRA:          -9.740
REMARK INTER:                  -8.873
REMARK INTRA:                  -0.866
REMARK UNBOUND:                -0.817
REMARK  Name = 
REMARK  9 active torsions:
REMARK  status: ('A' for Active; 'I' for Inactive)
REMARK    1  A    between atoms: C_1  and  C_2
REMARK    2  A    between atoms: C_2  and  N_3
REMARK    3  A    between atoms: C_2  and  C_18
REMARK    4  A    between atoms: C_4  and  C_6
REMARK    5  A    between atoms: C_9  and  C_10
REMARK    6  A    between atoms: C_10  and  C_11
REMARK    7  A    between atoms: C_11  and  O_12
REMARK    8  A    between atoms: C_11  and  C_13
REMARK    9  A    between atoms: C_13  and  O_15
REMARK                            x       y       z     vdW  Elec       q    Type
REMARK                         _______ _______ _______ _____ _____    ______ ____
ROOT
ATOM      1  N   UNL     1      48.680   4.450  16.409  0.00  0.00    +0.000 N 
ATOM      2  C   UNL     1      47.379   4.189  16.026  0.00  0.00    +0.000 C 
ATOM      3  O   UNL     1      46.569   3.621  16.747  0.00  0.00    +0.000 OA
ATOM      4  H   UNL     1      49.250   5.106  15.883  0.00  0.00    +0.000 HD
ENDROOT
BRANCH   2   5
ATOM      5  C   UNL     1      46.954   4.643  14.669  0.00  0.00    +0.000 A 
ATOM      6  C   UNL     1      47.285   5.896  14.141  0.00  0.00    +0.000 A 
ATOM      7  C   UNL     1      46.878   6.245  12.842  0.00  0.00    +0.000 A 
ATOM      8  C   UNL     1      46.144   5.345  12.052  0.00  0.00    +0.000 A 
ATOM      9  C   UNL     1      45.838   4.086  12.584  0.00  0.00    +0.000 A 
ATOM     10  C   UNL     1      46.244   3.736  13.875  0.00  0.00    +0.000 A 
BRANCH   8  11
ATOM     11  C   UNL     1      45.627   5.715  10.676  0.00  0.00    +0.000 C 
BRANCH  11  12
ATOM     12  C   UNL     1      44.645   4.716  10.055  0.00  0.00    +0.000 C 
BRANCH  12  13
ATOM     13  O   UNL     1      43.318   5.261   9.921  0.00  0.00    +0.000 OA
ATOM     14  H   UNL     1      42.872   4.776   9.200  0.00  0.00    +0.000 HD
ENDBRANCH  12  13
BRANCH  12  15
ATOM     15  C   UNL     1      45.097   4.316   8.647  0.00  0.00    +0.000 C 
ATOM     16  O   UNL     1      46.106   4.709   8.083  0.00  0.00    +0.000 OA
BRANCH  15  17
ATOM     17  O   UNL     1      44.226   3.437   8.082  0.00  0.00    +0.000 OA
ATOM     18  H   UNL     1      44.384   3.428   7.108  0.00  0.00    +0.000 HD
ENDBRANCH  15  17
ENDBRANCH  12  15
ENDBRANCH  11  12
ENDBRANCH   8  11
ENDBRANCH   2   5
BRANCH   1  20
ATOM     19  C   UNL     1      50.033   2.809  17.655  0.00  0.00    +0.000 C 
ATOM     20  C   UNL     1      49.160   4.062  17.723  0.00  0.00    +0.000 C 
BRANCH  20  21
ATOM     21  C   UNL     1      49.857   5.231  18.391  0.00  0.00    +0.000 A 
ATOM     22  C   UNL     1      51.237   5.349  18.447  0.00  0.00    +0.000 A 
ATOM     23  S   UNL     1      51.769   6.792  19.188  0.00  0.00    +0.000 S 
ATOM     24  C   UNL     1      50.173   7.283  19.512  0.00  0.00    +0.000 A 
ATOM     25  N   UNL     1      49.913   8.447  20.165  0.00  0.00    +0.000 NA
ATOM     26  C   UNL     1      48.658   8.674  20.365  0.00  0.00    +0.000 A 
ATOM     27  N   UNL     1      47.638   7.848  19.964  0.00  0.00    +0.000 N 
ATOM     28  C   UNL     1      47.849   6.658  19.303  0.00  0.00    +0.000 A 
ATOM     29  O   UNL     1      46.918   5.919  18.989  0.00  0.00    +0.000 OA
ATOM     30  C   UNL     1      49.248   6.363  19.052  0.00  0.00    +0.000 A 
ATOM     31  H   UNL     1      46.677   8.083  20.169  0.00  0.00    +0.000 HD
ENDBRANCH  20  21
ENDBRANCH   1  20
TORSDOF 8
ENDMDL
MODEL 8
REMARK VINA RESULT:    -6.291      2.569      4.453
REMARK INTER + INTRA:          -9.682
REMARK INTER:                  -9.032
REMARK INTRA:                  -0.649
REMARK UNBOUND:                -0.817
REMARK  Name = 
REMARK  9 active torsions:
REMARK  status: ('A' for Active; 'I' for Inactive)
REMARK    1  A    between atoms: C_1  and  C_2
REMARK    2  A    between atoms: C_2  and  N_3
REMARK    3  A    between atoms: C_2  and  C_18
REMARK    4  A    between atoms: C_4  and  C_6
REMARK    5  A    between atoms: C_9  and  C_10
REMARK    6  A    between atoms: C_10  and  C_11
REMARK    7  A    between atoms: C_11  and  O_12
REMARK    8  A    between atoms: C_11  and  C_13
REMARK    9  A    between atoms: C_13  and  O_15
REMARK                            x       y       z     vdW  Elec       q    Type
REMARK                         _______ _______ _______ _____ _____    ______ ____
ROOT
ATOM      1  N   UNL     1      48.292   5.968  16.270  0.00  0.00    +0.000 N 
ATOM      2  C   UNL     1      47.937   4.759  15.705  0.00  0.00    +0.000 C 
ATOM      3  O   UNL     1      48.235   3.677  16.195  0.00  0.00    +0.000 OA
ATOM      4  H   UNL     1      47.849   6.829  15.964  0.00  0.00    +0.000 HD
ENDROOT
BRANCH   2   5
ATOM      5  C   UNL     1      47.140   4.793  14.444  0.00  0.00    +0.000 A 
ATOM      6  C   UNL     1      46.668   3.642  13.803  0.00  0.00    +0.000 A 
ATOM      7  C   UNL     1      45.894   3.750  12.635  0.00  0.00    +0.000 A 
ATOM      8  C   UNL     1      45.575   5.008  12.098  0.00  0.00    +0.000 A 
ATOM      9  C   UNL     1      46.036   6.153  12.761  0.00  0.00    +0.000 A 
ATOM     10  C   UNL     1      46.803   6.047  13.924  0.00  0.00    +0.000 A 
BRANCH   8  11
ATOM     11  C   UNL     1      44.806   5.160  10.801  0.00  0.00    +0.000 C 
BRANCH  11  12
ATOM     12  C   UNL     1      43.343   4.707  10.850  0.00  0.00    +0.000 C 
BRANCH  12  13
ATOM     13  O   UNL     1      43.213   3.277  10.964  0.00  0.00    +0.000 OA
ATOM     14  H   UNL     1      42.699   2.966  10.194  0.00  0.00    +0.000 HD
ENDBRANCH  12  13
BRANCH  12  15
ATOM     15  C   UNL     1      42.630   5.308  12.066  0.00  0.00    +0.000 C 
ATOM     16  O   UNL     1      42.601   4.825  13.187  0.00  0.00    +0.000 OA
BRANCH  15  17
ATOM     17  O   UNL     1      42.023   6.483  11.749  0.00  0.00    +0.000 OA
ATOM     18  H   UNL     1      42.518   6.896  11.003  0.00  0.00    +0.000 HD
ENDBRANCH  15  17
ENDBRANCH  12  15
ENDBRANCH  11  12
ENDBRANCH   8  11
ENDBRANCH   2   5
BRANCH   1  20
ATOM     19  C   UNL     1      50.540   6.209  17.251  0.00  0.00    +0.000 C 
ATOM     20  C   UNL     1      49.046   6.017  17.510  0.00  0.00    +0.000 C 
BRANCH  20  21
ATOM     21  C   UNL     1      48.467   7.070  18.433  0.00  0.00    +0.000 A 
ATOM     22  C   UNL     1      48.100   6.801  19.743  0.00  0.00    +0.000 A 
ATOM     23  S   UNL     1      47.543   8.174  20.591  0.00  0.00    +0.000 S 
ATOM     24  C   UNL     1      47.718   9.165  19.220  0.00  0.00    +0.000 A 
ATOM     25  N   UNL     1      47.384  10.483  19.257  0.00  0.00    +0.000 NA
ATOM     26  C   UNL     1      47.543  11.101  18.134  0.00  0.00    +0.000 A 
ATOM     27  N   UNL     1      48.015  10.525  16.982  0.00  0.00    +0.000 N 
ATOM     28  C   UNL     1      48.362   9.196  16.892  0.00  0.00    +0.000 A 
ATOM     29  O   UNL     1      48.746   8.697  15.836  0.00  0.00    +0.000 OA
ATOM     30  C   UNL     1      48.204   8.460  18.133  0.00  0.00    +0.000 A 
ATOM     31  H   UNL     1      48.099  11.068  16.134  0.00  0.00    +0.000 HD
ENDBRANCH  20  21
ENDBRANCH   1  20
TORSDOF 8
ENDMDL
MODEL 9
REMARK VINA RESULT:    -6.235      1.795      2.853
REMARK INTER + INTRA:          -9.603
REMARK INTER:                  -8.855
REMARK INTRA:                  -0.749
REMARK UNBOUND:                -0.817
REMARK  Name = 
REMARK  9 active torsions:
REMARK  status: ('A' for Active; 'I' for Inactive)
REMARK    1  A    between atoms: C_1  and  C_2
REMARK    2  A    between atoms: C_2  and  N_3
REMARK    3  A    between atoms: C_2  and  C_18
REMARK    4  A    between atoms: C_4  and  C_6
REMARK    5  A    between atoms: C_9  and  C_10
REMARK    6  A    between atoms: C_10  and  C_11
REMARK    7  A    between atoms: C_11  and  O_12
REMARK    8  A    between atoms: C_11  and  C_13
REMARK    9  A    between atoms: C_13  and  O_15
REMARK                            x       y       z     vdW  Elec       q    Type
REMARK                         _______ _______ _______ _____ _____    ______ ____
ROOT
ATOM      1  N   UNL     1      48.166   5.832  16.317  0.00  0.00    +0.000 N 
ATOM      2  C   UNL     1      48.510   6.201  15.030  0.00  0.00    +0.000 C 
ATOM      3  O   UNL     1      49.591   6.698  14.742  0.00  0.00    +0.000 OA
ATOM      4  H   UNL     1      47.365   5.232  16.483  0.00  0.00    +0.000 HD
ENDROOT
BRANCH   2   5
ATOM      5  C   UNL     1      47.508   5.960  13.952  0.00  0.00    +0.000 A 
ATOM      6  C   UNL     1      47.240   6.881  12.933  0.00  0.00    +0.000 A 
ATOM      7  C   UNL     1      46.305   6.574  11.930  0.00  0.00    +0.000 A 
ATOM      8  C   UNL     1      45.633   5.341  11.926  0.00  0.00    +0.000 A 
ATOM      9  C   UNL     1      45.926   4.418  12.939  0.00  0.00    +0.000 A 
ATOM     10  C   UNL     1      46.857   4.721  13.936  0.00  0.00    +0.000 A 
BRANCH   8  11
ATOM     11  C   UNL     1      44.566   5.006  10.903  0.00  0.00    +0.000 C 
BRANCH  11  12
ATOM     12  C   UNL     1      44.196   3.522  10.805  0.00  0.00    +0.000 C 
BRANCH  12  13
ATOM     13  O   UNL     1      42.819   3.275  11.151  0.00  0.00    +0.000 OA
ATOM     14  H   UNL     1      42.300   3.295  10.324  0.00  0.00    +0.000 HD
ENDBRANCH  12  13
BRANCH  12  15
ATOM     15  C   UNL     1      44.385   3.010   9.374  0.00  0.00    +0.000 C 
ATOM     16  O   UNL     1      44.352   3.691   8.361  0.00  0.00    +0.000 OA
BRANCH  15  17
ATOM     17  O   UNL     1      44.611   1.669   9.357  0.00  0.00    +0.000 OA
ATOM     18  H   UNL     1      43.765   1.215   9.132  0.00  0.00    +0.000 HD
ENDBRANCH  15  17
ENDBRANCH  12  15
ENDBRANCH  11  12
ENDBRANCH   8  11
ENDBRANCH   2   5
BRANCH   1  20
ATOM     19  C   UNL     1      48.371   6.324  18.723  0.00  0.00    +0.000 C 
ATOM     20  C   UNL     1      49.099   6.012  17.416  0.00  0.00    +0.000 C 
BRANCH  20  21
ATOM     21  C   UNL     1      50.017   4.811  17.523  0.00  0.00    +0.000 A 
ATOM     22  C   UNL     1      49.564   3.506  17.399  0.00  0.00    +0.000 A 
ATOM     23  S   UNL     1      50.808   2.341  17.486  0.00  0.00    +0.000 S 
ATOM     24  C   UNL     1      51.989   3.536  17.751  0.00  0.00    +0.000 A 
ATOM     25  N   UNL     1      53.295   3.205  17.937  0.00  0.00    +0.000 NA
ATOM     26  C   UNL     1      54.071   4.214  18.155  0.00  0.00    +0.000 A 
ATOM     27  N   UNL     1      53.662   5.523  18.194  0.00  0.00    +0.000 N 
ATOM     28  C   UNL     1      52.353   5.909  18.015  0.00  0.00    +0.000 A 
ATOM     29  O   UNL     1      52.008   7.086  18.093  0.00  0.00    +0.000 OA
ATOM     30  C   UNL     1      51.442   4.806  17.762  0.00  0.00    +0.000 A 
ATOM     31  H   UNL     1      54.325   6.262  18.385  0.00  0.00    +0.000 HD
ENDBRANCH  20  21
ENDBRANCH   1  20
TORSDOF 8
ENDMDL
