MODEL 1
REMARK VINA RESULT:    -8.434      0.000      0.000
REMARK INTER + INTRA:         -11.388
REMARK INTER:                 -10.899
REMARK INTRA:                  -0.489
REMARK UNBOUND:                -0.489
REMARK  Name = 
REMARK  6 active torsions:
REMARK  status: ('A' for Active; 'I' for Inactive)
REMARK    1  A    between atoms: C_1  and  C_2
REMARK    2  A    between atoms: C_2  and  N_3
REMARK    3  A    between atoms: C_2  and  C_16
REMARK    4  A    between atoms: C_4  and  C_6
REMARK    5  A    between atoms: C_19  and  O_20
REMARK    6  A    between atoms: O_20  and  C_21
REMARK                            x       y       z     vdW  Elec       q    Type
REMARK                         _______ _______ _______ _____ _____    ______ ____
ROOT
ATOM      1  C   UNL     1      43.058   4.769  13.567  0.00  0.00    +0.000 C 
ATOM      2  C   UNL     1      44.425   4.255  13.089  0.00  0.00    +0.000 C 
ENDROOT
BRANCH   2   3
ATOM      3  C   UNL     1      44.578   4.322  11.585  0.00  0.00    +0.000 A 
ATOM      4  C   UNL     1      45.424   5.267  10.990  0.00  0.00    +0.000 A 
ATOM      5  C   UNL     1      45.661   5.226   9.614  0.00  0.00    +0.000 A 
ATOM      6  C   UNL     1      45.013   4.256   8.868  0.00  0.00    +0.000 A 
ATOM      7  N   UNL     1      44.144   3.372   9.402  0.00  0.00    +0.000 NA
ATOM      8  C   UNL     1      43.932   3.435  10.731  0.00  0.00    +0.000 A 
BRANCH   6   9
ATOM      9  O   UNL     1      45.292   4.196   7.512  0.00  0.00    +0.000 OA
BRANCH   9  10
ATOM     10  C   UNL     1      46.206   3.245   7.115  0.00  0.00    +0.000 A 
ATOM     11  C   UNL     1      46.434   2.075   7.838  0.00  0.00    +0.000 A 
ATOM     12  N   UNL     1      47.296   1.107   7.437  0.00  0.00    +0.000 NA
ATOM     13  C   UNL     1      47.922   1.360   6.268  0.00  0.00    +0.000 A 
ATOM     14  C   UNL     1      47.679   2.506   5.526  0.00  0.00    +0.000 A 
ATOM     15  N   UNL     1      46.806   3.465   5.919  0.00  0.00    +0.000 NA
ENDBRANCH   9  10
ENDBRANCH   6   9
ENDBRANCH   2   3
BRANCH   2  16
ATOM     16  N   UNL     1      45.492   4.982  13.742  0.00  0.00    +0.000 N 
ATOM     17  C   UNL     1      46.642   4.358  14.165  0.00  0.00    +0.000 C 
ATOM     18  O   UNL     1      46.939   3.219  13.823  0.00  0.00    +0.000 OA
ATOM     19  H   UNL     1      45.224   5.850  14.194  0.00  0.00    +0.000 HD
BRANCH  17  20
ATOM     20  C   UNL     1      47.516   5.150  15.035  0.00  0.00    +0.000 A 
ATOM     21  C   UNL     1      48.239   6.217  14.522  0.00  0.00    +0.000 A 
ATOM     22  S   UNL     1      49.217   6.996  15.684  0.00  0.00    +0.000 S 
ATOM     23  C   UNL     1      48.756   5.893  16.894  0.00  0.00    +0.000 A 
ATOM     24  N   UNL     1      49.292   5.955  18.143  0.00  0.00    +0.000 NA
ATOM     25  C   UNL     1      48.885   5.026  18.943  0.00  0.00    +0.000 A 
ATOM     26  N   UNL     1      47.971   4.052  18.617  0.00  0.00    +0.000 N 
ATOM     27  C   UNL     1      47.351   3.998  17.392  0.00  0.00    +0.000 A 
ATOM     28  O   UNL     1      46.443   3.201  17.175  0.00  0.00    +0.000 OA
ATOM     29  C   UNL     1      47.823   4.979  16.434  0.00  0.00    +0.000 A 
ATOM     30  H   UNL     1      47.671   3.384  19.303  0.00  0.00    +0.000 HD
ENDBRANCH  17  20
ENDBRANCH   2  16
TORSDOF 5
ENDMDL
MODEL 2
REMARK VINA RESULT:    -7.801      2.086      2.950
REMARK INTER + INTRA:         -10.571
REMARK INTER:                 -10.524
REMARK INTRA:                  -0.046
REMARK UNBOUND:                -0.489
REMARK  Name = 
REMARK  6 active torsions:
REMARK  status: ('A' for Active; 'I' for Inactive)
REMARK    1  A    between atoms: C_1  and  C_2
REMARK    2  A    between atoms: C_2  and  N_3
REMARK    3  A    between atoms: C_2  and  C_16
REMARK    4  A    between atoms: C_4  and  C_6
REMARK    5  A    between atoms: C_19  and  O_20
REMARK    6  A    between atoms: O_20  and  C_21
REMARK                            x       y       z     vdW  Elec       q    Type
REMARK                         _______ _______ _______ _____ _____    ______ ____
ROOT
ATOM      1  C   UNL     1      47.761   9.097  12.296  0.00  0.00    +0.000 C 
ATOM      2  C   UNL     1      46.718   8.336  13.128  0.00  0.00    +0.000 C 
ENDROOT
BRANCH   2   3
ATOM      3  C   UNL     1      46.098   7.182  12.370  0.00  0.00    +0.000 A 
ATOM      4  C   UNL     1      44.930   6.562  12.832  0.00  0.00    +0.000 A 
ATOM      5  C   UNL     1      44.296   5.593  12.051  0.00  0.00    +0.000 A 
ATOM      6  C   UNL     1      44.872   5.250  10.840  0.00  0.00    +0.000 A 
ATOM      7  N   UNL     1      46.030   5.783  10.395  0.00  0.00    +0.000 NA
ATOM      8  C   UNL     1      46.622   6.714  11.170  0.00  0.00    +0.000 A 
BRANCH   6   9
ATOM      9  O   UNL     1      44.209   4.322  10.053  0.00  0.00    +0.000 OA
BRANCH   9  10
ATOM     10  C   UNL     1      44.989   3.570   9.203  0.00  0.00    +0.000 A 
ATOM     11  C   UNL     1      45.226   2.211   9.407  0.00  0.00    +0.000 A 
ATOM     12  N   UNL     1      45.952   1.445   8.555  0.00  0.00    +0.000 NA
ATOM     13  C   UNL     1      46.432   2.101   7.477  0.00  0.00    +0.000 A 
ATOM     14  C   UNL     1      46.175   3.445   7.249  0.00  0.00    +0.000 A 
ATOM     15  N   UNL     1      45.436   4.206   8.092  0.00  0.00    +0.000 NA
ENDBRANCH   9  10
ENDBRANCH   6   9
ENDBRANCH   2   3
BRANCH   2  16
ATOM     16  N   UNL     1      47.303   7.874  14.368  0.00  0.00    +0.000 N 
ATOM     17  C   UNL     1      48.363   6.998  14.387  0.00  0.00    +0.000 C 
ATOM     18  O   UNL     1      49.020   6.734  13.387  0.00  0.00    +0.000 OA
ATOM     19  H   UNL     1      46.702   7.917  15.184  0.00  0.00    +0.000 HD
BRANCH  17  20
ATOM     20  C   UNL     1      48.685   6.414  15.693  0.00  0.00    +0.000 A 
ATOM     21  C   UNL     1      49.622   7.015  16.521  0.00  0.00    +0.000 A 
ATOM     22  S   UNL     1      49.879   6.171  17.982  0.00  0.00    +0.000 S 
ATOM     23  C   UNL     1      48.794   4.942  17.528  0.00  0.00    +0.000 A 
ATOM     24  N   UNL     1      48.592   3.854  18.319  0.00  0.00    +0.000 NA
ATOM     25  C   UNL     1      47.779   2.980  17.826  0.00  0.00    +0.000 A 
ATOM     26  N   UNL     1      47.127   3.105  16.622  0.00  0.00    +0.000 N 
ATOM     27  C   UNL     1      47.244   4.220  15.827  0.00  0.00    +0.000 A 
ATOM     28  O   UNL     1      46.549   4.362  14.826  0.00  0.00    +0.000 OA
ATOM     29  C   UNL     1      48.199   5.202  16.304  0.00  0.00    +0.000 A 
ATOM     30  H   UNL     1      46.477   2.402  16.319  0.00  0.00    +0.000 HD
ENDBRANCH  17  20
ENDBRANCH   2  16
TORSDOF 5
ENDMDL
MODEL 3
REMARK VINA RESULT:    -7.276      2.642      4.184
REMARK INTER + INTRA:          -9.892
REMARK INTER:                  -8.849
REMARK INTRA:                  -1.043
REMARK UNBOUND:                -0.489
REMARK  Name = 
REMARK  6 active torsions:
REMARK  status: ('A' for Active; 'I' for Inactive)
REMARK    1  A    between atoms: C_1  and  C_2
REMARK    2  A    between atoms: C_2  and  N_3
REMARK    3  A    between atoms: C_2  and  C_16
REMARK    4  A    between atoms: C_4  and  C_6
REMARK    5  A    between atoms: C_19  and  O_20
REMARK    6  A    between atoms: O_20  and  C_21
REMARK                            x       y       z     vdW  Elec       q    Type
REMARK                         _______ _______ _______ _____ _____    ______ ____
ROOT
ATOM      1  C   UNL     1      49.148   8.347  13.984  0.00  0.00    +0.000 C 
ATOM      2  C   UNL     1      48.280   7.291  14.684  0.00  0.00    +0.000 C 
ENDROOT
BRANCH   2   3
ATOM      3  C   UNL     1      47.337   6.589  13.731  0.00  0.00    +0.000 A 
ATOM      4  C   UNL     1      47.221   5.192  13.732  0.00  0.00    +0.000 A 
ATOM      5  C   UNL     1      46.248   4.570  12.947  0.00  0.00    +0.000 A 
ATOM      6  C   UNL     1      45.439   5.367  12.156  0.00  0.00    +0.000 A 
ATOM      7  N   UNL     1      45.567   6.709  12.084  0.00  0.00    +0.000 NA
ATOM      8  C   UNL     1      46.515   7.284  12.850  0.00  0.00    +0.000 A 
BRANCH   6   9
ATOM      9  O   UNL     1      44.448   4.742  11.417  0.00  0.00    +0.000 OA
BRANCH   9  10
ATOM     10  C   UNL     1      44.838   4.169  10.227  0.00  0.00    +0.000 A 
ATOM     11  C   UNL     1      45.454   4.896   9.209  0.00  0.00    +0.000 A 
ATOM     12  N   UNL     1      45.887   4.338   8.051  0.00  0.00    +0.000 NA
ATOM     13  C   UNL     1      45.679   3.008   7.955  0.00  0.00    +0.000 A 
ATOM     14  C   UNL     1      45.096   2.270   8.974  0.00  0.00    +0.000 A 
ATOM     15  N   UNL     1      44.679   2.825  10.138  0.00  0.00    +0.000 NA
ENDBRANCH   9  10
ENDBRANCH   6   9
ENDBRANCH   2   3
BRANCH   2  16
ATOM     16  N   UNL     1      49.115   6.331  15.373  0.00  0.00    +0.000 N 
ATOM     17  C   UNL     1      49.265   6.350  16.740  0.00  0.00    +0.000 C 
ATOM     18  O   UNL     1      48.542   7.013  17.475  0.00  0.00    +0.000 OA
ATOM     19  H   UNL     1      49.846   5.900  14.817  0.00  0.00    +0.000 HD
BRANCH  17  20
ATOM     20  C   UNL     1      50.332   5.499  17.277  0.00  0.00    +0.000 A 
ATOM     21  C   UNL     1      51.465   6.065  17.843  0.00  0.00    +0.000 A 
ATOM     22  S   UNL     1      52.601   4.912  18.385  0.00  0.00    +0.000 S 
ATOM     23  C   UNL     1      51.644   3.622  17.824  0.00  0.00    +0.000 A 
ATOM     24  N   UNL     1      52.074   2.335  17.918  0.00  0.00    +0.000 NA
ATOM     25  C   UNL     1      51.266   1.466  17.409  0.00  0.00    +0.000 A 
ATOM     26  N   UNL     1      50.053   1.762  16.834  0.00  0.00    +0.000 N 
ATOM     27  C   UNL     1      49.548   3.038  16.786  0.00  0.00    +0.000 A 
ATOM     28  O   UNL     1      48.406   3.255  16.388  0.00  0.00    +0.000 OA
ATOM     29  C   UNL     1      50.447   4.062  17.284  0.00  0.00    +0.000 A 
ATOM     30  H   UNL     1      49.458   1.029  16.493  0.00  0.00    +0.000 HD
ENDBRANCH  17  20
ENDBRANCH   2  16
TORSDOF 5
ENDMDL
MODEL 4
REMARK VINA RESULT:    -7.209      3.919      8.499
REMARK INTER + INTRA:          -9.805
REMARK INTER:                  -8.814
REMARK INTRA:                  -0.991
REMARK UNBOUND:                -0.489
REMARK  Name = 
REMARK  6 active torsions:
REMARK  status: ('A' for Active; 'I' for Inactive)
REMARK    1  A    between atoms: C_1  and  C_2
REMARK    2  A    between atoms: C_2  and  N_3
REMARK    3  A    between atoms: C_2  and  C_16
REMARK    4  A    between atoms: C_4  and  C_6
REMARK    5  A    between atoms: C_19  and  O_20
REMARK    6  A    between atoms: O_20  and  C_21
REMARK                            x       y       z     vdW  Elec       q    Type
REMARK                         _______ _______ _______ _____ _____    ______ ____
ROOT
ATOM      1  C   UNL     1      48.571   9.576  15.435  0.00  0.00    +0.000 C 
ATOM      2  C   UNL     1      48.895   8.151  14.961  0.00  0.00    +0.000 C 
ENDROOT
BRANCH   2   3
ATOM      3  C   UNL     1      49.455   7.283  16.066  0.00  0.00    +0.000 A 
ATOM      4  C   UNL     1      48.671   6.932  17.173  0.00  0.00    +0.000 A 
ATOM      5  C   UNL     1      49.155   6.019  18.112  0.00  0.00    +0.000 A 
ATOM      6  C   UNL     1      50.428   5.509  17.931  0.00  0.00    +0.000 A 
ATOM      7  N   UNL     1      51.233   5.874  16.910  0.00  0.00    +0.000 NA
ATOM      8  C   UNL     1      50.742   6.758  16.020  0.00  0.00    +0.000 A 
BRANCH   6   9
ATOM      9  O   UNL     1      50.879   4.569  18.844  0.00  0.00    +0.000 OA
BRANCH   9  10
ATOM     10  C   UNL     1      51.301   3.364  18.327  0.00  0.00    +0.000 A 
ATOM     11  C   UNL     1      50.474   2.545  17.561  0.00  0.00    +0.000 A 
ATOM     12  N   UNL     1      50.886   1.378  17.006  0.00  0.00    +0.000 NA
ATOM     13  C   UNL     1      52.177   1.065  17.248  0.00  0.00    +0.000 A 
ATOM     14  C   UNL     1      53.017   1.888  17.983  0.00  0.00    +0.000 A 
ATOM     15  N   UNL     1      52.609   3.062  18.524  0.00  0.00    +0.000 NA
ENDBRANCH   9  10
ENDBRANCH   6   9
ENDBRANCH   2   3
BRANCH   2  16
ATOM     16  N   UNL     1      47.722   7.538  14.377  0.00  0.00    +0.000 N 
ATOM     17  C   UNL     1      47.806   6.710  13.282  0.00  0.00    +0.000 C 
ATOM     18  O   UNL     1      48.870   6.258  12.875  0.00  0.00    +0.000 OA
ATOM     19  H   UNL     1      46.841   8.007  14.555  0.00  0.00    +0.000 HD
BRANCH  17  20
ATOM     20  C   UNL     1      46.533   6.370  12.638  0.00  0.00    +0.000 A 
ATOM     21  C   UNL     1      45.753   7.358  12.055  0.00  0.00    +0.000 A 
ATOM     22  S   UNL     1      44.299   6.768  11.384  0.00  0.00    +0.000 S 
ATOM     23  C   UNL     1      44.633   5.185  11.908  0.00  0.00    +0.000 A 
ATOM     24  N   UNL     1      43.743   4.175  11.710  0.00  0.00    +0.000 NA
ATOM     25  C   UNL     1      44.109   3.039  12.203  0.00  0.00    +0.000 A 
ATOM     26  N   UNL     1      45.297   2.810  12.854  0.00  0.00    +0.000 N 
ATOM     27  C   UNL     1      46.256   3.782  13.010  0.00  0.00    +0.000 A 
ATOM     28  O   UNL     1      47.360   3.516  13.476  0.00  0.00    +0.000 OA
ATOM     29  C   UNL     1      45.866   5.095  12.534  0.00  0.00    +0.000 A 
ATOM     30  H   UNL     1      45.533   1.889  13.177  0.00  0.00    +0.000 HD
ENDBRANCH  17  20
ENDBRANCH   2  16
TORSDOF 5
ENDMDL
MODEL 5
REMARK VINA RESULT:    -7.208      3.945      8.934
REMARK INTER + INTRA:          -9.803
REMARK INTER:                  -9.274
REMARK INTRA:                  -0.530
REMARK UNBOUND:                -0.489
REMARK  Name = 
REMARK  6 active torsions:
REMARK  status: ('A' for Active; 'I' for Inactive)
REMARK    1  A    between atoms: C_1  and  C_2
REMARK    2  A    between atoms: C_2  and  N_3
REMARK    3  A    between atoms: C_2  and  C_16
REMARK    4  A    between atoms: C_4  and  C_6
REMARK    5  A    between atoms: C_19  and  O_20
REMARK    6  A    between atoms: O_20  and  C_21
REMARK                            x       y       z     vdW  Elec       q    Type
REMARK                         _______ _______ _______ _____ _____    ______ ____
ROOT
ATOM      1  C   UNL     1      47.195   5.013  18.253  0.00  0.00    +0.000 C 
ATOM      2  C   UNL     1      48.196   5.179  17.100  0.00  0.00    +0.000 C 
ENDROOT
BRANCH   2   3
ATOM      3  C   UNL     1      49.279   4.122  17.112  0.00  0.00    +0.000 A 
ATOM      4  C   UNL     1      50.553   4.403  17.624  0.00  0.00    +0.000 A 
ATOM      5  C   UNL     1      51.495   3.381  17.756  0.00  0.00    +0.000 A 
ATOM      6  C   UNL     1      51.142   2.109  17.339  0.00  0.00    +0.000 A 
ATOM      7  N   UNL     1      49.946   1.819  16.783  0.00  0.00    +0.000 NA
ATOM      8  C   UNL     1      49.056   2.824  16.666  0.00  0.00    +0.000 A 
BRANCH   6   9
ATOM      9  O   UNL     1      52.069   1.094  17.517  0.00  0.00    +0.000 OA
BRANCH   9  10
ATOM     10  C   UNL     1      53.338   1.480  17.888  0.00  0.00    +0.000 A 
ATOM     11  C   UNL     1      54.309   1.855  16.961  0.00  0.00    +0.000 A 
ATOM     12  N   UNL     1      55.549   2.282  17.310  0.00  0.00    +0.000 NA
ATOM     13  C   UNL     1      55.775   2.323  18.640  0.00  0.00    +0.000 A 
ATOM     14  C   UNL     1      54.806   1.982  19.571  0.00  0.00    +0.000 A 
ATOM     15  N   UNL     1      53.563   1.571  19.222  0.00  0.00    +0.000 NA
ENDBRANCH   9  10
ENDBRANCH   6   9
ENDBRANCH   2   3
BRANCH   2  16
ATOM     16  N   UNL     1      47.503   5.182  15.830  0.00  0.00    +0.000 N 
ATOM     17  C   UNL     1      47.961   5.910  14.756  0.00  0.00    +0.000 C 
ATOM     18  O   UNL     1      49.080   6.408  14.724  0.00  0.00    +0.000 OA
ATOM     19  H   UNL     1      46.518   4.946  15.863  0.00  0.00    +0.000 HD
BRANCH  17  20
ATOM     20  C   UNL     1      47.034   6.033  13.626  0.00  0.00    +0.000 A 
ATOM     21  C   UNL     1      46.729   7.279  13.099  0.00  0.00    +0.000 A 
ATOM     22  S   UNL     1      45.614   7.217  11.809  0.00  0.00    +0.000 S 
ATOM     23  C   UNL     1      45.453   5.529  11.955  0.00  0.00    +0.000 A 
ATOM     24  N   UNL     1      44.582   4.835  11.174  0.00  0.00    +0.000 NA
ATOM     25  C   UNL     1      44.531   3.570  11.429  0.00  0.00    +0.000 A 
ATOM     26  N   UNL     1      45.291   2.927  12.377  0.00  0.00    +0.000 N 
ATOM     27  C   UNL     1      46.235   3.577  13.135  0.00  0.00    +0.000 A 
ATOM     28  O   UNL     1      46.991   2.956  13.877  0.00  0.00    +0.000 OA
ATOM     29  C   UNL     1      46.284   5.013  12.936  0.00  0.00    +0.000 A 
ATOM     30  H   UNL     1      45.228   1.932  12.493  0.00  0.00    +0.000 HD
ENDBRANCH  17  20
ENDBRANCH   2  16
TORSDOF 5
ENDMDL
MODEL 6
REMARK VINA RESULT:    -7.123      2.583      3.766
REMARK INTER + INTRA:          -9.694
REMARK INTER:                  -8.799
REMARK INTRA:                  -0.895
REMARK UNBOUND:                -0.489
REMARK  Name = 
REMARK  6 active torsions:
REMARK  status: ('A' for Active; 'I' for Inactive)
REMARK    1  A    between atoms: C_1  and  C_2
REMARK    2  A    between atoms: C_2  and  N_3
REMARK    3  A    between atoms: C_2  and  C_16
REMARK    4  A    between atoms: C_4  and  C_6
REMARK    5  A    between atoms: C_19  and  O_20
REMARK    6  A    between atoms: O_20  and  C_21
REMARK                            x       y       z     vdW  Elec       q    Type
REMARK                         _______ _______ _______ _____ _____    ______ ____
ROOT
ATOM      1  C   UNL     1      49.489   7.387  13.372  0.00  0.00    +0.000 C 
ATOM      2  C   UNL     1      48.077   7.851  13.760  0.00  0.00    +0.000 C 
ENDROOT
BRANCH   2   3
ATOM      3  C   UNL     1      46.994   7.122  12.996  0.00  0.00    +0.000 A 
ATOM      4  C   UNL     1      46.100   7.819  12.173  0.00  0.00    +0.000 A 
ATOM      5  C   UNL     1      45.198   7.120  11.369  0.00  0.00    +0.000 A 
ATOM      6  C   UNL     1      45.196   5.738  11.439  0.00  0.00    +0.000 A 
ATOM      7  N   UNL     1      46.000   5.038  12.267  0.00  0.00    +0.000 NA
ATOM      8  C   UNL     1      46.860   5.738  13.034  0.00  0.00    +0.000 A 
BRANCH   6   9
ATOM      9  O   UNL     1      44.329   5.053  10.602  0.00  0.00    +0.000 OA
BRANCH   9  10
ATOM     10  C   UNL     1      44.901   4.167   9.716  0.00  0.00    +0.000 A 
ATOM     11  C   UNL     1      44.708   2.789   9.802  0.00  0.00    +0.000 A 
ATOM     12  N   UNL     1      45.226   1.906   8.912  0.00  0.00    +0.000 NA
ATOM     13  C   UNL     1      45.948   2.467   7.920  0.00  0.00    +0.000 A 
ATOM     14  C   UNL     1      46.121   3.838   7.807  0.00  0.00    +0.000 A 
ATOM     15  N   UNL     1      45.590   4.721   8.687  0.00  0.00    +0.000 NA
ENDBRANCH   9  10
ENDBRANCH   6   9
ENDBRANCH   2   3
BRANCH   2  16
ATOM     16  N   UNL     1      47.877   7.710  15.186  0.00  0.00    +0.000 N 
ATOM     17  C   UNL     1      48.594   8.450  16.096  0.00  0.00    +0.000 C 
ATOM     18  O   UNL     1      49.269   9.421  15.773  0.00  0.00    +0.000 OA
ATOM     19  H   UNL     1      47.481   6.827  15.493  0.00  0.00    +0.000 HD
BRANCH  17  20
ATOM     20  C   UNL     1      48.482   8.026  17.496  0.00  0.00    +0.000 A 
ATOM     21  C   UNL     1      48.197   8.950  18.490  0.00  0.00    +0.000 A 
ATOM     22  S   UNL     1      48.135   8.269  20.054  0.00  0.00    +0.000 S 
ATOM     23  C   UNL     1      48.550   6.729  19.460  0.00  0.00    +0.000 A 
ATOM     24  N   UNL     1      48.732   5.676  20.302  0.00  0.00    +0.000 NA
ATOM     25  C   UNL     1      49.091   4.583  19.716  0.00  0.00    +0.000 A 
ATOM     26  N   UNL     1      49.262   4.437  18.360  0.00  0.00    +0.000 N 
ATOM     27  C   UNL     1      49.017   5.452  17.469  0.00  0.00    +0.000 A 
ATOM     28  O   UNL     1      49.048   5.256  16.257  0.00  0.00    +0.000 OA
ATOM     29  C   UNL     1      48.676   6.722  18.080  0.00  0.00    +0.000 A 
ATOM     30  H   UNL     1      49.505   3.544  17.970  0.00  0.00    +0.000 HD
ENDBRANCH  17  20
ENDBRANCH   2  16
TORSDOF 5
ENDMDL
MODEL 7
REMARK VINA RESULT:    -6.729      3.307      4.962
REMARK INTER + INTRA:          -9.185
REMARK INTER:                  -8.145
REMARK INTRA:                  -1.040
REMARK UNBOUND:                -0.489
REMARK  Name = 
REMARK  6 active torsions:
REMARK  status: ('A' for Active; 'I' for Inactive)
REMARK    1  A    between atoms: C_1  and  C_2
REMARK    2  A    between atoms: C_2  and  N_3
REMARK    3  A    between atoms: C_2  and  C_16
REMARK    4  A    between atoms: C_4  and  C_6
REMARK    5  A    between atoms: C_19  and  O_20
REMARK    6  A    between atoms: O_20  and  C_21
REMARK                            x       y       z     vdW  Elec       q    Type
REMARK                         _______ _______ _______ _____ _____    ______ ____
ROOT
ATOM      1  C   UNL     1      50.071   9.152  12.541  0.00  0.00    +0.000 C 
ATOM      2  C   UNL     1      49.035   8.627  13.547  0.00  0.00    +0.000 C 
ENDROOT
BRANCH   2   3
ATOM      3  C   UNL     1      47.756   8.170  12.880  0.00  0.00    +0.000 A 
ATOM      4  C   UNL     1      47.774   7.166  11.902  0.00  0.00    +0.000 A 
ATOM      5  C   UNL     1      46.574   6.660  11.398  0.00  0.00    +0.000 A 
ATOM      6  C   UNL     1      45.389   7.200  11.866  0.00  0.00    +0.000 A 
ATOM      7  N   UNL     1      45.339   8.210  12.760  0.00  0.00    +0.000 NA
ATOM      8  C   UNL     1      46.511   8.681  13.229  0.00  0.00    +0.000 A 
BRANCH   6   9
ATOM      9  O   UNL     1      44.205   6.657  11.393  0.00  0.00    +0.000 OA
BRANCH   9  10
ATOM     10  C   UNL     1      44.011   5.312  11.621  0.00  0.00    +0.000 A 
ATOM     11  C   UNL     1      43.709   4.802  12.883  0.00  0.00    +0.000 A 
ATOM     12  N   UNL     1      43.470   3.487  13.118  0.00  0.00    +0.000 NA
ATOM     13  C   UNL     1      43.541   2.699  12.025  0.00  0.00    +0.000 A 
ATOM     14  C   UNL     1      43.809   3.201  10.760  0.00  0.00    +0.000 A 
ATOM     15  N   UNL     1      44.032   4.517  10.524  0.00  0.00    +0.000 NA
ENDBRANCH   9  10
ENDBRANCH   6   9
ENDBRANCH   2   3
BRANCH   2  16
ATOM     16  N   UNL     1      49.603   7.560  14.342  0.00  0.00    +0.000 N 
ATOM     17  C   UNL     1      49.572   7.585  15.717  0.00  0.00    +0.000 C 
ATOM     18  O   UNL     1      48.878   8.373  16.348  0.00  0.00    +0.000 OA
ATOM     19  H   UNL     1      50.321   7.004  13.890  0.00  0.00    +0.000 HD
BRANCH  17  20
ATOM     20  C   UNL     1      50.405   6.585  16.393  0.00  0.00    +0.000 A 
ATOM     21  C   UNL     1      51.750   6.830  16.625  0.00  0.00    +0.000 A 
ATOM     22  S   UNL     1      52.553   5.538  17.398  0.00  0.00    +0.000 S 
ATOM     23  C   UNL     1      51.145   4.583  17.389  0.00  0.00    +0.000 A 
ATOM     24  N   UNL     1      51.157   3.306  17.855  0.00  0.00    +0.000 NA
ATOM     25  C   UNL     1      50.030   2.687  17.742  0.00  0.00    +0.000 A 
ATOM     26  N   UNL     1      48.880   3.236  17.228  0.00  0.00    +0.000 N 
ATOM     27  C   UNL     1      48.803   4.544  16.815  0.00  0.00    +0.000 A 
ATOM     28  O   UNL     1      47.731   5.044  16.486  0.00  0.00    +0.000 OA
ATOM     29  C   UNL     1      50.061   5.264  16.858  0.00  0.00    +0.000 A 
ATOM     30  H   UNL     1      48.027   2.707  17.206  0.00  0.00    +0.000 HD
ENDBRANCH  17  20
ENDBRANCH   2  16
TORSDOF 5
ENDMDL
MODEL 8
REMARK VINA RESULT:    -6.518      3.761      5.542
REMARK INTER + INTRA:          -8.912
REMARK INTER:                  -7.839
REMARK INTRA:                  -1.073
REMARK UNBOUND:                -0.489
REMARK  Name = 
REMARK  6 active torsions:
REMARK  status: ('A' for Active; 'I' for Inactive)
REMARK    1  A    between atoms: C_1  and  C_2
REMARK    2  A    between atoms: C_2  and  N_3
REMARK    3  A    between atoms: C_2  and  C_16
REMARK    4  A    between atoms: C_4  and  C_6
REMARK    5  A    between atoms: C_19  and  O_20
REMARK    6  A    between atoms: O_20  and  C_21
REMARK                            x       y       z     vdW  Elec       q    Type
REMARK                         _______ _______ _______ _____ _____    ______ ____
ROOT
ATOM      1  C   UNL     1      50.234   8.625  12.349  0.00  0.00    +0.000 C 
ATOM      2  C   UNL     1      49.158   8.344  13.409  0.00  0.00    +0.000 C 
ENDROOT
BRANCH   2   3
ATOM      3  C   UNL     1      47.811   8.019  12.800  0.00  0.00    +0.000 A 
ATOM      4  C   UNL     1      47.687   7.033  11.813  0.00  0.00    +0.000 A 
ATOM      5  C   UNL     1      46.423   6.649  11.362  0.00  0.00    +0.000 A 
ATOM      6  C   UNL     1      45.317   7.291  11.893  0.00  0.00    +0.000 A 
ATOM      7  N   UNL     1      45.406   8.288  12.799  0.00  0.00    +0.000 NA
ATOM      8  C   UNL     1      46.638   8.640  13.215  0.00  0.00    +0.000 A 
BRANCH   6   9
ATOM      9  O   UNL     1      44.066   6.869  11.472  0.00  0.00    +0.000 OA
BRANCH   9  10
ATOM     10  C   UNL     1      43.799   5.523  11.594  0.00  0.00    +0.000 A 
ATOM     11  C   UNL     1      43.707   4.673  10.493  0.00  0.00    +0.000 A 
ATOM     12  N   UNL     1      43.490   3.338  10.598  0.00  0.00    +0.000 NA
ATOM     13  C   UNL     1      43.374   2.885  11.864  0.00  0.00    +0.000 A 
ATOM     14  C   UNL     1      43.495   3.717  12.967  0.00  0.00    +0.000 A 
ATOM     15  N   UNL     1      43.728   5.048  12.862  0.00  0.00    +0.000 NA
ENDBRANCH   9  10
ENDBRANCH   6   9
ENDBRANCH   2   3
BRANCH   2  16
ATOM     16  N   UNL     1      49.587   7.281  14.291  0.00  0.00    +0.000 N 
ATOM     17  C   UNL     1      49.393   7.344  15.651  0.00  0.00    +0.000 C 
ATOM     18  O   UNL     1      48.657   8.171  16.176  0.00  0.00    +0.000 OA
ATOM     19  H   UNL     1      50.333   6.689  13.941  0.00  0.00    +0.000 HD
BRANCH  17  20
ATOM     20  C   UNL     1      50.101   6.335  16.446  0.00  0.00    +0.000 A 
ATOM     21  C   UNL     1      49.395   5.439  17.235  0.00  0.00    +0.000 A 
ATOM     22  S   UNL     1      50.396   4.363  18.103  0.00  0.00    +0.000 S 
ATOM     23  C   UNL     1      51.806   5.101  17.502  0.00  0.00    +0.000 A 
ATOM     24  N   UNL     1      53.040   4.697  17.908  0.00  0.00    +0.000 NA
ATOM     25  C   UNL     1      54.015   5.379  17.406  0.00  0.00    +0.000 A 
ATOM     26  N   UNL     1      53.873   6.415  16.514  0.00  0.00    +0.000 N 
ATOM     27  C   UNL     1      52.652   6.806  16.021  0.00  0.00    +0.000 A 
ATOM     28  O   UNL     1      52.566   7.643  15.127  0.00  0.00    +0.000 OA
ATOM     29  C   UNL     1      51.517   6.117  16.605  0.00  0.00    +0.000 A 
ATOM     30  H   UNL     1      54.680   6.876  16.134  0.00  0.00    +0.000 HD
ENDBRANCH  17  20
ENDBRANCH   2  16
TORSDOF 5
ENDMDL
MODEL 9
REMARK VINA RESULT:    -6.473      5.252      7.738
REMARK INTER + INTRA:          -8.854
REMARK INTER:                  -7.853
REMARK INTRA:                  -1.002
REMARK UNBOUND:                -0.489
REMARK  Name = 
REMARK  6 active torsions:
REMARK  status: ('A' for Active; 'I' for Inactive)
REMARK    1  A    between atoms: C_1  and  C_2
REMARK    2  A    between atoms: C_2  and  N_3
REMARK    3  A    between atoms: C_2  and  C_16
REMARK    4  A    between atoms: C_4  and  C_6
REMARK    5  A    between atoms: C_19  and  O_20
REMARK    6  A    between atoms: O_20  and  C_21
REMARK                            x       y       z     vdW  Elec       q    Type
REMARK                         _______ _______ _______ _____ _____    ______ ____
ROOT
ATOM      1  C   UNL     1      48.195   6.605  14.691  0.00  0.00    +0.000 C 
ATOM      2  C   UNL     1      48.189   7.245  13.294  0.00  0.00    +0.000 C 
ENDROOT
BRANCH   2   3
ATOM      3  C   UNL     1      49.574   7.643  12.831  0.00  0.00    +0.000 A 
ATOM      4  C   UNL     1      49.903   7.649  11.469  0.00  0.00    +0.000 A 
ATOM      5  C   UNL     1      51.137   8.150  11.050  0.00  0.00    +0.000 A 
ATOM      6  C   UNL     1      52.021   8.601  12.014  0.00  0.00    +0.000 A 
ATOM      7  N   UNL     1      51.760   8.550  13.338  0.00  0.00    +0.000 NA
ATOM      8  C   UNL     1      50.563   8.060  13.715  0.00  0.00    +0.000 A 
BRANCH   6   9
ATOM      9  O   UNL     1      53.223   9.139  11.582  0.00  0.00    +0.000 OA
BRANCH   9  10
ATOM     10  C   UNL     1      54.106   8.267  10.984  0.00  0.00    +0.000 A 
ATOM     11  C   UNL     1      54.684   7.198  11.668  0.00  0.00    +0.000 A 
ATOM     12  N   UNL     1      55.519   6.303  11.083  0.00  0.00    +0.000 NA
ATOM     13  C   UNL     1      55.749   6.522   9.771  0.00  0.00    +0.000 A 
ATOM     14  C   UNL     1      55.155   7.564   9.075  0.00  0.00    +0.000 A 
ATOM     15  N   UNL     1      54.308   8.448   9.656  0.00  0.00    +0.000 NA
ENDBRANCH   9  10
ENDBRANCH   6   9
ENDBRANCH   2   3
BRANCH   2  16
ATOM     16  N   UNL     1      47.569   6.355  12.337  0.00  0.00    +0.000 N 
ATOM     17  C   UNL     1      46.416   6.698  11.670  0.00  0.00    +0.000 C 
ATOM     18  O   UNL     1      45.971   7.840  11.663  0.00  0.00    +0.000 OA
ATOM     19  H   UNL     1      47.786   5.370  12.442  0.00  0.00    +0.000 HD
BRANCH  17  20
ATOM     20  C   UNL     1      45.757   5.614  10.934  0.00  0.00    +0.000 A 
ATOM     21  C   UNL     1      45.772   5.594   9.547  0.00  0.00    +0.000 A 
ATOM     22  S   UNL     1      44.929   4.270   8.877  0.00  0.00    +0.000 S 
ATOM     23  C   UNL     1      44.463   3.716  10.417  0.00  0.00    +0.000 A 
ATOM     24  N   UNL     1      43.653   2.632  10.559  0.00  0.00    +0.000 NA
ATOM     25  C   UNL     1      43.343   2.356  11.782  0.00  0.00    +0.000 A 
ATOM     26  N   UNL     1      43.789   3.050  12.882  0.00  0.00    +0.000 N 
ATOM     27  C   UNL     1      44.666   4.103  12.788  0.00  0.00    +0.000 A 
ATOM     28  O   UNL     1      45.150   4.617  13.792  0.00  0.00    +0.000 OA
ATOM     29  C   UNL     1      44.992   4.497  11.431  0.00  0.00    +0.000 A 
ATOM     30  H   UNL     1      43.537   2.754  13.808  0.00  0.00    +0.000 HD
ENDBRANCH  17  20
ENDBRANCH   2  16
TORSDOF 5
ENDMDL
