MODEL 1
REMARK VINA RESULT:    -9.035      0.000      0.000
REMARK INTER + INTRA:         -12.420
REMARK INTER:                 -12.204
REMARK INTRA:                  -0.216
REMARK UNBOUND:                -0.216
REMARK  Name = 
REMARK  6 active torsions:
REMARK  status: ('A' for Active; 'I' for Inactive)
REMARK    1  A    between atoms: C_2  and  C_5
REMARK    2  A    between atoms: C_9  and  N_10
REMARK    3  A    between atoms: N_10  and  C_11
REMARK    4  A    between atoms: C_11  and  C_12
REMARK    5  A    between atoms: C_16  and  C_17
REMARK    6  A    between atoms: C_21  and  C_22
REMARK                            x       y       z     vdW  Elec       q    Type
REMARK                         _______ _______ _______ _____ _____    ______ ____
ROOT
ATOM      1  C   UNL     1      44.271   4.870  12.028  0.00  0.00    +0.000 A 
ATOM      2  C   UNL     1      44.151   6.149  11.503  0.00  0.00    +0.000 A 
ATOM      3  N   UNL     1      44.924   7.189  11.879  0.00  0.00    +0.000 NA
ATOM      4  C   UNL     1      45.868   6.943  12.821  0.00  0.00    +0.000 A 
ATOM      5  C   UNL     1      46.096   5.708  13.429  0.00  0.00    +0.000 A 
ATOM      6  C   UNL     1      45.268   4.660  12.992  0.00  0.00    +0.000 A 
ENDROOT
BRANCH   5   7
ATOM      7  C   UNL     1      47.125   5.512  14.473  0.00  0.00    +0.000 A 
ATOM      8  C   UNL     1      48.111   6.476  14.724  0.00  0.00    +0.000 A 
ATOM      9  C   UNL     1      49.039   6.260  15.729  0.00  0.00    +0.000 A 
ATOM     10  N   UNL     1      49.058   5.160  16.509  0.00  0.00    +0.000 NA
ATOM     11  C   UNL     1      48.109   4.212  16.282  0.00  0.00    +0.000 A 
ATOM     12  C   UNL     1      47.149   4.359  15.275  0.00  0.00    +0.000 A 
BRANCH  11  13
ATOM     13  C   UNL     1      48.069   2.957  17.144  0.00  0.00    +0.000 C 
ATOM     14  F   UNL     1      46.829   2.612  17.589  0.00  0.00    +0.000 F 
ATOM     15  F   UNL     1      48.545   1.862  16.481  0.00  0.00    +0.000 F 
ATOM     16  F   UNL     1      48.849   3.068  18.259  0.00  0.00    +0.000 F 
ENDBRANCH  11  13
ENDBRANCH   5   7
BRANCH   1  17
ATOM     17  C   UNL     1      43.366   3.756  11.579  0.00  0.00    +0.000 C 
BRANCH  17  18
ATOM     18  N   UNL     1      44.143   2.693  10.965  0.00  0.00    +0.000 N 
ATOM     19  H   UNL     1      43.713   1.772  11.023  0.00  0.00    +0.000 HD
BRANCH  18  24
ATOM     20  C   UNL     1      46.190   2.183   7.874  0.00  0.00    +0.000 A 
ATOM     21  C   UNL     1      45.970   3.420   7.293  0.00  0.00    +0.000 A 
ATOM     22  N   UNL     1      45.220   4.387   7.861  0.00  0.00    +0.000 NA
ATOM     23  C   UNL     1      44.666   4.098   9.065  0.00  0.00    +0.000 A 
ATOM     24  C   UNL     1      44.827   2.899   9.767  0.00  0.00    +0.000 A 
ATOM     25  C   UNL     1      45.588   1.925   9.118  0.00  0.00    +0.000 A 
BRANCH  20  27
ATOM     26  F   UNL     1      48.381   1.400   7.305  0.00  0.00    +0.000 F 
ATOM     27  C   UNL     1      47.046   1.159   7.195  0.00  0.00    +0.000 C 
ATOM     28  F   UNL     1      46.790   1.063   5.863  0.00  0.00    +0.000 F 
ATOM     29  F   UNL     1      46.852  -0.091   7.703  0.00  0.00    +0.000 F 
ENDBRANCH  20  27
ENDBRANCH  18  24
ENDBRANCH  17  18
ENDBRANCH   1  17
TORSDOF 6
ENDMDL
MODEL 2
REMARK VINA RESULT:    -8.889      3.497      4.585
REMARK INTER + INTRA:         -12.224
REMARK INTER:                 -11.285
REMARK INTRA:                  -0.939
REMARK UNBOUND:                -0.216
REMARK  Name = 
REMARK  6 active torsions:
REMARK  status: ('A' for Active; 'I' for Inactive)
REMARK    1  A    between atoms: C_2  and  C_5
REMARK    2  A    between atoms: C_9  and  N_10
REMARK    3  A    between atoms: N_10  and  C_11
REMARK    4  A    between atoms: C_11  and  C_12
REMARK    5  A    between atoms: C_16  and  C_17
REMARK    6  A    between atoms: C_21  and  C_22
REMARK                            x       y       z     vdW  Elec       q    Type
REMARK                         _______ _______ _______ _____ _____    ______ ____
ROOT
ATOM      1  C   UNL     1      44.626   4.793  11.505  0.00  0.00    +0.000 A 
ATOM      2  C   UNL     1      44.887   3.980  12.599  0.00  0.00    +0.000 A 
ATOM      3  N   UNL     1      45.846   4.239  13.513  0.00  0.00    +0.000 NA
ATOM      4  C   UNL     1      46.578   5.367  13.332  0.00  0.00    +0.000 A 
ATOM      5  C   UNL     1      46.419   6.269  12.279  0.00  0.00    +0.000 A 
ATOM      6  C   UNL     1      45.401   5.954  11.363  0.00  0.00    +0.000 A 
ENDROOT
BRANCH   5   7
ATOM      7  C   UNL     1      47.271   7.468  12.123  0.00  0.00    +0.000 A 
ATOM      8  C   UNL     1      46.776   8.758  12.359  0.00  0.00    +0.000 A 
ATOM      9  C   UNL     1      47.619   9.849  12.224  0.00  0.00    +0.000 A 
ATOM     10  N   UNL     1      48.919   9.756  11.880  0.00  0.00    +0.000 NA
ATOM     11  C   UNL     1      49.419   8.512  11.647  0.00  0.00    +0.000 A 
ATOM     12  C   UNL     1      48.622   7.366  11.752  0.00  0.00    +0.000 A 
BRANCH  11  13
ATOM     13  C   UNL     1      50.886   8.342  11.273  0.00  0.00    +0.000 C 
ATOM     14  F   UNL     1      51.408   9.363  10.539  0.00  0.00    +0.000 F 
ATOM     15  F   UNL     1      51.688   8.227  12.373  0.00  0.00    +0.000 F 
ATOM     16  F   UNL     1      51.108   7.207  10.547  0.00  0.00    +0.000 F 
ENDBRANCH  11  13
ENDBRANCH   5   7
BRANCH   1  17
ATOM     17  C   UNL     1      43.554   4.439  10.511  0.00  0.00    +0.000 C 
BRANCH  17  18
ATOM     18  N   UNL     1      44.087   4.486   9.160  0.00  0.00    +0.000 N 
ATOM     19  H   UNL     1      44.454   5.395   8.885  0.00  0.00    +0.000 HD
BRANCH  18  24
ATOM     20  C   UNL     1      46.579   2.446   7.256  0.00  0.00    +0.000 A 
ATOM     21  C   UNL     1      46.312   1.221   7.842  0.00  0.00    +0.000 A 
ATOM     22  N   UNL     1      45.368   1.039   8.789  0.00  0.00    +0.000 NA
ATOM     23  C   UNL     1      44.664   2.136   9.164  0.00  0.00    +0.000 A 
ATOM     24  C   UNL     1      44.821   3.422   8.637  0.00  0.00    +0.000 A 
ATOM     25  C   UNL     1      45.831   3.556   7.683  0.00  0.00    +0.000 A 
BRANCH  20  27
ATOM     26  F   UNL     1      47.231   3.288   5.110  0.00  0.00    +0.000 F 
ATOM     27  C   UNL     1      47.632   2.576   6.198  0.00  0.00    +0.000 C 
ATOM     28  F   UNL     1      48.050   1.371   5.725  0.00  0.00    +0.000 F 
ATOM     29  F   UNL     1      48.750   3.203   6.660  0.00  0.00    +0.000 F 
ENDBRANCH  20  27
ENDBRANCH  18  24
ENDBRANCH  17  18
ENDBRANCH   1  17
TORSDOF 6
ENDMDL
MODEL 3
REMARK VINA RESULT:    -8.718      3.404      4.428
REMARK INTER + INTRA:         -11.992
REMARK INTER:                 -11.331
REMARK INTRA:                  -0.661
REMARK UNBOUND:                -0.216
REMARK  Name = 
REMARK  6 active torsions:
REMARK  status: ('A' for Active; 'I' for Inactive)
REMARK    1  A    between atoms: C_2  and  C_5
REMARK    2  A    between atoms: C_9  and  N_10
REMARK    3  A    between atoms: N_10  and  C_11
REMARK    4  A    between atoms: C_11  and  C_12
REMARK    5  A    between atoms: C_16  and  C_17
REMARK    6  A    between atoms: C_21  and  C_22
REMARK                            x       y       z     vdW  Elec       q    Type
REMARK                         _______ _______ _______ _____ _____    ______ ____
ROOT
ATOM      1  C   UNL     1      44.820   4.039  12.353  0.00  0.00    +0.000 A 
ATOM      2  C   UNL     1      45.678   3.265  13.122  0.00  0.00    +0.000 A 
ATOM      3  N   UNL     1      46.826   3.727  13.659  0.00  0.00    +0.000 NA
ATOM      4  C   UNL     1      47.135   5.027  13.423  0.00  0.00    +0.000 A 
ATOM      5  C   UNL     1      46.363   5.914  12.670  0.00  0.00    +0.000 A 
ATOM      6  C   UNL     1      45.174   5.381  12.144  0.00  0.00    +0.000 A 
ENDROOT
BRANCH   5   7
ATOM      7  C   UNL     1      46.771   7.314  12.426  0.00  0.00    +0.000 A 
ATOM      8  C   UNL     1      45.854   8.371  12.507  0.00  0.00    +0.000 A 
ATOM      9  C   UNL     1      46.288   9.670  12.296  0.00  0.00    +0.000 A 
ATOM     10  N   UNL     1      47.565   9.999  12.015  0.00  0.00    +0.000 NA
ATOM     11  C   UNL     1      48.470   8.987  11.932  0.00  0.00    +0.000 A 
ATOM     12  C   UNL     1      48.100   7.651  12.122  0.00  0.00    +0.000 A 
BRANCH  11  13
ATOM     13  C   UNL     1      49.932   9.299  11.637  0.00  0.00    +0.000 C 
ATOM     14  F   UNL     1      50.721   9.425  12.740  0.00  0.00    +0.000 F 
ATOM     15  F   UNL     1      50.519   8.334  10.868  0.00  0.00    +0.000 F 
ATOM     16  F   UNL     1      50.083  10.460  10.934  0.00  0.00    +0.000 F 
ENDBRANCH  11  13
ENDBRANCH   5   7
BRANCH   1  17
ATOM     17  C   UNL     1      43.561   3.459  11.768  0.00  0.00    +0.000 C 
BRANCH  17  18
ATOM     18  N   UNL     1      43.888   2.451  10.774  0.00  0.00    +0.000 N 
ATOM     19  H   UNL     1      43.127   1.807  10.565  0.00  0.00    +0.000 HD
BRANCH  18  24
ATOM     20  C   UNL     1      46.175   2.223   7.822  0.00  0.00    +0.000 A 
ATOM     21  C   UNL     1      45.982   3.503   7.332  0.00  0.00    +0.000 A 
ATOM     22  N   UNL     1      45.176   4.412   7.919  0.00  0.00    +0.000 NA
ATOM     23  C   UNL     1      44.535   4.017   9.047  0.00  0.00    +0.000 A 
ATOM     24  C   UNL     1      44.659   2.764   9.656  0.00  0.00    +0.000 A 
ATOM     25  C   UNL     1      45.482   1.855   8.988  0.00  0.00    +0.000 A 
BRANCH  20  27
ATOM     26  F   UNL     1      48.415   1.556   7.298  0.00  0.00    +0.000 F 
ATOM     27  C   UNL     1      47.096   1.268   7.128  0.00  0.00    +0.000 C 
ATOM     28  F   UNL     1      46.891   1.225   5.784  0.00  0.00    +0.000 F 
ATOM     29  F   UNL     1      46.937  -0.012   7.570  0.00  0.00    +0.000 F 
ENDBRANCH  20  27
ENDBRANCH  18  24
ENDBRANCH  17  18
ENDBRANCH   1  17
TORSDOF 6
ENDMDL
MODEL 4
REMARK VINA RESULT:    -8.624      1.223      1.748
REMARK INTER + INTRA:         -11.866
REMARK INTER:                 -11.045
REMARK INTRA:                  -0.820
REMARK UNBOUND:                -0.216
REMARK  Name = 
REMARK  6 active torsions:
REMARK  status: ('A' for Active; 'I' for Inactive)
REMARK    1  A    between atoms: C_2  and  C_5
REMARK    2  A    between atoms: C_9  and  N_10
REMARK    3  A    between atoms: N_10  and  C_11
REMARK    4  A    between atoms: C_11  and  C_12
REMARK    5  A    between atoms: C_16  and  C_17
REMARK    6  A    between atoms: C_21  and  C_22
REMARK                            x       y       z     vdW  Elec       q    Type
REMARK                         _______ _______ _______ _____ _____    ______ ____
ROOT
ATOM      1  C   UNL     1      44.774   5.435  11.655  0.00  0.00    +0.000 A 
ATOM      2  C   UNL     1      44.690   6.761  11.253  0.00  0.00    +0.000 A 
ATOM      3  N   UNL     1      45.417   7.758  11.800  0.00  0.00    +0.000 NA
ATOM      4  C   UNL     1      46.277   7.417  12.792  0.00  0.00    +0.000 A 
ATOM      5  C   UNL     1      46.461   6.126  13.290  0.00  0.00    +0.000 A 
ATOM      6  C   UNL     1      45.683   5.128  12.678  0.00  0.00    +0.000 A 
ENDROOT
BRANCH   5   7
ATOM      7  C   UNL     1      47.395   5.825  14.396  0.00  0.00    +0.000 A 
ATOM      8  C   UNL     1      48.411   6.718  14.764  0.00  0.00    +0.000 A 
ATOM      9  C   UNL     1      49.246   6.404  15.824  0.00  0.00    +0.000 A 
ATOM     10  N   UNL     1      49.145   5.272  16.550  0.00  0.00    +0.000 NA
ATOM     11  C   UNL     1      48.165   4.393  16.209  0.00  0.00    +0.000 A 
ATOM     12  C   UNL     1      47.293   4.639  15.142  0.00  0.00    +0.000 A 
BRANCH  11  13
ATOM     13  C   UNL     1      47.989   3.106  17.005  0.00  0.00    +0.000 C 
ATOM     14  F   UNL     1      48.712   3.048  18.159  0.00  0.00    +0.000 F 
ATOM     15  F   UNL     1      46.689   2.899  17.369  0.00  0.00    +0.000 F 
ATOM     16  F   UNL     1      48.342   1.999  16.287  0.00  0.00    +0.000 F 
ENDBRANCH  11  13
ENDBRANCH   5   7
BRANCH   1  17
ATOM     17  C   UNL     1      43.921   4.373  11.017  0.00  0.00    +0.000 C 
BRANCH  17  18
ATOM     18  N   UNL     1      44.044   4.432   9.570  0.00  0.00    +0.000 N 
ATOM     19  H   UNL     1      44.171   5.371   9.199  0.00  0.00    +0.000 HD
BRANCH  18  24
ATOM     20  C   UNL     1      46.246   2.710   7.083  0.00  0.00    +0.000 A 
ATOM     21  C   UNL     1      46.298   1.472   7.699  0.00  0.00    +0.000 A 
ATOM     22  N   UNL     1      45.649   1.182   8.846  0.00  0.00    +0.000 NA
ATOM     23  C   UNL     1      44.916   2.181   9.398  0.00  0.00    +0.000 A 
ATOM     24  C   UNL     1      44.764   3.467   8.868  0.00  0.00    +0.000 A 
ATOM     25  C   UNL     1      45.482   3.718   7.698  0.00  0.00    +0.000 A 
BRANCH  20  27
ATOM     26  F   UNL     1      48.252   2.479   5.795  0.00  0.00    +0.000 F 
ATOM     27  C   UNL     1      46.980   2.960   5.802  0.00  0.00    +0.000 C 
ATOM     28  F   UNL     1      47.077   4.284   5.505  0.00  0.00    +0.000 F 
ATOM     29  F   UNL     1      46.360   2.384   4.734  0.00  0.00    +0.000 F 
ENDBRANCH  20  27
ENDBRANCH  18  24
ENDBRANCH  17  18
ENDBRANCH   1  17
TORSDOF 6
ENDMDL
MODEL 5
REMARK VINA RESULT:    -8.440      3.336      3.910
REMARK INTER + INTRA:         -11.617
REMARK INTER:                 -10.962
REMARK INTRA:                  -0.655
REMARK UNBOUND:                -0.216
REMARK  Name = 
REMARK  6 active torsions:
REMARK  status: ('A' for Active; 'I' for Inactive)
REMARK    1  A    between atoms: C_2  and  C_5
REMARK    2  A    between atoms: C_9  and  N_10
REMARK    3  A    between atoms: N_10  and  C_11
REMARK    4  A    between atoms: C_11  and  C_12
REMARK    5  A    between atoms: C_16  and  C_17
REMARK    6  A    between atoms: C_21  and  C_22
REMARK                            x       y       z     vdW  Elec       q    Type
REMARK                         _______ _______ _______ _____ _____    ______ ____
ROOT
ATOM      1  C   UNL     1      44.874   4.510  12.382  0.00  0.00    +0.000 A 
ATOM      2  C   UNL     1      43.861   5.453  12.280  0.00  0.00    +0.000 A 
ATOM      3  N   UNL     1      44.047   6.777  12.457  0.00  0.00    +0.000 NA
ATOM      4  C   UNL     1      45.308   7.186  12.745  0.00  0.00    +0.000 A 
ATOM      5  C   UNL     1      46.417   6.347  12.875  0.00  0.00    +0.000 A 
ATOM      6  C   UNL     1      46.164   4.980  12.672  0.00  0.00    +0.000 A 
ENDROOT
BRANCH   5   7
ATOM      7  C   UNL     1      47.762   6.854  13.220  0.00  0.00    +0.000 A 
ATOM      8  C   UNL     1      48.233   6.852  14.540  0.00  0.00    +0.000 A 
ATOM      9  C   UNL     1      49.511   7.313  14.811  0.00  0.00    +0.000 A 
ATOM     10  N   UNL     1      50.360   7.771  13.868  0.00  0.00    +0.000 NA
ATOM     11  C   UNL     1      49.922   7.780  12.580  0.00  0.00    +0.000 A 
ATOM     12  C   UNL     1      48.638   7.341  12.236  0.00  0.00    +0.000 A 
BRANCH  11  13
ATOM     13  C   UNL     1      50.843   8.268  11.469  0.00  0.00    +0.000 C 
ATOM     14  F   UNL     1      50.476   9.453  10.906  0.00  0.00    +0.000 F 
ATOM     15  F   UNL     1      52.126   8.444  11.904  0.00  0.00    +0.000 F 
ATOM     16  F   UNL     1      50.932   7.376  10.440  0.00  0.00    +0.000 F 
ENDBRANCH  11  13
ENDBRANCH   5   7
BRANCH   1  17
ATOM     17  C   UNL     1      44.597   3.044  12.190  0.00  0.00    +0.000 C 
BRANCH  17  18
ATOM     18  N   UNL     1      44.072   2.802  10.857  0.00  0.00    +0.000 N 
ATOM     19  H   UNL     1      43.104   3.091  10.729  0.00  0.00    +0.000 HD
BRANCH  18  24
ATOM     20  C   UNL     1      46.264   2.284   7.869  0.00  0.00    +0.000 A 
ATOM     21  C   UNL     1      46.219   3.575   7.373  0.00  0.00    +0.000 A 
ATOM     22  N   UNL     1      45.538   4.578   7.966  0.00  0.00    +0.000 NA
ATOM     23  C   UNL     1      44.874   4.269   9.108  0.00  0.00    +0.000 A 
ATOM     24  C   UNL     1      44.856   3.014   9.724  0.00  0.00    +0.000 A 
ATOM     25  C   UNL     1      45.552   2.009   9.049  0.00  0.00    +0.000 A 
BRANCH  20  27
ATOM     26  F   UNL     1      46.777   1.121   5.839  0.00  0.00    +0.000 F 
ATOM     27  C   UNL     1      47.051   1.221   7.168  0.00  0.00    +0.000 C 
ATOM     28  F   UNL     1      46.837  -0.018   7.689  0.00  0.00    +0.000 F 
ATOM     29  F   UNL     1      48.394   1.434   7.255  0.00  0.00    +0.000 F 
ENDBRANCH  20  27
ENDBRANCH  18  24
ENDBRANCH  17  18
ENDBRANCH   1  17
TORSDOF 6
ENDMDL
MODEL 6
REMARK VINA RESULT:    -8.209      1.765      8.003
REMARK INTER + INTRA:         -11.305
REMARK INTER:                 -10.366
REMARK INTRA:                  -0.938
REMARK UNBOUND:                -0.216
REMARK  Name = 
REMARK  6 active torsions:
REMARK  status: ('A' for Active; 'I' for Inactive)
REMARK    1  A    between atoms: C_2  and  C_5
REMARK    2  A    between atoms: C_9  and  N_10
REMARK    3  A    between atoms: N_10  and  C_11
REMARK    4  A    between atoms: C_11  and  C_12
REMARK    5  A    between atoms: C_16  and  C_17
REMARK    6  A    between atoms: C_21  and  C_22
REMARK                            x       y       z     vdW  Elec       q    Type
REMARK                         _______ _______ _______ _____ _____    ______ ____
ROOT
ATOM      1  C   UNL     1      47.245   7.709  13.209  0.00  0.00    +0.000 A 
ATOM      2  C   UNL     1      46.589   8.862  12.801  0.00  0.00    +0.000 A 
ATOM      3  N   UNL     1      45.435   8.861  12.101  0.00  0.00    +0.000 NA
ATOM      4  C   UNL     1      44.905   7.650  11.796  0.00  0.00    +0.000 A 
ATOM      5  C   UNL     1      45.459   6.417  12.143  0.00  0.00    +0.000 A 
ATOM      6  C   UNL     1      46.655   6.480  12.878  0.00  0.00    +0.000 A 
ENDROOT
BRANCH   5   7
ATOM      7  C   UNL     1      44.844   5.130  11.754  0.00  0.00    +0.000 A 
ATOM      8  C   UNL     1      43.891   4.496  12.562  0.00  0.00    +0.000 A 
ATOM      9  C   UNL     1      43.323   3.304  12.143  0.00  0.00    +0.000 A 
ATOM     10  N   UNL     1      43.628   2.695  10.979  0.00  0.00    +0.000 NA
ATOM     11  C   UNL     1      44.551   3.294  10.180  0.00  0.00    +0.000 A 
ATOM     12  C   UNL     1      45.173   4.494  10.546  0.00  0.00    +0.000 A 
BRANCH  11  13
ATOM     13  C   UNL     1      44.921   2.664   8.843  0.00  0.00    +0.000 C 
ATOM     14  F   UNL     1      46.245   2.735   8.528  0.00  0.00    +0.000 F 
ATOM     15  F   UNL     1      44.597   1.339   8.792  0.00  0.00    +0.000 F 
ATOM     16  F   UNL     1      44.256   3.238   7.797  0.00  0.00    +0.000 F 
ENDBRANCH  11  13
ENDBRANCH   5   7
BRANCH   1  17
ATOM     17  C   UNL     1      48.539   7.779  13.972  0.00  0.00    +0.000 C 
BRANCH  17  18
ATOM     18  N   UNL     1      48.296   7.587  15.392  0.00  0.00    +0.000 N 
ATOM     19  H   UNL     1      47.339   7.779  15.683  0.00  0.00    +0.000 HD
BRANCH  18  24
ATOM     20  C   UNL     1      48.862   4.290  17.068  0.00  0.00    +0.000 A 
ATOM     21  C   UNL     1      50.219   4.424  17.299  0.00  0.00    +0.000 A 
ATOM     22  N   UNL     1      50.929   5.519  16.956  0.00  0.00    +0.000 NA
ATOM     23  C   UNL     1      50.244   6.523  16.355  0.00  0.00    +0.000 A 
ATOM     24  C   UNL     1      48.872   6.523  16.085  0.00  0.00    +0.000 A 
ATOM     25  C   UNL     1      48.195   5.353  16.434  0.00  0.00    +0.000 A 
BRANCH  20  27
ATOM     26  F   UNL     1      48.360   2.691  18.779  0.00  0.00    +0.000 F 
ATOM     27  C   UNL     1      48.131   3.052  17.488  0.00  0.00    +0.000 C 
ATOM     28  F   UNL     1      48.458   1.970  16.732  0.00  0.00    +0.000 F 
ATOM     29  F   UNL     1      46.779   3.190  17.375  0.00  0.00    +0.000 F 
ENDBRANCH  20  27
ENDBRANCH  18  24
ENDBRANCH  17  18
ENDBRANCH   1  17
TORSDOF 6
ENDMDL
MODEL 7
REMARK VINA RESULT:    -7.641      4.184      5.652
REMARK INTER + INTRA:         -10.538
REMARK INTER:                  -9.661
REMARK INTRA:                  -0.877
REMARK UNBOUND:                -0.216
REMARK  Name = 
REMARK  6 active torsions:
REMARK  status: ('A' for Active; 'I' for Inactive)
REMARK    1  A    between atoms: C_2  and  C_5
REMARK    2  A    between atoms: C_9  and  N_10
REMARK    3  A    between atoms: N_10  and  C_11
REMARK    4  A    between atoms: C_11  and  C_12
REMARK    5  A    between atoms: C_16  and  C_17
REMARK    6  A    between atoms: C_21  and  C_22
REMARK                            x       y       z     vdW  Elec       q    Type
REMARK                         _______ _______ _______ _____ _____    ______ ____
ROOT
ATOM      1  C   UNL     1      46.477   6.873  12.057  0.00  0.00    +0.000 A 
ATOM      2  C   UNL     1      46.617   6.109  13.207  0.00  0.00    +0.000 A 
ATOM      3  N   UNL     1      47.777   5.980  13.885  0.00  0.00    +0.000 NA
ATOM      4  C   UNL     1      48.850   6.650  13.397  0.00  0.00    +0.000 A 
ATOM      5  C   UNL     1      48.848   7.452  12.254  0.00  0.00    +0.000 A 
ATOM      6  C   UNL     1      47.611   7.556  11.594  0.00  0.00    +0.000 A 
ENDROOT
BRANCH   5   7
ATOM      7  C   UNL     1      50.062   8.134  11.757  0.00  0.00    +0.000 A 
ATOM      8  C   UNL     1      50.424   9.411  12.208  0.00  0.00    +0.000 A 
ATOM      9  C   UNL     1      51.585  10.000  11.733  0.00  0.00    +0.000 A 
ATOM     10  N   UNL     1      52.417   9.414  10.848  0.00  0.00    +0.000 NA
ATOM     11  C   UNL     1      52.083   8.174  10.399  0.00  0.00    +0.000 A 
ATOM     12  C   UNL     1      50.919   7.524  10.827  0.00  0.00    +0.000 A 
BRANCH  11  13
ATOM     13  C   UNL     1      52.994   7.453   9.414  0.00  0.00    +0.000 C 
ATOM     14  F   UNL     1      52.342   6.747   8.448  0.00  0.00    +0.000 F 
ATOM     15  F   UNL     1      53.820   8.315   8.751  0.00  0.00    +0.000 F 
ATOM     16  F   UNL     1      53.826   6.563  10.031  0.00  0.00    +0.000 F 
ENDBRANCH  11  13
ENDBRANCH   5   7
BRANCH   1  17
ATOM     17  C   UNL     1      45.159   6.961  11.338  0.00  0.00    +0.000 C 
BRANCH  17  18
ATOM     18  N   UNL     1      44.378   5.757  11.569  0.00  0.00    +0.000 N 
ATOM     19  H   UNL     1      43.431   5.930  11.899  0.00  0.00    +0.000 HD
BRANCH  18  24
ATOM     20  C   UNL     1      45.396   3.439   8.814  0.00  0.00    +0.000 A 
ATOM     21  C   UNL     1      44.650   2.341   9.203  0.00  0.00    +0.000 A 
ATOM     22  N   UNL     1      43.841   2.334  10.283  0.00  0.00    +0.000 NA
ATOM     23  C   UNL     1      43.780   3.482  11.003  0.00  0.00    +0.000 A 
ATOM     24  C   UNL     1      44.465   4.665  10.707  0.00  0.00    +0.000 A 
ATOM     25  C   UNL     1      45.309   4.603   9.597  0.00  0.00    +0.000 A 
BRANCH  20  27
ATOM     26  F   UNL     1      45.568   3.268   6.431  0.00  0.00    +0.000 F 
ATOM     27  C   UNL     1      46.263   3.383   7.595  0.00  0.00    +0.000 C 
ATOM     28  F   UNL     1      47.132   2.337   7.618  0.00  0.00    +0.000 F 
ATOM     29  F   UNL     1      47.031   4.501   7.459  0.00  0.00    +0.000 F 
ENDBRANCH  20  27
ENDBRANCH  18  24
ENDBRANCH  17  18
ENDBRANCH   1  17
TORSDOF 6
ENDMDL
MODEL 8
REMARK VINA RESULT:    -7.155      2.347      8.810
REMARK INTER + INTRA:          -9.881
REMARK INTER:                  -9.128
REMARK INTRA:                  -0.753
REMARK UNBOUND:                -0.216
REMARK  Name = 
REMARK  6 active torsions:
REMARK  status: ('A' for Active; 'I' for Inactive)
REMARK    1  A    between atoms: C_2  and  C_5
REMARK    2  A    between atoms: C_9  and  N_10
REMARK    3  A    between atoms: N_10  and  C_11
REMARK    4  A    between atoms: C_11  and  C_12
REMARK    5  A    between atoms: C_16  and  C_17
REMARK    6  A    between atoms: C_21  and  C_22
REMARK                            x       y       z     vdW  Elec       q    Type
REMARK                         _______ _______ _______ _____ _____    ______ ____
ROOT
ATOM      1  C   UNL     1      47.164   7.933  13.272  0.00  0.00    +0.000 A 
ATOM      2  C   UNL     1      46.534   9.057  12.755  0.00  0.00    +0.000 A 
ATOM      3  N   UNL     1      45.417   9.009  12.000  0.00  0.00    +0.000 NA
ATOM      4  C   UNL     1      44.897   7.782  11.751  0.00  0.00    +0.000 A 
ATOM      5  C   UNL     1      45.427   6.574  12.208  0.00  0.00    +0.000 A 
ATOM      6  C   UNL     1      46.585   6.685  12.997  0.00  0.00    +0.000 A 
ENDROOT
BRANCH   5   7
ATOM      7  C   UNL     1      44.827   5.264  11.876  0.00  0.00    +0.000 A 
ATOM      8  C   UNL     1      43.950   4.614  12.755  0.00  0.00    +0.000 A 
ATOM      9  C   UNL     1      43.392   3.400  12.390  0.00  0.00    +0.000 A 
ATOM     10  N   UNL     1      43.634   2.785  11.214  0.00  0.00    +0.000 NA
ATOM     11  C   UNL     1      44.482   3.401  10.347  0.00  0.00    +0.000 A 
ATOM     12  C   UNL     1      45.091   4.623  10.656  0.00  0.00    +0.000 A 
BRANCH  11  13
ATOM     13  C   UNL     1      44.779   2.764   8.995  0.00  0.00    +0.000 C 
ATOM     14  F   UNL     1      44.190   3.382   7.934  0.00  0.00    +0.000 F 
ATOM     15  F   UNL     1      46.117   2.743   8.719  0.00  0.00    +0.000 F 
ATOM     16  F   UNL     1      44.380   1.459   8.937  0.00  0.00    +0.000 F 
ENDBRANCH  11  13
ENDBRANCH   5   7
BRANCH   1  17
ATOM     17  C   UNL     1      48.419   8.053  14.093  0.00  0.00    +0.000 C 
BRANCH  17  18
ATOM     18  N   UNL     1      48.096   8.040  15.510  0.00  0.00    +0.000 N 
ATOM     19  H   UNL     1      47.105   8.157  15.714  0.00  0.00    +0.000 HD
BRANCH  18  24
ATOM     20  C   UNL     1      48.907   5.876  18.452  0.00  0.00    +0.000 A 
ATOM     21  C   UNL     1      50.028   5.255  17.930  0.00  0.00    +0.000 A 
ATOM     22  N   UNL     1      50.522   5.520  16.703  0.00  0.00    +0.000 NA
ATOM     23  C   UNL     1      49.861   6.449  15.969  0.00  0.00    +0.000 A 
ATOM     24  C   UNL     1      48.733   7.162  16.387  0.00  0.00    +0.000 A 
ATOM     25  C   UNL     1      48.248   6.825  17.652  0.00  0.00    +0.000 A 
BRANCH  20  27
ATOM     26  F   UNL     1      48.562   4.234  20.162  0.00  0.00    +0.000 F 
ATOM     27  C   UNL     1      48.419   5.545  19.829  0.00  0.00    +0.000 C 
ATOM     28  F   UNL     1      47.101   5.834  20.001  0.00  0.00    +0.000 F 
ATOM     29  F   UNL     1      49.082   6.246  20.792  0.00  0.00    +0.000 F 
ENDBRANCH  20  27
ENDBRANCH  18  24
ENDBRANCH  17  18
ENDBRANCH   1  17
TORSDOF 6
ENDMDL
MODEL 9
REMARK VINA RESULT:    -7.057      4.014      7.503
REMARK INTER + INTRA:          -9.749
REMARK INTER:                  -8.747
REMARK INTRA:                  -1.001
REMARK UNBOUND:                -0.216
REMARK  Name = 
REMARK  6 active torsions:
REMARK  status: ('A' for Active; 'I' for Inactive)
REMARK    1  A    between atoms: C_2  and  C_5
REMARK    2  A    between atoms: C_9  and  N_10
REMARK    3  A    between atoms: N_10  and  C_11
REMARK    4  A    between atoms: C_11  and  C_12
REMARK    5  A    between atoms: C_16  and  C_17
REMARK    6  A    between atoms: C_21  and  C_22
REMARK                            x       y       z     vdW  Elec       q    Type
REMARK                         _______ _______ _______ _____ _____    ______ ____
ROOT
ATOM      1  C   UNL     1      46.594   8.435  12.767  0.00  0.00    +0.000 A 
ATOM      2  C   UNL     1      45.696   9.451  12.471  0.00  0.00    +0.000 A 
ATOM      3  N   UNL     1      44.587   9.277  11.723  0.00  0.00    +0.000 NA
ATOM      4  C   UNL     1      44.355   8.027  11.250  0.00  0.00    +0.000 A 
ATOM      5  C   UNL     1      45.173   6.918  11.472  0.00  0.00    +0.000 A 
ATOM      6  C   UNL     1      46.309   7.156  12.265  0.00  0.00    +0.000 A 
ENDROOT
BRANCH   5   7
ATOM      7  C   UNL     1      44.879   5.585  10.903  0.00  0.00    +0.000 A 
ATOM      8  C   UNL     1      43.937   4.728  11.487  0.00  0.00    +0.000 A 
ATOM      9  C   UNL     1      43.676   3.499  10.903  0.00  0.00    +0.000 A 
ATOM     10  N   UNL     1      44.277   3.059   9.779  0.00  0.00    +0.000 NA
ATOM     11  C   UNL     1      45.195   3.877   9.196  0.00  0.00    +0.000 A 
ATOM     12  C   UNL     1      45.516   5.127   9.739  0.00  0.00    +0.000 A 
BRANCH  11  13
ATOM     13  C   UNL     1      45.893   3.443   7.913  0.00  0.00    +0.000 C 
ATOM     14  F   UNL     1      46.554   2.255   8.000  0.00  0.00    +0.000 F 
ATOM     15  F   UNL     1      45.019   3.308   6.872  0.00  0.00    +0.000 F 
ATOM     16  F   UNL     1      46.817   4.355   7.491  0.00  0.00    +0.000 F 
ENDBRANCH  11  13
ENDBRANCH   5   7
BRANCH   1  17
ATOM     17  C   UNL     1      47.823   8.698  13.593  0.00  0.00    +0.000 C 
BRANCH  17  18
ATOM     18  N   UNL     1      48.903   7.819  13.180  0.00  0.00    +0.000 N 
ATOM     19  H   UNL     1      48.608   6.871  12.951  0.00  0.00    +0.000 HD
BRANCH  18  24
ATOM     20  C   UNL     1      51.597   8.041  10.593  0.00  0.00    +0.000 A 
ATOM     21  C   UNL     1      51.838   9.401  10.684  0.00  0.00    +0.000 A 
ATOM     22  N   UNL     1      51.189  10.217  11.540  0.00  0.00    +0.000 NA
ATOM     23  C   UNL     1      50.258   9.640  12.341  0.00  0.00    +0.000 A 
ATOM     24  C   UNL     1      49.935   8.279  12.363  0.00  0.00    +0.000 A 
ATOM     25  C   UNL     1      50.616   7.490  11.435  0.00  0.00    +0.000 A 
BRANCH  20  27
ATOM     26  F   UNL     1      51.658   6.846   8.518  0.00  0.00    +0.000 F 
ATOM     27  C   UNL     1      52.364   7.190   9.629  0.00  0.00    +0.000 C 
ATOM     28  F   UNL     1      52.785   6.021  10.183  0.00  0.00    +0.000 F 
ATOM     29  F   UNL     1      53.489   7.812   9.175  0.00  0.00    +0.000 F 
ENDBRANCH  20  27
ENDBRANCH  18  24
ENDBRANCH  17  18
ENDBRANCH   1  17
TORSDOF 6
ENDMDL
