MODEL 1
REMARK VINA RESULT:    -8.567      0.000      0.000
REMARK INTER + INTRA:         -12.721
REMARK INTER:                 -12.073
REMARK INTRA:                  -0.647
REMARK UNBOUND:                -0.647
REMARK  Name = 
REMARK  7 active torsions:
REMARK  status: ('A' for Active; 'I' for Inactive)
REMARK    1  A    between atoms: C_2  and  C_20
REMARK    2  A    between atoms: N_3  and  C_4
REMARK    3  A    between atoms: C_4  and  C_5
REMARK    4  A    between atoms: C_8  and  C_9
REMARK    5  A    between atoms: C_9  and  N_10
REMARK    6  A    between atoms: N_10  and  C_11
REMARK    7  A    between atoms: C_11  and  C_12
REMARK                            x       y       z     vdW  Elec       q    Type
REMARK                         _______ _______ _______ _____ _____    ______ ____
ROOT
ATOM      1  C   UNL     1      46.649   4.416  14.023  0.00  0.00    +0.000 C 
ENDROOT
BRANCH   1   2
ATOM      2  C   UNL     1      45.506   5.390  13.690  0.00  0.00    +0.000 C 
ATOM      3  C   UNL     1      45.971   6.635  12.916  0.00  0.00    +0.000 C 
ATOM      4  C   UNL     1      46.442   6.314  11.498  0.00  0.00    +0.000 C 
ATOM      5  C   UNL     1      45.385   5.543  10.689  0.00  0.00    +0.000 C 
ATOM      6  C   UNL     1      44.847   4.328  11.469  0.00  0.00    +0.000 C 
ATOM      7  C   UNL     1      44.407   4.681  12.888  0.00  0.00    +0.000 C 
BRANCH   5   8
ATOM      8  C   UNL     1      45.968   5.118   9.322  0.00  0.00    +0.000 C 
BRANCH   8   9
ATOM      9  N   UNL     1      44.887   4.822   8.387  0.00  0.00    +0.000 NA
ATOM     10  H   UNL     1      45.094   5.220   7.473  0.00  0.00    +0.000 HD
BRANCH   9  11
ATOM     11  C   UNL     1      44.636   3.395   8.249  0.00  0.00    +0.000 C 
BRANCH  11  12
ATOM     12  C   UNL     1      45.814   2.725   7.580  0.00  0.00    +0.000 A 
ATOM     13  C   UNL     1      46.407   3.267   6.437  0.00  0.00    +0.000 A 
ATOM     14  C   UNL     1      47.471   2.591   5.857  0.00  0.00    +0.000 A 
ATOM     15  N   UNL     1      47.976   1.432   6.328  0.00  0.00    +0.000 NA
ATOM     16  C   UNL     1      47.388   0.922   7.431  0.00  0.00    +0.000 A 
ATOM     17  C   UNL     1      46.323   1.523   8.085  0.00  0.00    +0.000 A 
ENDBRANCH  11  12
ENDBRANCH   9  11
ENDBRANCH   8   9
ENDBRANCH   5   8
ENDBRANCH   1   2
BRANCH   1  20
ATOM     18  O   UNL     1      46.697   3.510  16.712  0.00  0.00    +0.000 OA
ATOM     19  C   UNL     1      47.474   4.393  16.364  0.00  0.00    +0.000 C 
ATOM     20  N   UNL     1      47.494   4.898  15.090  0.00  0.00    +0.000 N 
ATOM     21  H   UNL     1      48.211   5.566  14.831  0.00  0.00    +0.000 HD
BRANCH  19  22
ATOM     22  C   UNL     1      48.417   5.007  17.307  0.00  0.00    +0.000 A 
ATOM     23  C   UNL     1      48.121   6.237  17.880  0.00  0.00    +0.000 A 
ATOM     24  S   UNL     1      49.333   6.806  18.937  0.00  0.00    +0.000 S 
ATOM     25  C   UNL     1      50.272   5.408  18.704  0.00  0.00    +0.000 A 
ATOM     26  N   UNL     1      51.451   5.239  19.363  0.00  0.00    +0.000 NA
ATOM     27  C   UNL     1      52.041   4.115  19.127  0.00  0.00    +0.000 A 
ATOM     28  N   UNL     1      51.562   3.146  18.282  0.00  0.00    +0.000 N 
ATOM     29  C   UNL     1      50.417   3.305  17.540  0.00  0.00    +0.000 A 
ATOM     30  O   UNL     1      50.095   2.477  16.693  0.00  0.00    +0.000 OA
ATOM     31  C   UNL     1      49.688   4.532  17.807  0.00  0.00    +0.000 A 
ATOM     32  H   UNL     1      52.087   2.301  18.114  0.00  0.00    +0.000 HD
ENDBRANCH  19  22
ENDBRANCH   1  20
TORSDOF 7
ENDMDL
MODEL 2
REMARK VINA RESULT:    -8.289      1.829      2.319
REMARK INTER + INTRA:         -12.328
REMARK INTER:                 -11.204
REMARK INTRA:                  -1.124
REMARK UNBOUND:                -0.647
REMARK  Name = 
REMARK  7 active torsions:
REMARK  status: ('A' for Active; 'I' for Inactive)
REMARK    1  A    between atoms: C_2  and  C_20
REMARK    2  A    between atoms: N_3  and  C_4
REMARK    3  A    between atoms: C_4  and  C_5
REMARK    4  A    between atoms: C_8  and  C_9
REMARK    5  A    between atoms: C_9  and  N_10
REMARK    6  A    between atoms: N_10  and  C_11
REMARK    7  A    between atoms: C_11  and  C_12
REMARK                            x       y       z     vdW  Elec       q    Type
REMARK                         _______ _______ _______ _____ _____    ______ ____
ROOT
ATOM      1  C   UNL     1      47.294   5.753  13.051  0.00  0.00    +0.000 C 
ENDROOT
BRANCH   1   2
ATOM      2  C   UNL     1      46.166   6.653  12.518  0.00  0.00    +0.000 C 
ATOM      3  C   UNL     1      45.957   6.535  10.999  0.00  0.00    +0.000 C 
ATOM      4  C   UNL     1      45.407   5.174  10.576  0.00  0.00    +0.000 C 
ATOM      5  C   UNL     1      44.115   4.804  11.325  0.00  0.00    +0.000 C 
ATOM      6  C   UNL     1      44.271   4.981  12.848  0.00  0.00    +0.000 C 
ATOM      7  C   UNL     1      44.844   6.343  13.233  0.00  0.00    +0.000 C 
BRANCH   5   8
ATOM      8  C   UNL     1      43.688   3.362  10.969  0.00  0.00    +0.000 C 
BRANCH   8   9
ATOM      9  N   UNL     1      44.835   2.607  10.476  0.00  0.00    +0.000 NA
ATOM     10  H   UNL     1      45.147   1.942  11.182  0.00  0.00    +0.000 HD
BRANCH   9  11
ATOM     11  C   UNL     1      44.556   1.902   9.235  0.00  0.00    +0.000 C 
BRANCH  11  12
ATOM     12  C   UNL     1      45.678   2.126   8.248  0.00  0.00    +0.000 A 
ATOM     13  C   UNL     1      46.569   1.103   7.914  0.00  0.00    +0.000 A 
ATOM     14  C   UNL     1      47.592   1.379   7.020  0.00  0.00    +0.000 A 
ATOM     15  N   UNL     1      47.786   2.584   6.444  0.00  0.00    +0.000 NA
ATOM     16  C   UNL     1      46.918   3.561   6.780  0.00  0.00    +0.000 A 
ATOM     17  C   UNL     1      45.862   3.384   7.662  0.00  0.00    +0.000 A 
ENDBRANCH  11  12
ENDBRANCH   9  11
ENDBRANCH   8   9
ENDBRANCH   5   8
ENDBRANCH   1   2
BRANCH   1  20
ATOM     18  O   UNL     1      49.625   6.931  14.162  0.00  0.00    +0.000 OA
ATOM     19  C   UNL     1      48.717   6.581  14.909  0.00  0.00    +0.000 C 
ATOM     20  N   UNL     1      47.572   5.984  14.450  0.00  0.00    +0.000 N 
ATOM     21  H   UNL     1      46.818   5.791  15.098  0.00  0.00    +0.000 HD
BRANCH  19  22
ATOM     22  C   UNL     1      48.813   6.739  16.365  0.00  0.00    +0.000 A 
ATOM     23  C   UNL     1      48.920   8.009  16.918  0.00  0.00    +0.000 A 
ATOM     24  S   UNL     1      49.037   8.003  18.620  0.00  0.00    +0.000 S 
ATOM     25  C   UNL     1      48.899   6.309  18.681  0.00  0.00    +0.000 A 
ATOM     26  N   UNL     1      48.891   5.651  19.872  0.00  0.00    +0.000 NA
ATOM     27  C   UNL     1      48.738   4.372  19.776  0.00  0.00    +0.000 A 
ATOM     28  N   UNL     1      48.601   3.690  18.594  0.00  0.00    +0.000 N 
ATOM     29  C   UNL     1      48.678   4.304  17.366  0.00  0.00    +0.000 A 
ATOM     30  O   UNL     1      48.689   3.644  16.332  0.00  0.00    +0.000 OA
ATOM     31  C   UNL     1      48.798   5.750  17.420  0.00  0.00    +0.000 A 
ATOM     32  H   UNL     1      48.517   2.685  18.583  0.00  0.00    +0.000 HD
ENDBRANCH  19  22
ENDBRANCH   1  20
TORSDOF 7
ENDMDL
MODEL 3
REMARK VINA RESULT:    -8.046      1.718      2.154
REMARK INTER + INTRA:         -11.986
REMARK INTER:                 -10.876
REMARK INTRA:                  -1.110
REMARK UNBOUND:                -0.647
REMARK  Name = 
REMARK  7 active torsions:
REMARK  status: ('A' for Active; 'I' for Inactive)
REMARK    1  A    between atoms: C_2  and  C_20
REMARK    2  A    between atoms: N_3  and  C_4
REMARK    3  A    between atoms: C_4  and  C_5
REMARK    4  A    between atoms: C_8  and  C_9
REMARK    5  A    between atoms: C_9  and  N_10
REMARK    6  A    between atoms: N_10  and  C_11
REMARK    7  A    between atoms: C_11  and  C_12
REMARK                            x       y       z     vdW  Elec       q    Type
REMARK                         _______ _______ _______ _____ _____    ______ ____
ROOT
ATOM      1  C   UNL     1      47.248   5.516  13.251  0.00  0.00    +0.000 C 
ENDROOT
BRANCH   1   2
ATOM      2  C   UNL     1      46.426   6.666  12.643  0.00  0.00    +0.000 C 
ATOM      3  C   UNL     1      46.449   6.686  11.105  0.00  0.00    +0.000 C 
ATOM      4  C   UNL     1      45.712   5.501  10.482  0.00  0.00    +0.000 C 
ATOM      5  C   UNL     1      44.268   5.371  10.996  0.00  0.00    +0.000 C 
ATOM      6  C   UNL     1      44.206   5.420  12.535  0.00  0.00    +0.000 C 
ATOM      7  C   UNL     1      44.971   6.603  13.123  0.00  0.00    +0.000 C 
BRANCH   5   8
ATOM      8  C   UNL     1      43.623   4.078  10.449  0.00  0.00    +0.000 C 
BRANCH   8   9
ATOM      9  N   UNL     1      44.159   3.770   9.127  0.00  0.00    +0.000 NA
ATOM     10  H   UNL     1      44.983   4.340   8.942  0.00  0.00    +0.000 HD
BRANCH   9  11
ATOM     11  C   UNL     1      44.497   2.364   8.968  0.00  0.00    +0.000 C 
BRANCH  11  12
ATOM     12  C   UNL     1      45.759   2.224   8.149  0.00  0.00    +0.000 A 
ATOM     13  C   UNL     1      46.405   0.993   8.013  0.00  0.00    +0.000 A 
ATOM     14  C   UNL     1      47.572   0.935   7.267  0.00  0.00    +0.000 A 
ATOM     15  N   UNL     1      48.132   2.000   6.657  0.00  0.00    +0.000 NA
ATOM     16  C   UNL     1      47.496   3.182   6.802  0.00  0.00    +0.000 A 
ATOM     17  C   UNL     1      46.324   3.342   7.524  0.00  0.00    +0.000 A 
ENDBRANCH  11  12
ENDBRANCH   9  11
ENDBRANCH   8   9
ENDBRANCH   5   8
ENDBRANCH   1   2
BRANCH   1  20
ATOM     18  O   UNL     1      47.126   3.672  15.403  0.00  0.00    +0.000 OA
ATOM     19  C   UNL     1      47.539   4.807  15.611  0.00  0.00    +0.000 C 
ATOM     20  N   UNL     1      47.605   5.760  14.629  0.00  0.00    +0.000 N 
ATOM     21  H   UNL     1      48.033   6.656  14.833  0.00  0.00    +0.000 HD
BRANCH  19  22
ATOM     22  C   UNL     1      47.955   5.243  16.950  0.00  0.00    +0.000 A 
ATOM     23  C   UNL     1      47.208   4.876  18.062  0.00  0.00    +0.000 A 
ATOM     24  S   UNL     1      47.827   5.483  19.530  0.00  0.00    +0.000 S 
ATOM     25  C   UNL     1      49.143   6.215  18.739  0.00  0.00    +0.000 A 
ATOM     26  N   UNL     1      50.096   6.886  19.442  0.00  0.00    +0.000 NA
ATOM     27  C   UNL     1      51.060   7.355  18.722  0.00  0.00    +0.000 A 
ATOM     28  N   UNL     1      51.152   7.223  17.360  0.00  0.00    +0.000 N 
ATOM     29  C   UNL     1      50.176   6.620  16.603  0.00  0.00    +0.000 A 
ATOM     30  O   UNL     1      50.227   6.643  15.377  0.00  0.00    +0.000 OA
ATOM     31  C   UNL     1      49.095   6.029  17.370  0.00  0.00    +0.000 A 
ATOM     32  H   UNL     1      51.915   7.642  16.850  0.00  0.00    +0.000 HD
ENDBRANCH  19  22
ENDBRANCH   1  20
TORSDOF 7
ENDMDL
MODEL 4
REMARK VINA RESULT:    -7.805      3.616      9.461
REMARK INTER + INTRA:         -11.646
REMARK INTER:                 -10.322
REMARK INTRA:                  -1.324
REMARK UNBOUND:                -0.647
REMARK  Name = 
REMARK  7 active torsions:
REMARK  status: ('A' for Active; 'I' for Inactive)
REMARK    1  A    between atoms: C_2  and  C_20
REMARK    2  A    between atoms: N_3  and  C_4
REMARK    3  A    between atoms: C_4  and  C_5
REMARK    4  A    between atoms: C_8  and  C_9
REMARK    5  A    between atoms: C_9  and  N_10
REMARK    6  A    between atoms: N_10  and  C_11
REMARK    7  A    between atoms: C_11  and  C_12
REMARK                            x       y       z     vdW  Elec       q    Type
REMARK                         _______ _______ _______ _____ _____    ______ ____
ROOT
ATOM      1  C   UNL     1      48.513   5.655  16.062  0.00  0.00    +0.000 C 
ENDROOT
BRANCH   1   2
ATOM      2  C   UNL     1      48.081   4.944  17.356  0.00  0.00    +0.000 C 
ATOM      3  C   UNL     1      47.552   3.519  17.123  0.00  0.00    +0.000 C 
ATOM      4  C   UNL     1      48.638   2.548  16.661  0.00  0.00    +0.000 C 
ATOM      5  C   UNL     1      49.847   2.523  17.613  0.00  0.00    +0.000 C 
ATOM      6  C   UNL     1      50.356   3.945  17.923  0.00  0.00    +0.000 C 
ATOM      7  C   UNL     1      49.241   4.893  18.358  0.00  0.00    +0.000 C 
BRANCH   5   8
ATOM      8  C   UNL     1      50.971   1.642  17.022  0.00  0.00    +0.000 C 
BRANCH   8   9
ATOM      9  N   UNL     1      51.636   0.898  18.087  0.00  0.00    +0.000 NA
ATOM     10  H   UNL     1      51.170   0.005  18.235  0.00  0.00    +0.000 HD
BRANCH   9  11
ATOM     11  C   UNL     1      53.047   0.669  17.819  0.00  0.00    +0.000 C 
BRANCH  11  12
ATOM     12  C   UNL     1      53.834   1.935  18.071  0.00  0.00    +0.000 A 
ATOM     13  C   UNL     1      54.814   2.373  17.178  0.00  0.00    +0.000 A 
ATOM     14  C   UNL     1      55.517   3.530  17.478  0.00  0.00    +0.000 A 
ATOM     15  N   UNL     1      55.316   4.268  18.589  0.00  0.00    +0.000 NA
ATOM     16  C   UNL     1      54.368   3.829  19.443  0.00  0.00    +0.000 A 
ATOM     17  C   UNL     1      53.610   2.687  19.230  0.00  0.00    +0.000 A 
ENDBRANCH  11  12
ENDBRANCH   9  11
ENDBRANCH   8   9
ENDBRANCH   5   8
ENDBRANCH   1   2
BRANCH   1  20
ATOM     18  O   UNL     1      48.756   6.334  13.318  0.00  0.00    +0.000 OA
ATOM     19  C   UNL     1      47.655   6.029  13.764  0.00  0.00    +0.000 C 
ATOM     20  N   UNL     1      47.454   5.711  15.081  0.00  0.00    +0.000 N 
ATOM     21  H   UNL     1      46.543   5.385  15.381  0.00  0.00    +0.000 HD
BRANCH  19  22
ATOM     22  C   UNL     1      46.455   6.023  12.918  0.00  0.00    +0.000 A 
ATOM     23  C   UNL     1      45.992   7.210  12.365  0.00  0.00    +0.000 A 
ATOM     24  S   UNL     1      44.581   7.020  11.426  0.00  0.00    +0.000 S 
ATOM     25  C   UNL     1      44.568   5.338  11.684  0.00  0.00    +0.000 A 
ATOM     26  N   UNL     1      43.616   4.551  11.113  0.00  0.00    +0.000 NA
ATOM     27  C   UNL     1      43.748   3.290  11.356  0.00  0.00    +0.000 A 
ATOM     28  N   UNL     1      44.742   2.745  12.128  0.00  0.00    +0.000 N 
ATOM     29  C   UNL     1      45.678   3.507  12.784  0.00  0.00    +0.000 A 
ATOM     30  O   UNL     1      46.465   2.996  13.575  0.00  0.00    +0.000 OA
ATOM     31  C   UNL     1      45.604   4.930  12.502  0.00  0.00    +0.000 A 
ATOM     32  H   UNL     1      44.772   1.753  12.308  0.00  0.00    +0.000 HD
ENDBRANCH  19  22
ENDBRANCH   1  20
TORSDOF 7
ENDMDL
MODEL 5
REMARK VINA RESULT:    -7.644      3.740      8.856
REMARK INTER + INTRA:         -11.420
REMARK INTER:                  -9.426
REMARK INTRA:                  -1.994
REMARK UNBOUND:                -0.647
REMARK  Name = 
REMARK  7 active torsions:
REMARK  status: ('A' for Active; 'I' for Inactive)
REMARK    1  A    between atoms: C_2  and  C_20
REMARK    2  A    between atoms: N_3  and  C_4
REMARK    3  A    between atoms: C_4  and  C_5
REMARK    4  A    between atoms: C_8  and  C_9
REMARK    5  A    between atoms: C_9  and  N_10
REMARK    6  A    between atoms: N_10  and  C_11
REMARK    7  A    between atoms: C_11  and  C_12
REMARK                            x       y       z     vdW  Elec       q    Type
REMARK                         _______ _______ _______ _____ _____    ______ ____
ROOT
ATOM      1  C   UNL     1      49.083   6.791  15.612  0.00  0.00    +0.000 C 
ENDROOT
BRANCH   1   2
ATOM      2  C   UNL     1      49.444   8.271  15.829  0.00  0.00    +0.000 C 
ATOM      3  C   UNL     1      48.309   9.089  16.467  0.00  0.00    +0.000 C 
ATOM      4  C   UNL     1      48.026   8.690  17.915  0.00  0.00    +0.000 C 
ATOM      5  C   UNL     1      49.286   8.744  18.795  0.00  0.00    +0.000 C 
ATOM      6  C   UNL     1      50.465   7.991  18.148  0.00  0.00    +0.000 C 
ATOM      7  C   UNL     1      50.703   8.398  16.696  0.00  0.00    +0.000 C 
BRANCH   5   8
ATOM      8  C   UNL     1      48.974   8.191  20.204  0.00  0.00    +0.000 C 
BRANCH   8   9
ATOM      9  N   UNL     1      49.342   6.781  20.282  0.00  0.00    +0.000 NA
ATOM     10  H   UNL     1      49.851   6.598  21.144  0.00  0.00    +0.000 HD
BRANCH   9  11
ATOM     11  C   UNL     1      48.193   5.893  20.200  0.00  0.00    +0.000 C 
BRANCH  11  12
ATOM     12  C   UNL     1      48.303   5.014  18.975  0.00  0.00    +0.000 A 
ATOM     13  C   UNL     1      47.202   4.772  18.151  0.00  0.00    +0.000 A 
ATOM     14  C   UNL     1      47.362   3.938  17.055  0.00  0.00    +0.000 A 
ATOM     15  N   UNL     1      48.525   3.337  16.729  0.00  0.00    +0.000 NA
ATOM     16  C   UNL     1      49.578   3.579  17.538  0.00  0.00    +0.000 A 
ATOM     17  C   UNL     1      49.519   4.399  18.654  0.00  0.00    +0.000 A 
ENDBRANCH  11  12
ENDBRANCH   9  11
ENDBRANCH   8   9
ENDBRANCH   5   8
ENDBRANCH   1   2
BRANCH   1  20
ATOM     18  O   UNL     1      48.977   6.222  12.835  0.00  0.00    +0.000 OA
ATOM     19  C   UNL     1      47.930   6.327  13.464  0.00  0.00    +0.000 C 
ATOM     20  N   UNL     1      47.899   6.624  14.801  0.00  0.00    +0.000 N 
ATOM     21  H   UNL     1      47.013   6.617  15.293  0.00  0.00    +0.000 HD
BRANCH  19  22
ATOM     22  C   UNL     1      46.621   6.184  12.814  0.00  0.00    +0.000 A 
ATOM     23  C   UNL     1      45.999   7.295  12.259  0.00  0.00    +0.000 A 
ATOM     24  S   UNL     1      44.481   6.949  11.562  0.00  0.00    +0.000 S 
ATOM     25  C   UNL     1      44.625   5.295  11.932  0.00  0.00    +0.000 A 
ATOM     26  N   UNL     1      43.657   4.410  11.568  0.00  0.00    +0.000 NA
ATOM     27  C   UNL     1      43.912   3.182  11.874  0.00  0.00    +0.000 A 
ATOM     28  N   UNL     1      45.045   2.758  12.519  0.00  0.00    +0.000 N 
ATOM     29  C   UNL     1      46.012   3.624  12.972  0.00  0.00    +0.000 A 
ATOM     30  O   UNL     1      46.942   3.223  13.665  0.00  0.00    +0.000 OA
ATOM     31  C   UNL     1      45.798   5.013  12.608  0.00  0.00    +0.000 A 
ATOM     32  H   UNL     1      45.172   1.787  12.759  0.00  0.00    +0.000 HD
ENDBRANCH  19  22
ENDBRANCH   1  20
TORSDOF 7
ENDMDL
MODEL 6
REMARK VINA RESULT:    -7.459      2.152      2.697
REMARK INTER + INTRA:         -11.158
REMARK INTER:                 -10.255
REMARK INTRA:                  -0.903
REMARK UNBOUND:                -0.647
REMARK  Name = 
REMARK  7 active torsions:
REMARK  status: ('A' for Active; 'I' for Inactive)
REMARK    1  A    between atoms: C_2  and  C_20
REMARK    2  A    between atoms: N_3  and  C_4
REMARK    3  A    between atoms: C_4  and  C_5
REMARK    4  A    between atoms: C_8  and  C_9
REMARK    5  A    between atoms: C_9  and  N_10
REMARK    6  A    between atoms: N_10  and  C_11
REMARK    7  A    between atoms: C_11  and  C_12
REMARK                            x       y       z     vdW  Elec       q    Type
REMARK                         _______ _______ _______ _____ _____    ______ ____
ROOT
ATOM      1  C   UNL     1      47.122   5.898  13.350  0.00  0.00    +0.000 C 
ENDROOT
BRANCH   1   2
ATOM      2  C   UNL     1      46.209   6.786  12.487  0.00  0.00    +0.000 C 
ATOM      3  C   UNL     1      46.263   6.441  10.989  0.00  0.00    +0.000 C 
ATOM      4  C   UNL     1      45.654   5.077  10.667  0.00  0.00    +0.000 C 
ATOM      5  C   UNL     1      44.218   4.934  11.199  0.00  0.00    +0.000 C 
ATOM      6  C   UNL     1      44.118   5.341  12.683  0.00  0.00    +0.000 C 
ATOM      7  C   UNL     1      44.756   6.698  12.971  0.00  0.00    +0.000 C 
BRANCH   5   8
ATOM      8  C   UNL     1      43.710   3.492  10.978  0.00  0.00    +0.000 C 
BRANCH   8   9
ATOM      9  N   UNL     1      44.789   2.653  10.466  0.00  0.00    +0.000 NA
ATOM     10  H   UNL     1      45.004   1.913  11.132  0.00  0.00    +0.000 HD
BRANCH   9  11
ATOM     11  C   UNL     1      44.482   2.067   9.171  0.00  0.00    +0.000 C 
BRANCH  11  12
ATOM     12  C   UNL     1      45.643   2.268   8.224  0.00  0.00    +0.000 A 
ATOM     13  C   UNL     1      46.528   1.229   7.926  0.00  0.00    +0.000 A 
ATOM     14  C   UNL     1      47.586   1.483   7.068  0.00  0.00    +0.000 A 
ATOM     15  N   UNL     1      47.821   2.682   6.494  0.00  0.00    +0.000 NA
ATOM     16  C   UNL     1      46.958   3.675   6.796  0.00  0.00    +0.000 A 
ATOM     17  C   UNL     1      45.869   3.520   7.640  0.00  0.00    +0.000 A 
ENDBRANCH  11  12
ENDBRANCH   9  11
ENDBRANCH   8   9
ENDBRANCH   5   8
ENDBRANCH   1   2
BRANCH   1  20
ATOM     18  O   UNL     1      49.569   7.295  13.686  0.00  0.00    +0.000 OA
ATOM     19  C   UNL     1      48.774   7.248  14.619  0.00  0.00    +0.000 C 
ATOM     20  N   UNL     1      47.584   6.573  14.541  0.00  0.00    +0.000 N 
ATOM     21  H   UNL     1      46.926   6.635  15.309  0.00  0.00    +0.000 HD
BRANCH  19  22
ATOM     22  C   UNL     1      49.064   7.880  15.912  0.00  0.00    +0.000 A 
ATOM     23  C   UNL     1      48.900   9.251  16.065  0.00  0.00    +0.000 A 
ATOM     24  S   UNL     1      49.297   9.815  17.624  0.00  0.00    +0.000 S 
ATOM     25  C   UNL     1      49.654   8.242  18.165  0.00  0.00    +0.000 A 
ATOM     26  N   UNL     1      50.032   8.014  19.452  0.00  0.00    +0.000 NA
ATOM     27  C   UNL     1      50.230   6.771  19.739  0.00  0.00    +0.000 A 
ATOM     28  N   UNL     1      50.095   5.734  18.851  0.00  0.00    +0.000 N 
ATOM     29  C   UNL     1      49.789   5.925  17.525  0.00  0.00    +0.000 A 
ATOM     30  O   UNL     1      49.812   4.988  16.732  0.00  0.00    +0.000 OA
ATOM     31  C   UNL     1      49.505   7.302  17.162  0.00  0.00    +0.000 A 
ATOM     32  H   UNL     1      50.297   4.785  19.128  0.00  0.00    +0.000 HD
ENDBRANCH  19  22
ENDBRANCH   1  20
TORSDOF 7
ENDMDL
MODEL 7
REMARK VINA RESULT:    -7.401      2.249      2.928
REMARK INTER + INTRA:         -11.077
REMARK INTER:                  -9.766
REMARK INTRA:                  -1.311
REMARK UNBOUND:                -0.647
REMARK  Name = 
REMARK  7 active torsions:
REMARK  status: ('A' for Active; 'I' for Inactive)
REMARK    1  A    between atoms: C_2  and  C_20
REMARK    2  A    between atoms: N_3  and  C_4
REMARK    3  A    between atoms: C_4  and  C_5
REMARK    4  A    between atoms: C_8  and  C_9
REMARK    5  A    between atoms: C_9  and  N_10
REMARK    6  A    between atoms: N_10  and  C_11
REMARK    7  A    between atoms: C_11  and  C_12
REMARK                            x       y       z     vdW  Elec       q    Type
REMARK                         _______ _______ _______ _____ _____    ______ ____
ROOT
ATOM      1  C   UNL     1      47.885   8.000  13.962  0.00  0.00    +0.000 C 
ENDROOT
BRANCH   1   2
ATOM      2  C   UNL     1      48.296   6.777  13.125  0.00  0.00    +0.000 C 
ATOM      3  C   UNL     1      47.616   5.473  13.574  0.00  0.00    +0.000 C 
ATOM      4  C   UNL     1      46.111   5.461  13.304  0.00  0.00    +0.000 C 
ATOM      5  C   UNL     1      45.777   5.762  11.833  0.00  0.00    +0.000 C 
ATOM      6  C   UNL     1      46.502   7.026  11.332  0.00  0.00    +0.000 C 
ATOM      7  C   UNL     1      47.998   7.014  11.639  0.00  0.00    +0.000 C 
BRANCH   5   8
ATOM      8  C   UNL     1      44.247   5.883  11.649  0.00  0.00    +0.000 C 
BRANCH   8   9
ATOM      9  N   UNL     1      43.859   5.385  10.334  0.00  0.00    +0.000 NA
ATOM     10  H   UNL     1      44.497   5.738   9.623  0.00  0.00    +0.000 HD
BRANCH   9  11
ATOM     11  C   UNL     1      43.818   3.933  10.270  0.00  0.00    +0.000 C 
BRANCH  11  12
ATOM     12  C   UNL     1      44.844   3.429   9.281  0.00  0.00    +0.000 A 
ATOM     13  C   UNL     1      45.505   4.299   8.411  0.00  0.00    +0.000 A 
ATOM     14  C   UNL     1      46.419   3.772   7.511  0.00  0.00    +0.000 A 
ATOM     15  N   UNL     1      46.714   2.459   7.418  0.00  0.00    +0.000 NA
ATOM     16  C   UNL     1      46.063   1.632   8.263  0.00  0.00    +0.000 A 
ATOM     17  C   UNL     1      45.136   2.062   9.200  0.00  0.00    +0.000 A 
ENDBRANCH  11  12
ENDBRANCH   9  11
ENDBRANCH   8   9
ENDBRANCH   5   8
ENDBRANCH   1   2
BRANCH   1  20
ATOM     18  O   UNL     1      49.674   9.135  15.849  0.00  0.00    +0.000 OA
ATOM     19  C   UNL     1      48.817   8.347  16.235  0.00  0.00    +0.000 C 
ATOM     20  N   UNL     1      47.934   7.741  15.382  0.00  0.00    +0.000 N 
ATOM     21  H   UNL     1      47.192   7.164  15.761  0.00  0.00    +0.000 HD
BRANCH  19  22
ATOM     22  C   UNL     1      48.705   7.962  17.648  0.00  0.00    +0.000 A 
ATOM     23  C   UNL     1      48.389   8.919  18.603  0.00  0.00    +0.000 A 
ATOM     24  S   UNL     1      48.317   8.299  20.191  0.00  0.00    +0.000 S 
ATOM     25  C   UNL     1      48.656   6.722  19.651  0.00  0.00    +0.000 A 
ATOM     26  N   UNL     1      48.704   5.679  20.524  0.00  0.00    +0.000 NA
ATOM     27  C   UNL     1      48.929   4.532  19.976  0.00  0.00    +0.000 A 
ATOM     28  N   UNL     1      49.119   4.334  18.633  0.00  0.00    +0.000 N 
ATOM     29  C   UNL     1      49.153   5.365  17.725  0.00  0.00    +0.000 A 
ATOM     30  O   UNL     1      49.463   5.165  16.555  0.00  0.00    +0.000 OA
ATOM     31  C   UNL     1      48.855   6.672  18.284  0.00  0.00    +0.000 A 
ATOM     32  H   UNL     1      49.324   3.415  18.269  0.00  0.00    +0.000 HD
ENDBRANCH  19  22
ENDBRANCH   1  20
TORSDOF 7
ENDMDL
MODEL 8
REMARK VINA RESULT:    -7.290      4.309      5.095
REMARK INTER + INTRA:         -10.921
REMARK INTER:                  -9.890
REMARK INTRA:                  -1.031
REMARK UNBOUND:                -0.647
REMARK  Name = 
REMARK  7 active torsions:
REMARK  status: ('A' for Active; 'I' for Inactive)
REMARK    1  A    between atoms: C_2  and  C_20
REMARK    2  A    between atoms: N_3  and  C_4
REMARK    3  A    between atoms: C_4  and  C_5
REMARK    4  A    between atoms: C_8  and  C_9
REMARK    5  A    between atoms: C_9  and  N_10
REMARK    6  A    between atoms: N_10  and  C_11
REMARK    7  A    between atoms: C_11  and  C_12
REMARK                            x       y       z     vdW  Elec       q    Type
REMARK                         _______ _______ _______ _____ _____    ______ ____
ROOT
ATOM      1  C   UNL     1      47.974   6.041  12.658  0.00  0.00    +0.000 C 
ENDROOT
BRANCH   1   2
ATOM      2  C   UNL     1      46.632   6.289  13.367  0.00  0.00    +0.000 C 
ATOM      3  C   UNL     1      45.629   7.084  12.513  0.00  0.00    +0.000 C 
ATOM      4  C   UNL     1      45.125   6.301  11.301  0.00  0.00    +0.000 C 
ATOM      5  C   UNL     1      44.536   4.934  11.688  0.00  0.00    +0.000 C 
ATOM      6  C   UNL     1      45.490   4.142  12.604  0.00  0.00    +0.000 C 
ATOM      7  C   UNL     1      45.990   4.962  13.791  0.00  0.00    +0.000 C 
BRANCH   5   8
ATOM      8  C   UNL     1      44.182   4.129  10.417  0.00  0.00    +0.000 C 
BRANCH   8   9
ATOM      9  N   UNL     1      45.019   4.559   9.302  0.00  0.00    +0.000 NA
ATOM     10  H   UNL     1      46.002   4.408   9.522  0.00  0.00    +0.000 HD
BRANCH   9  11
ATOM     11  C   UNL     1      44.692   3.881   8.057  0.00  0.00    +0.000 C 
BRANCH  11  12
ATOM     12  C   UNL     1      45.827   2.968   7.651  0.00  0.00    +0.000 A 
ATOM     13  C   UNL     1      45.894   1.647   8.101  0.00  0.00    +0.000 A 
ATOM     14  C   UNL     1      46.972   0.867   7.711  0.00  0.00    +0.000 A 
ATOM     15  N   UNL     1      47.973   1.305   6.919  0.00  0.00    +0.000 NA
ATOM     16  C   UNL     1      47.894   2.585   6.497  0.00  0.00    +0.000 A 
ATOM     17  C   UNL     1      46.855   3.442   6.829  0.00  0.00    +0.000 A 
ENDBRANCH  11  12
ENDBRANCH   9  11
ENDBRANCH   8   9
ENDBRANCH   5   8
ENDBRANCH   1   2
BRANCH   1  20
ATOM     18  O   UNL     1      49.763   6.783  14.732  0.00  0.00    +0.000 OA
ATOM     19  C   UNL     1      49.695   7.477  13.724  0.00  0.00    +0.000 C 
ATOM     20  N   UNL     1      48.839   7.197  12.691  0.00  0.00    +0.000 N 
ATOM     21  H   UNL     1      48.882   7.753  11.845  0.00  0.00    +0.000 HD
BRANCH  19  22
ATOM     22  C   UNL     1      50.503   8.694  13.569  0.00  0.00    +0.000 A 
ATOM     23  C   UNL     1      50.540   9.634  14.590  0.00  0.00    +0.000 A 
ATOM     24  S   UNL     1      51.514  10.989  14.234  0.00  0.00    +0.000 S 
ATOM     25  C   UNL     1      51.958  10.344  12.724  0.00  0.00    +0.000 A 
ATOM     26  N   UNL     1      52.824  11.005  11.909  0.00  0.00    +0.000 NA
ATOM     27  C   UNL     1      53.108  10.383  10.813  0.00  0.00    +0.000 A 
ATOM     28  N   UNL     1      52.597   9.163  10.454  0.00  0.00    +0.000 N 
ATOM     29  C   UNL     1      51.663   8.495  11.210  0.00  0.00    +0.000 A 
ATOM     30  O   UNL     1      51.127   7.474  10.791  0.00  0.00    +0.000 OA
ATOM     31  C   UNL     1      51.348   9.127  12.478  0.00  0.00    +0.000 A 
ATOM     32  H   UNL     1      52.833   8.743   9.568  0.00  0.00    +0.000 HD
ENDBRANCH  19  22
ENDBRANCH   1  20
TORSDOF 7
ENDMDL
MODEL 9
REMARK VINA RESULT:    -7.137      3.595      9.134
REMARK INTER + INTRA:         -10.704
REMARK INTER:                  -8.766
REMARK INTRA:                  -1.939
REMARK UNBOUND:                -0.647
REMARK  Name = 
REMARK  7 active torsions:
REMARK  status: ('A' for Active; 'I' for Inactive)
REMARK    1  A    between atoms: C_2  and  C_20
REMARK    2  A    between atoms: N_3  and  C_4
REMARK    3  A    between atoms: C_4  and  C_5
REMARK    4  A    between atoms: C_8  and  C_9
REMARK    5  A    between atoms: C_9  and  N_10
REMARK    6  A    between atoms: N_10  and  C_11
REMARK    7  A    between atoms: C_11  and  C_12
REMARK                            x       y       z     vdW  Elec       q    Type
REMARK                         _______ _______ _______ _____ _____    ______ ____
ROOT
ATOM      1  C   UNL     1      48.197   5.109  15.891  0.00  0.00    +0.000 C 
ENDROOT
BRANCH   1   2
ATOM      2  C   UNL     1      47.818   3.968  16.850  0.00  0.00    +0.000 C 
ATOM      3  C   UNL     1      49.005   3.065  17.224  0.00  0.00    +0.000 C 
ATOM      4  C   UNL     1      50.047   3.775  18.087  0.00  0.00    +0.000 C 
ATOM      5  C   UNL     1      49.433   4.405  19.349  0.00  0.00    +0.000 C 
ATOM      6  C   UNL     1      48.196   5.260  19.014  0.00  0.00    +0.000 C 
ATOM      7  C   UNL     1      47.188   4.527  18.132  0.00  0.00    +0.000 C 
BRANCH   5   8
ATOM      8  C   UNL     1      50.499   5.232  20.103  0.00  0.00    +0.000 C 
BRANCH   8   9
ATOM      9  N   UNL     1      50.289   6.656  19.865  0.00  0.00    +0.000 NA
ATOM     10  H   UNL     1      50.221   7.154  20.751  0.00  0.00    +0.000 HD
BRANCH   9  11
ATOM     11  C   UNL     1      51.337   7.253  19.052  0.00  0.00    +0.000 C 
BRANCH  11  12
ATOM     12  C   UNL     1      50.792   7.621  17.692  0.00  0.00    +0.000 A 
ATOM     13  C   UNL     1      51.442   7.231  16.518  0.00  0.00    +0.000 A 
ATOM     14  C   UNL     1      50.903   7.620  15.301  0.00  0.00    +0.000 A 
ATOM     15  N   UNL     1      49.781   8.359  15.173  0.00  0.00    +0.000 NA
ATOM     16  C   UNL     1      49.168   8.729  16.318  0.00  0.00    +0.000 A 
ATOM     17  C   UNL     1      49.626   8.387  17.582  0.00  0.00    +0.000 A 
ENDBRANCH  11  12
ENDBRANCH   9  11
ENDBRANCH   8   9
ENDBRANCH   5   8
ENDBRANCH   1   2
BRANCH   1  20
ATOM     18  O   UNL     1      48.595   6.011  13.230  0.00  0.00    +0.000 OA
ATOM     19  C   UNL     1      47.456   5.769  13.616  0.00  0.00    +0.000 C 
ATOM     20  N   UNL     1      47.182   5.353  14.892  0.00  0.00    +0.000 N 
ATOM     21  H   UNL     1      46.236   5.087  15.136  0.00  0.00    +0.000 HD
BRANCH  19  22
ATOM     22  C   UNL     1      46.290   5.952  12.742  0.00  0.00    +0.000 A 
ATOM     23  C   UNL     1      45.949   7.223  12.300  0.00  0.00    +0.000 A 
ATOM     24  S   UNL     1      44.561   7.251  11.309  0.00  0.00    +0.000 S 
ATOM     25  C   UNL     1      44.397   5.560  11.395  0.00  0.00    +0.000 A 
ATOM     26  N   UNL     1      43.403   4.919  10.722  0.00  0.00    +0.000 NA
ATOM     27  C   UNL     1      43.419   3.633  10.840  0.00  0.00    +0.000 A 
ATOM     28  N   UNL     1      44.336   2.930  11.579  0.00  0.00    +0.000 N 
ATOM     29  C   UNL     1      45.309   3.539  12.334  0.00  0.00    +0.000 A 
ATOM     30  O   UNL     1      46.022   2.886  13.089  0.00  0.00    +0.000 OA
ATOM     31  C   UNL     1      45.366   4.983  12.195  0.00  0.00    +0.000 A 
ATOM     32  H   UNL     1      44.276   1.926  11.658  0.00  0.00    +0.000 HD
ENDBRANCH  19  22
ENDBRANCH   1  20
TORSDOF 7
ENDMDL
