MODEL 1
REMARK VINA RESULT:    -8.096      0.000      0.000
REMARK INTER + INTRA:          -9.878
REMARK INTER:                  -9.989
REMARK INTRA:                   0.111
REMARK UNBOUND:                 0.111
REMARK  Name = 
REMARK  4 active torsions:
REMARK  status: ('A' for Active; 'I' for Inactive)
REMARK    1  A    between atoms: C_2  and  C_3
REMARK    2  A    between atoms: C_6  and  C_7
REMARK    3  A    between atoms: C_7  and  C_8
REMARK    4  A    between atoms: C_12  and  C_13
REMARK                            x       y       z     vdW  Elec       q    Type
REMARK                         _______ _______ _______ _____ _____    ______ ____
ROOT
ATOM      1  C   UNL     1      45.535   6.090  11.108  0.00  0.00    +0.000 A 
ATOM      2  C   UNL     1      44.160   6.023  11.383  0.00  0.00    +0.000 A 
ATOM      3  C   UNL     1      43.319   5.189  10.647  0.00  0.00    +0.000 A 
ATOM      4  C   UNL     1      43.856   4.355   9.665  0.00  0.00    +0.000 A 
ATOM      5  C   UNL     1      45.227   4.386   9.364  0.00  0.00    +0.000 A 
ATOM      6  C   UNL     1      46.018   5.333  10.026  0.00  0.00    +0.000 A 
ENDROOT
BRANCH   5   7
ATOM      7  C   UNL     1      45.851   3.368   8.495  0.00  0.00    +0.000 A 
ATOM      8  C   UNL     1      46.444   3.720   7.274  0.00  0.00    +0.000 A 
ATOM      9  C   UNL     1      46.992   2.748   6.444  0.00  0.00    +0.000 A 
ATOM     10  C   UNL     1      46.916   1.427   6.846  0.00  0.00    +0.000 A 
ATOM     11  N   UNL     1      46.325   1.028   7.989  0.00  0.00    +0.000 NA
ATOM     12  C   UNL     1      45.811   2.002   8.780  0.00  0.00    +0.000 A 
ENDBRANCH   5   7
BRANCH   1  13
ATOM     13  C   UNL     1      46.530   6.763  12.050  0.00  0.00    +0.000 C 
ATOM     14  C   UNL     1      47.638   7.613  11.440  0.00  0.00    +0.000 C 
ATOM     15  C   UNL     1      46.520   8.282  12.173  0.00  0.00    +0.000 C 
BRANCH  13  19
ATOM     16  C   UNL     1      47.410   4.388  15.496  0.00  0.00    +0.000 A 
ATOM     17  N   UNL     1      48.150   5.498  15.314  0.00  0.00    +0.000 NA
ATOM     18  C   UNL     1      47.846   6.236  14.217  0.00  0.00    +0.000 A 
ATOM     19  C   UNL     1      46.840   5.939  13.304  0.00  0.00    +0.000 A 
ATOM     20  C   UNL     1      46.184   4.755  13.603  0.00  0.00    +0.000 A 
ATOM     21  N   UNL     1      46.431   3.969  14.674  0.00  0.00    +0.000 NA
BRANCH  16  23
ATOM     22  N   UNL     1      47.865   2.935  17.611  0.00  0.00    +0.000 NA
ATOM     23  C   UNL     1      47.663   3.588  16.675  0.00  0.00    +0.000 C 
ENDBRANCH  16  23
ENDBRANCH  13  19
ENDBRANCH   1  13
TORSDOF 4
ENDMDL
MODEL 2
REMARK VINA RESULT:    -7.288      1.323      6.881
REMARK INTER + INTRA:          -8.881
REMARK INTER:                  -8.838
REMARK INTRA:                  -0.043
REMARK UNBOUND:                 0.111
REMARK  Name = 
REMARK  4 active torsions:
REMARK  status: ('A' for Active; 'I' for Inactive)
REMARK    1  A    between atoms: C_2  and  C_3
REMARK    2  A    between atoms: C_6  and  C_7
REMARK    3  A    between atoms: C_7  and  C_8
REMARK    4  A    between atoms: C_12  and  C_13
REMARK                            x       y       z     vdW  Elec       q    Type
REMARK                         _______ _______ _______ _____ _____    ______ ____
ROOT
ATOM      1  C   UNL     1      45.337   5.735  12.149  0.00  0.00    +0.000 A 
ATOM      2  C   UNL     1      46.036   6.879  11.732  0.00  0.00    +0.000 A 
ATOM      3  C   UNL     1      47.119   7.367  12.465  0.00  0.00    +0.000 A 
ATOM      4  C   UNL     1      47.561   6.674  13.593  0.00  0.00    +0.000 A 
ATOM      5  C   UNL     1      46.894   5.522  14.038  0.00  0.00    +0.000 A 
ATOM      6  C   UNL     1      45.730   5.139  13.360  0.00  0.00    +0.000 A 
ENDROOT
BRANCH   5   7
ATOM      7  C   UNL     1      47.467   4.654  15.087  0.00  0.00    +0.000 A 
ATOM      8  C   UNL     1      47.943   5.188  16.293  0.00  0.00    +0.000 A 
ATOM      9  C   UNL     1      48.519   4.367  17.256  0.00  0.00    +0.000 A 
ATOM     10  C   UNL     1      48.627   3.016  16.982  0.00  0.00    +0.000 A 
ATOM     11  N   UNL     1      48.223   2.455  15.826  0.00  0.00    +0.000 NA
ATOM     12  C   UNL     1      47.657   3.281  14.914  0.00  0.00    +0.000 A 
ENDBRANCH   5   7
BRANCH   1  13
ATOM     13  C   UNL     1      44.340   5.008  11.250  0.00  0.00    +0.000 C 
ATOM     14  C   UNL     1      43.076   4.443  11.887  0.00  0.00    +0.000 C 
ATOM     15  C   UNL     1      42.977   5.640  10.996  0.00  0.00    +0.000 C 
BRANCH  13  19
ATOM     16  C   UNL     1      46.103   2.788   8.048  0.00  0.00    +0.000 A 
ATOM     17  N   UNL     1      46.119   4.130   7.942  0.00  0.00    +0.000 NA
ATOM     18  C   UNL     1      45.558   4.810   8.974  0.00  0.00    +0.000 A 
ATOM     19  C   UNL     1      45.000   4.229  10.107  0.00  0.00    +0.000 A 
ATOM     20  C   UNL     1      45.031   2.845  10.064  0.00  0.00    +0.000 A 
ATOM     21  N   UNL     1      45.570   2.100   9.073  0.00  0.00    +0.000 NA
BRANCH  16  23
ATOM     22  N   UNL     1      47.244   1.399   6.160  0.00  0.00    +0.000 NA
ATOM     23  C   UNL     1      46.729   2.016   6.996  0.00  0.00    +0.000 C 
ENDBRANCH  16  23
ENDBRANCH  13  19
ENDBRANCH   1  13
TORSDOF 4
ENDMDL
MODEL 3
REMARK VINA RESULT:    -7.224      2.299      6.801
REMARK INTER + INTRA:          -8.802
REMARK INTER:                  -8.710
REMARK INTRA:                  -0.093
REMARK UNBOUND:                 0.111
REMARK  Name = 
REMARK  4 active torsions:
REMARK  status: ('A' for Active; 'I' for Inactive)
REMARK    1  A    between atoms: C_2  and  C_3
REMARK    2  A    between atoms: C_6  and  C_7
REMARK    3  A    between atoms: C_7  and  C_8
REMARK    4  A    between atoms: C_12  and  C_13
REMARK                            x       y       z     vdW  Elec       q    Type
REMARK                         _______ _______ _______ _____ _____    ______ ____
ROOT
ATOM      1  C   UNL     1      44.767   5.623  11.668  0.00  0.00    +0.000 A 
ATOM      2  C   UNL     1      43.932   6.697  11.320  0.00  0.00    +0.000 A 
ATOM      3  C   UNL     1      44.345   8.017  11.503  0.00  0.00    +0.000 A 
ATOM      4  C   UNL     1      45.631   8.282  11.977  0.00  0.00    +0.000 A 
ATOM      5  C   UNL     1      46.499   7.236  12.329  0.00  0.00    +0.000 A 
ATOM      6  C   UNL     1      46.004   5.928  12.263  0.00  0.00    +0.000 A 
ENDROOT
BRANCH   5   7
ATOM      7  C   UNL     1      47.926   7.480  12.619  0.00  0.00    +0.000 A 
ATOM      8  C   UNL     1      48.773   8.059  11.664  0.00  0.00    +0.000 A 
ATOM      9  C   UNL     1      50.125   8.246  11.932  0.00  0.00    +0.000 A 
ATOM     10  C   UNL     1      50.611   7.827  13.156  0.00  0.00    +0.000 A 
ATOM     11  N   UNL     1      49.853   7.231  14.096  0.00  0.00    +0.000 NA
ATOM     12  C   UNL     1      48.538   7.074  13.807  0.00  0.00    +0.000 A 
ENDBRANCH   5   7
BRANCH   1  13
ATOM     13  C   UNL     1      44.482   4.187  11.235  0.00  0.00    +0.000 C 
ATOM     14  C   UNL     1      44.413   3.111  12.312  0.00  0.00    +0.000 C 
ATOM     15  C   UNL     1      43.157   3.545  11.628  0.00  0.00    +0.000 C 
BRANCH  13  19
ATOM     16  C   UNL     1      46.235   3.229   7.454  0.00  0.00    +0.000 A 
ATOM     17  N   UNL     1      45.807   2.198   8.207  0.00  0.00    +0.000 NA
ATOM     18  C   UNL     1      45.250   2.531   9.399  0.00  0.00    +0.000 A 
ATOM     19  C   UNL     1      45.083   3.827   9.872  0.00  0.00    +0.000 A 
ATOM     20  C   UNL     1      45.594   4.780   9.005  0.00  0.00    +0.000 A 
ATOM     21  N   UNL     1      46.162   4.526   7.805  0.00  0.00    +0.000 NA
BRANCH  16  23
ATOM     22  N   UNL     1      47.250   2.680   5.117  0.00  0.00    +0.000 NA
ATOM     23  C   UNL     1      46.797   2.933   6.154  0.00  0.00    +0.000 C 
ENDBRANCH  16  23
ENDBRANCH  13  19
ENDBRANCH   1  13
TORSDOF 4
ENDMDL
MODEL 4
REMARK VINA RESULT:    -6.907      1.675      2.761
REMARK INTER + INTRA:          -8.412
REMARK INTER:                  -8.088
REMARK INTRA:                  -0.324
REMARK UNBOUND:                 0.111
REMARK  Name = 
REMARK  4 active torsions:
REMARK  status: ('A' for Active; 'I' for Inactive)
REMARK    1  A    between atoms: C_2  and  C_3
REMARK    2  A    between atoms: C_6  and  C_7
REMARK    3  A    between atoms: C_7  and  C_8
REMARK    4  A    between atoms: C_12  and  C_13
REMARK                            x       y       z     vdW  Elec       q    Type
REMARK                         _______ _______ _______ _____ _____    ______ ____
ROOT
ATOM      1  C   UNL     1      47.110   7.523  12.282  0.00  0.00    +0.000 A 
ATOM      2  C   UNL     1      46.083   8.406  12.650  0.00  0.00    +0.000 A 
ATOM      3  C   UNL     1      44.783   8.237  12.172  0.00  0.00    +0.000 A 
ATOM      4  C   UNL     1      44.477   7.137  11.369  0.00  0.00    +0.000 A 
ATOM      5  C   UNL     1      45.475   6.227  10.984  0.00  0.00    +0.000 A 
ATOM      6  C   UNL     1      46.793   6.502  11.368  0.00  0.00    +0.000 A 
ENDROOT
BRANCH   5   7
ATOM      7  C   UNL     1      45.141   4.947  10.327  0.00  0.00    +0.000 A 
ATOM      8  C   UNL     1      45.588   4.658   9.030  0.00  0.00    +0.000 A 
ATOM      9  C   UNL     1      45.233   3.468   8.404  0.00  0.00    +0.000 A 
ATOM     10  C   UNL     1      44.411   2.591   9.088  0.00  0.00    +0.000 A 
ATOM     11  N   UNL     1      43.922   2.833  10.319  0.00  0.00    +0.000 NA
ATOM     12  C   UNL     1      44.296   3.997  10.904  0.00  0.00    +0.000 A 
ENDBRANCH   5   7
BRANCH   1  13
ATOM     13  C   UNL     1      48.464   7.498  12.987  0.00  0.00    +0.000 C 
ATOM     14  C   UNL     1      49.723   7.533  12.128  0.00  0.00    +0.000 C 
ATOM     15  C   UNL     1      49.349   8.737  12.933  0.00  0.00    +0.000 C 
BRANCH  13  19
ATOM     16  C   UNL     1      48.458   5.235  16.615  0.00  0.00    +0.000 A 
ATOM     17  N   UNL     1      47.706   4.765  15.602  0.00  0.00    +0.000 NA
ATOM     18  C   UNL     1      47.731   5.500  14.461  0.00  0.00    +0.000 A 
ATOM     19  C   UNL     1      48.472   6.660  14.270  0.00  0.00    +0.000 A 
ATOM     20  C   UNL     1      49.172   7.036  15.405  0.00  0.00    +0.000 A 
ATOM     21  N   UNL     1      49.196   6.358  16.574  0.00  0.00    +0.000 NA
BRANCH  16  23
ATOM     22  N   UNL     1      48.532   3.862  18.830  0.00  0.00    +0.000 NA
ATOM     23  C   UNL     1      48.503   4.465  17.840  0.00  0.00    +0.000 C 
ENDBRANCH  16  23
ENDBRANCH  13  19
ENDBRANCH   1  13
TORSDOF 4
ENDMDL
MODEL 5
REMARK VINA RESULT:    -6.891      1.960      3.227
REMARK INTER + INTRA:          -8.391
REMARK INTER:                  -7.838
REMARK INTRA:                  -0.553
REMARK UNBOUND:                 0.111
REMARK  Name = 
REMARK  4 active torsions:
REMARK  status: ('A' for Active; 'I' for Inactive)
REMARK    1  A    between atoms: C_2  and  C_3
REMARK    2  A    between atoms: C_6  and  C_7
REMARK    3  A    between atoms: C_7  and  C_8
REMARK    4  A    between atoms: C_12  and  C_13
REMARK                            x       y       z     vdW  Elec       q    Type
REMARK                         _______ _______ _______ _____ _____    ______ ____
ROOT
ATOM      1  C   UNL     1      43.852   3.962  10.851  0.00  0.00    +0.000 A 
ATOM      2  C   UNL     1      43.334   2.771  11.385  0.00  0.00    +0.000 A 
ATOM      3  C   UNL     1      43.568   1.543  10.765  0.00  0.00    +0.000 A 
ATOM      4  C   UNL     1      44.384   1.482   9.634  0.00  0.00    +0.000 A 
ATOM      5  C   UNL     1      44.927   2.649   9.074  0.00  0.00    +0.000 A 
ATOM      6  C   UNL     1      44.560   3.877   9.640  0.00  0.00    +0.000 A 
ENDROOT
BRANCH   5   7
ATOM      7  C   UNL     1      45.962   2.593   8.022  0.00  0.00    +0.000 A 
ATOM      8  C   UNL     1      46.134   3.647   7.113  0.00  0.00    +0.000 A 
ATOM      9  C   UNL     1      47.083   3.565   6.100  0.00  0.00    +0.000 A 
ATOM     10  C   UNL     1      47.835   2.409   6.003  0.00  0.00    +0.000 A 
ATOM     11  N   UNL     1      47.688   1.351   6.822  0.00  0.00    +0.000 NA
ATOM     12  C   UNL     1      46.761   1.468   7.805  0.00  0.00    +0.000 A 
ENDBRANCH   5   7
BRANCH   1  13
ATOM     13  C   UNL     1      43.862   5.275  11.630  0.00  0.00    +0.000 C 
ATOM     14  C   UNL     1      42.782   6.304  11.319  0.00  0.00    +0.000 C 
ATOM     15  C   UNL     1      42.734   5.559  12.615  0.00  0.00    +0.000 C 
BRANCH  13  19
ATOM     16  C   UNL     1      47.818   6.563  12.619  0.00  0.00    +0.000 A 
ATOM     17  N   UNL     1      47.299   7.017  11.462  0.00  0.00    +0.000 NA
ATOM     18  C   UNL     1      46.041   6.598  11.176  0.00  0.00    +0.000 A 
ATOM     19  C   UNL     1      45.270   5.768  11.982  0.00  0.00    +0.000 A 
ATOM     20  C   UNL     1      45.943   5.359  13.122  0.00  0.00    +0.000 A 
ATOM     21  N   UNL     1      47.193   5.733  13.473  0.00  0.00    +0.000 NA
BRANCH  16  23
ATOM     22  N   UNL     1      50.201   7.367  13.305  0.00  0.00    +0.000 NA
ATOM     23  C   UNL     1      49.140   7.016  12.994  0.00  0.00    +0.000 C 
ENDBRANCH  16  23
ENDBRANCH  13  19
ENDBRANCH   1  13
TORSDOF 4
ENDMDL
MODEL 6
REMARK VINA RESULT:    -6.736      3.282      5.714
REMARK INTER + INTRA:          -8.201
REMARK INTER:                  -7.761
REMARK INTRA:                  -0.439
REMARK UNBOUND:                 0.111
REMARK  Name = 
REMARK  4 active torsions:
REMARK  status: ('A' for Active; 'I' for Inactive)
REMARK    1  A    between atoms: C_2  and  C_3
REMARK    2  A    between atoms: C_6  and  C_7
REMARK    3  A    between atoms: C_7  and  C_8
REMARK    4  A    between atoms: C_12  and  C_13
REMARK                            x       y       z     vdW  Elec       q    Type
REMARK                         _______ _______ _______ _____ _____    ______ ____
ROOT
ATOM      1  C   UNL     1      47.951   4.946  15.656  0.00  0.00    +0.000 A 
ATOM      2  C   UNL     1      48.594   6.153  15.338  0.00  0.00    +0.000 A 
ATOM      3  C   UNL     1      48.268   6.858  14.178  0.00  0.00    +0.000 A 
ATOM      4  C   UNL     1      47.241   6.397  13.353  0.00  0.00    +0.000 A 
ATOM      5  C   UNL     1      46.569   5.198  13.640  0.00  0.00    +0.000 A 
ATOM      6  C   UNL     1      47.015   4.447  14.734  0.00  0.00    +0.000 A 
ENDROOT
BRANCH   5   7
ATOM      7  C   UNL     1      45.344   4.806  12.914  0.00  0.00    +0.000 A 
ATOM      8  C   UNL     1      44.180   5.585  12.978  0.00  0.00    +0.000 A 
ATOM      9  C   UNL     1      43.020   5.185  12.325  0.00  0.00    +0.000 A 
ATOM     10  C   UNL     1      43.041   3.989  11.631  0.00  0.00    +0.000 A 
ATOM     11  N   UNL     1      44.117   3.182  11.567  0.00  0.00    +0.000 NA
ATOM     12  C   UNL     1      45.234   3.608  12.205  0.00  0.00    +0.000 A 
ENDBRANCH   5   7
BRANCH   1  13
ATOM     13  C   UNL     1      48.069   4.290  17.030  0.00  0.00    +0.000 C 
ATOM     14  C   UNL     1      47.463   5.014  18.227  0.00  0.00    +0.000 C 
ATOM     15  C   UNL     1      46.808   3.772  17.711  0.00  0.00    +0.000 C 
BRANCH  13  19
ATOM     16  C   UNL     1      51.701   2.081  17.485  0.00  0.00    +0.000 A 
ATOM     17  N   UNL     1      51.716   3.368  17.880  0.00  0.00    +0.000 NA
ATOM     18  C   UNL     1      50.549   4.044  17.729  0.00  0.00    +0.000 A 
ATOM     19  C   UNL     1      49.370   3.506  17.225  0.00  0.00    +0.000 A 
ATOM     20  C   UNL     1      49.513   2.184  16.836  0.00  0.00    +0.000 A 
ATOM     21  N   UNL     1      50.641   1.448  16.954  0.00  0.00    +0.000 NA
BRANCH  16  23
ATOM     22  N   UNL     1      53.881   0.690  17.817  0.00  0.00    +0.000 NA
ATOM     23  C   UNL     1      52.907   1.302  17.665  0.00  0.00    +0.000 C 
ENDBRANCH  16  23
ENDBRANCH  13  19
ENDBRANCH   1  13
TORSDOF 4
ENDMDL
MODEL 7
REMARK VINA RESULT:    -6.099      3.352      7.157
REMARK INTER + INTRA:          -7.415
REMARK INTER:                  -7.198
REMARK INTRA:                  -0.217
REMARK UNBOUND:                 0.111
REMARK  Name = 
REMARK  4 active torsions:
REMARK  status: ('A' for Active; 'I' for Inactive)
REMARK    1  A    between atoms: C_2  and  C_3
REMARK    2  A    between atoms: C_6  and  C_7
REMARK    3  A    between atoms: C_7  and  C_8
REMARK    4  A    between atoms: C_12  and  C_13
REMARK                            x       y       z     vdW  Elec       q    Type
REMARK                         _______ _______ _______ _____ _____    ______ ____
ROOT
ATOM      1  C   UNL     1      49.301   7.690  13.985  0.00  0.00    +0.000 A 
ATOM      2  C   UNL     1      50.594   8.087  14.358  0.00  0.00    +0.000 A 
ATOM      3  C   UNL     1      51.187   7.602  15.524  0.00  0.00    +0.000 A 
ATOM      4  C   UNL     1      50.517   6.654  16.300  0.00  0.00    +0.000 A 
ATOM      5  C   UNL     1      49.225   6.226  15.957  0.00  0.00    +0.000 A 
ATOM      6  C   UNL     1      48.606   6.836  14.859  0.00  0.00    +0.000 A 
ENDROOT
BRANCH   5   7
ATOM      7  C   UNL     1      48.589   5.074  16.628  0.00  0.00    +0.000 A 
ATOM      8  C   UNL     1      49.273   4.331  17.600  0.00  0.00    +0.000 A 
ATOM      9  C   UNL     1      48.680   3.222  18.195  0.00  0.00    +0.000 A 
ATOM     10  C   UNL     1      47.409   2.864  17.786  0.00  0.00    +0.000 A 
ATOM     11  N   UNL     1      46.720   3.517  16.831  0.00  0.00    +0.000 NA
ATOM     12  C   UNL     1      47.323   4.599  16.279  0.00  0.00    +0.000 A 
ENDBRANCH   5   7
BRANCH   1  13
ATOM     13  C   UNL     1      48.724   7.968  12.599  0.00  0.00    +0.000 C 
ATOM     14  C   UNL     1      49.127   9.260  11.897  0.00  0.00    +0.000 C 
ATOM     15  C   UNL     1      49.657   7.955  11.394  0.00  0.00    +0.000 C 
BRANCH  13  19
ATOM     16  C   UNL     1      44.765   6.425  12.119  0.00  0.00    +0.000 A 
ATOM     17  N   UNL     1      44.890   7.590  12.783  0.00  0.00    +0.000 NA
ATOM     18  C   UNL     1      46.156   8.059  12.916  0.00  0.00    +0.000 A 
ATOM     19  C   UNL     1      47.296   7.444  12.413  0.00  0.00    +0.000 A 
ATOM     20  C   UNL     1      47.016   6.243  11.780  0.00  0.00    +0.000 A 
ATOM     21  N   UNL     1      45.785   5.713  11.610  0.00  0.00    +0.000 NA
BRANCH  16  23
ATOM     22  N   UNL     1      42.360   5.496  11.733  0.00  0.00    +0.000 NA
ATOM     23  C   UNL     1      43.431   5.903  11.911  0.00  0.00    +0.000 C 
ENDBRANCH  16  23
ENDBRANCH  13  19
ENDBRANCH   1  13
TORSDOF 4
ENDMDL
MODEL 8
REMARK VINA RESULT:    -5.516      4.636      6.628
REMARK INTER + INTRA:          -6.695
REMARK INTER:                  -6.342
REMARK INTRA:                  -0.352
REMARK UNBOUND:                 0.111
REMARK  Name = 
REMARK  4 active torsions:
REMARK  status: ('A' for Active; 'I' for Inactive)
REMARK    1  A    between atoms: C_2  and  C_3
REMARK    2  A    between atoms: C_6  and  C_7
REMARK    3  A    between atoms: C_7  and  C_8
REMARK    4  A    between atoms: C_12  and  C_13
REMARK                            x       y       z     vdW  Elec       q    Type
REMARK                         _______ _______ _______ _____ _____    ______ ____
ROOT
ATOM      1  C   UNL     1      47.885   5.353  15.846  0.00  0.00    +0.000 A 
ATOM      2  C   UNL     1      47.025   4.599  15.032  0.00  0.00    +0.000 A 
ATOM      3  C   UNL     1      46.924   4.853  13.664  0.00  0.00    +0.000 A 
ATOM      4  C   UNL     1      47.736   5.825  13.077  0.00  0.00    +0.000 A 
ATOM      5  C   UNL     1      48.614   6.595  13.855  0.00  0.00    +0.000 A 
ATOM      6  C   UNL     1      48.591   6.409  15.243  0.00  0.00    +0.000 A 
ENDROOT
BRANCH   5   7
ATOM      7  C   UNL     1      49.634   7.466  13.236  0.00  0.00    +0.000 A 
ATOM      8  C   UNL     1      49.730   7.597  11.844  0.00  0.00    +0.000 A 
ATOM      9  C   UNL     1      50.720   8.387  11.270  0.00  0.00    +0.000 A 
ATOM     10  C   UNL     1      51.618   9.020  12.110  0.00  0.00    +0.000 A 
ATOM     11  N   UNL     1      51.598   8.899  13.451  0.00  0.00    +0.000 NA
ATOM     12  C   UNL     1      50.613   8.131  13.977  0.00  0.00    +0.000 A 
ENDBRANCH   5   7
BRANCH   1  13
ATOM     13  C   UNL     1      48.238   4.940  17.273  0.00  0.00    +0.000 C 
ATOM     14  C   UNL     1      48.089   5.977  18.380  0.00  0.00    +0.000 C 
ATOM     15  C   UNL     1      47.125   4.836  18.309  0.00  0.00    +0.000 C 
BRANCH  13  19
ATOM     16  C   UNL     1      51.451   2.122  17.408  0.00  0.00    +0.000 A 
ATOM     17  N   UNL     1      51.744   3.398  17.724  0.00  0.00    +0.000 NA
ATOM     18  C   UNL     1      50.705   4.269  17.678  0.00  0.00    +0.000 A 
ATOM     19  C   UNL     1      49.395   3.939  17.353  0.00  0.00    +0.000 A 
ATOM     20  C   UNL     1      49.251   2.600  17.025  0.00  0.00    +0.000 A 
ATOM     21  N   UNL     1      50.236   1.675  17.046  0.00  0.00    +0.000 NA
BRANCH  16  23
ATOM     22  N   UNL     1      53.376   0.370  17.541  0.00  0.00    +0.000 NA
ATOM     23  C   UNL     1      52.514   1.143  17.484  0.00  0.00    +0.000 C 
ENDBRANCH  16  23
ENDBRANCH  13  19
ENDBRANCH   1  13
TORSDOF 4
ENDMDL
MODEL 9
REMARK VINA RESULT:    -5.502      2.744      5.648
REMARK INTER + INTRA:          -6.678
REMARK INTER:                  -6.812
REMARK INTRA:                   0.134
REMARK UNBOUND:                 0.111
REMARK  Name = 
REMARK  4 active torsions:
REMARK  status: ('A' for Active; 'I' for Inactive)
REMARK    1  A    between atoms: C_2  and  C_3
REMARK    2  A    between atoms: C_6  and  C_7
REMARK    3  A    between atoms: C_7  and  C_8
REMARK    4  A    between atoms: C_12  and  C_13
REMARK                            x       y       z     vdW  Elec       q    Type
REMARK                         _______ _______ _______ _____ _____    ______ ____
ROOT
ATOM      1  C   UNL     1      46.471   7.726  12.273  0.00  0.00    +0.000 A 
ATOM      2  C   UNL     1      45.527   8.763  12.342  0.00  0.00    +0.000 A 
ATOM      3  C   UNL     1      45.913  10.097  12.209  0.00  0.00    +0.000 A 
ATOM      4  C   UNL     1      47.246  10.409  11.934  0.00  0.00    +0.000 A 
ATOM      5  C   UNL     1      48.219   9.401  11.849  0.00  0.00    +0.000 A 
ATOM      6  C   UNL     1      47.822   8.086  12.125  0.00  0.00    +0.000 A 
ENDROOT
BRANCH   5   7
ATOM      7  C   UNL     1      49.579   9.680  11.346  0.00  0.00    +0.000 A 
ATOM      8  C   UNL     1      49.883  10.889  10.705  0.00  0.00    +0.000 A 
ATOM      9  C   UNL     1      51.157  11.124  10.197  0.00  0.00    +0.000 A 
ATOM     10  C   UNL     1      52.104  10.126  10.324  0.00  0.00    +0.000 A 
ATOM     11  N   UNL     1      51.858   8.931  10.896  0.00  0.00    +0.000 NA
ATOM     12  C   UNL     1      50.611   8.739  11.389  0.00  0.00    +0.000 A 
ENDBRANCH   5   7
BRANCH   1  13
ATOM     13  C   UNL     1      46.072   6.259  12.135  0.00  0.00    +0.000 C 
ATOM     14  C   UNL     1      44.683   5.940  11.594  0.00  0.00    +0.000 C 
ATOM     15  C   UNL     1      45.882   5.673  10.741  0.00  0.00    +0.000 C 
BRANCH  13  19
ATOM     16  C   UNL     1      47.671   3.788  15.237  0.00  0.00    +0.000 A 
ATOM     17  N   UNL     1      47.071   3.163  14.206  0.00  0.00    +0.000 NA
ATOM     18  C   UNL     1      46.578   3.970  13.234  0.00  0.00    +0.000 A 
ATOM     19  C   UNL     1      46.663   5.358  13.223  0.00  0.00    +0.000 A 
ATOM     20  C   UNL     1      47.280   5.860  14.358  0.00  0.00    +0.000 A 
ATOM     21  N   UNL     1      47.795   5.121  15.366  0.00  0.00    +0.000 NA
BRANCH  16  23
ATOM     22  N   UNL     1      48.727   2.331  17.122  0.00  0.00    +0.000 NA
ATOM     23  C   UNL     1      48.255   2.972  16.279  0.00  0.00    +0.000 C 
ENDBRANCH  16  23
ENDBRANCH  13  19
ENDBRANCH   1  13
TORSDOF 4
ENDMDL
