MODEL 1
REMARK VINA RESULT:    -8.083      0.000      0.000
REMARK INTER + INTRA:          -9.098
REMARK INTER:                  -9.973
REMARK INTRA:                   0.875
REMARK UNBOUND:                 0.875
REMARK  Name = 
REMARK  6 active torsions:
REMARK  status: ('A' for Active; 'I' for Inactive)
REMARK    1  A    between atoms: C_1  and  C_2
REMARK    2  A    between atoms: C_2  and  C_3
REMARK    3  A    between atoms: C_5  and  N_6
REMARK    4  A    between atoms: N_6  and  C_7
REMARK    5  A    between atoms: C_7  and  C_8
REMARK    6  A    between atoms: C_11  and  C_12
REMARK                            x       y       z     vdW  Elec       q    Type
REMARK                         _______ _______ _______ _____ _____    ______ ____
ROOT
ATOM      1  C   UNL     1      44.326   4.896  10.684  0.00  0.00    +0.000 C 
ATOM      2  C   UNL     1      42.846   4.740  11.001  0.00  0.00    +0.000 C 
ATOM      3  C   UNL     1      43.862   4.129  11.911  0.00  0.00    +0.000 C 
ENDROOT
BRANCH   1   4
ATOM      4  C   UNL     1      44.952   4.076   9.531  0.00  0.00    +0.000 A 
ATOM      5  N   UNL     1      44.914   2.724   9.607  0.00  0.00    +0.000 NA
ATOM      6  C   UNL     1      45.681   2.026   8.743  0.00  0.00    +0.000 A 
ATOM      7  C   UNL     1      46.449   2.613   7.766  0.00  0.00    +0.000 A 
ATOM      8  C   UNL     1      46.390   3.986   7.721  0.00  0.00    +0.000 A 
ATOM      9  N   UNL     1      45.659   4.733   8.579  0.00  0.00    +0.000 NA
BRANCH   7  10
ATOM     10  C   UNL     1      47.312   1.796   6.904  0.00  0.00    +0.000 C 
ATOM     11  N   UNL     1      48.336   2.420   6.248  0.00  0.00    +0.000 N 
ATOM     12  O   UNL     1      47.116   0.596   6.768  0.00  0.00    +0.000 OA
ATOM     13  H   UNL     1      48.404   3.422   6.134  0.00  0.00    +0.000 HD
ATOM     14  H   UNL     1      48.867   1.847   5.603  0.00  0.00    +0.000 HD
ENDBRANCH   7  10
ENDBRANCH   1   4
BRANCH   1  15
ATOM     15  N   UNL     1      44.920   6.254  10.895  0.00  0.00    +0.000 NA
ATOM     16  H   UNL     1      45.389   6.582  10.054  0.00  0.00    +0.000 HD
BRANCH  15  21
ATOM     17  C   UNL     1      47.862   7.959  13.872  0.00  0.00    +0.000 C 
ATOM     18  C   UNL     1      48.200   7.003  12.718  0.00  0.00    +0.000 C 
ATOM     19  C   UNL     1      49.546   7.431  12.117  0.00  0.00    +0.000 C 
ATOM     20  C   UNL     1      47.134   7.010  11.606  0.00  0.00    +0.000 C 
ATOM     21  C   UNL     1      45.834   6.330  12.050  0.00  0.00    +0.000 C 
ATOM     22  C   UNL     1      46.142   4.950  12.635  0.00  0.00    +0.000 C 
ATOM     23  C   UNL     1      47.225   5.025  13.696  0.00  0.00    +0.000 C 
ATOM     24  O   UNL     1      48.397   5.667  13.206  0.00  0.00    +0.000 OA
ENDBRANCH  15  21
ENDBRANCH   1  15
TORSDOF 4
ENDMDL
MODEL 2
REMARK VINA RESULT:    -7.120      5.597      8.185
REMARK INTER + INTRA:          -7.909
REMARK INTER:                  -7.729
REMARK INTRA:                  -0.181
REMARK UNBOUND:                 0.875
REMARK  Name = 
REMARK  6 active torsions:
REMARK  status: ('A' for Active; 'I' for Inactive)
REMARK    1  A    between atoms: C_1  and  C_2
REMARK    2  A    between atoms: C_2  and  C_3
REMARK    3  A    between atoms: C_5  and  N_6
REMARK    4  A    between atoms: N_6  and  C_7
REMARK    5  A    between atoms: C_7  and  C_8
REMARK    6  A    between atoms: C_11  and  C_12
REMARK                            x       y       z     vdW  Elec       q    Type
REMARK                         _______ _______ _______ _____ _____    ______ ____
ROOT
ATOM      1  C   UNL     1      47.926   3.421  16.319  0.00  0.00    +0.000 C 
ATOM      2  C   UNL     1      46.858   3.158  17.371  0.00  0.00    +0.000 C 
ATOM      3  C   UNL     1      47.241   4.566  17.047  0.00  0.00    +0.000 C 
ENDROOT
BRANCH   1   4
ATOM      4  C   UNL     1      49.412   3.155  16.656  0.00  0.00    +0.000 A 
ATOM      5  N   UNL     1      49.865   1.880  16.611  0.00  0.00    +0.000 NA
ATOM      6  C   UNL     1      51.075   1.625  17.152  0.00  0.00    +0.000 A 
ATOM      7  C   UNL     1      51.882   2.596  17.695  0.00  0.00    +0.000 A 
ATOM      8  C   UNL     1      51.373   3.872  17.653  0.00  0.00    +0.000 A 
ATOM      9  N   UNL     1      50.157   4.177  17.145  0.00  0.00    +0.000 NA
BRANCH   7  10
ATOM     10  C   UNL     1      53.158   2.237  18.328  0.00  0.00    +0.000 C 
ATOM     11  N   UNL     1      53.385   2.677  19.602  0.00  0.00    +0.000 N 
ATOM     12  O   UNL     1      53.995   1.574  17.731  0.00  0.00    +0.000 OA
ATOM     13  H   UNL     1      52.849   3.407  20.049  0.00  0.00    +0.000 HD
ATOM     14  H   UNL     1      54.302   2.478  19.984  0.00  0.00    +0.000 HD
ENDBRANCH   7  10
ENDBRANCH   1   4
BRANCH   1  15
ATOM     15  N   UNL     1      47.540   3.173  14.894  0.00  0.00    +0.000 NA
ATOM     16  H   UNL     1      48.350   2.909  14.338  0.00  0.00    +0.000 HD
BRANCH  15  21
ATOM     17  C   UNL     1      44.209   5.590  13.027  0.00  0.00    +0.000 C 
ATOM     18  C   UNL     1      45.369   4.921  12.273  0.00  0.00    +0.000 C 
ATOM     19  C   UNL     1      44.821   4.351  10.957  0.00  0.00    +0.000 C 
ATOM     20  C   UNL     1      46.023   3.781  13.075  0.00  0.00    +0.000 C 
ATOM     21  C   UNL     1      46.837   4.306  14.263  0.00  0.00    +0.000 C 
ATOM     22  C   UNL     1      47.804   5.394  13.790  0.00  0.00    +0.000 C 
ATOM     23  C   UNL     1      47.087   6.459  12.980  0.00  0.00    +0.000 C 
ATOM     24  O   UNL     1      46.357   5.892  11.897  0.00  0.00    +0.000 OA
ENDBRANCH  15  21
ENDBRANCH   1  15
TORSDOF 4
ENDMDL
MODEL 3
REMARK VINA RESULT:    -6.910      4.245      6.223
REMARK INTER + INTRA:          -7.651
REMARK INTER:                  -6.975
REMARK INTRA:                  -0.676
REMARK UNBOUND:                 0.875
REMARK  Name = 
REMARK  6 active torsions:
REMARK  status: ('A' for Active; 'I' for Inactive)
REMARK    1  A    between atoms: C_1  and  C_2
REMARK    2  A    between atoms: C_2  and  C_3
REMARK    3  A    between atoms: C_5  and  N_6
REMARK    4  A    between atoms: N_6  and  C_7
REMARK    5  A    between atoms: C_7  and  C_8
REMARK    6  A    between atoms: C_11  and  C_12
REMARK                            x       y       z     vdW  Elec       q    Type
REMARK                         _______ _______ _______ _____ _____    ______ ____
ROOT
ATOM      1  C   UNL     1      48.901   7.114  13.481  0.00  0.00    +0.000 C 
ATOM      2  C   UNL     1      49.760   7.649  12.344  0.00  0.00    +0.000 C 
ATOM      3  C   UNL     1      48.989   8.604  13.197  0.00  0.00    +0.000 C 
ENDROOT
BRANCH   1   4
ATOM      4  C   UNL     1      47.561   6.410  13.161  0.00  0.00    +0.000 A 
ATOM      5  N   UNL     1      46.466   7.176  12.944  0.00  0.00    +0.000 NA
ATOM      6  C   UNL     1      45.265   6.561  12.926  0.00  0.00    +0.000 A 
ATOM      7  C   UNL     1      45.106   5.203  13.064  0.00  0.00    +0.000 A 
ATOM      8  C   UNL     1      46.271   4.491  13.226  0.00  0.00    +0.000 A 
ATOM      9  N   UNL     1      47.496   5.060  13.277  0.00  0.00    +0.000 NA
BRANCH   7  10
ATOM     10  C   UNL     1      43.763   4.609  13.103  0.00  0.00    +0.000 C 
ATOM     11  N   UNL     1      42.690   5.455  13.112  0.00  0.00    +0.000 N 
ATOM     12  O   UNL     1      43.610   3.396  13.136  0.00  0.00    +0.000 OA
ATOM     13  H   UNL     1      42.752   6.441  13.319  0.00  0.00    +0.000 HD
ATOM     14  H   UNL     1      41.781   5.019  13.214  0.00  0.00    +0.000 HD
ENDBRANCH   7  10
ENDBRANCH   1   4
BRANCH   1  15
ATOM     15  N   UNL     1      49.626   6.590  14.682  0.00  0.00    +0.000 NA
ATOM     16  H   UNL     1      49.840   5.601  14.576  0.00  0.00    +0.000 HD
BRANCH  15  21
ATOM     17  C   UNL     1      47.882   8.789  18.224  0.00  0.00    +0.000 C 
ATOM     18  C   UNL     1      49.161   7.938  18.233  0.00  0.00    +0.000 C 
ATOM     19  C   UNL     1      50.195   8.633  19.130  0.00  0.00    +0.000 C 
ATOM     20  C   UNL     1      49.765   7.754  16.828  0.00  0.00    +0.000 C 
ATOM     21  C   UNL     1      48.916   6.824  15.953  0.00  0.00    +0.000 C 
ATOM     22  C   UNL     1      48.630   5.522  16.704  0.00  0.00    +0.000 C 
ATOM     23  C   UNL     1      48.071   5.791  18.089  0.00  0.00    +0.000 C 
ATOM     24  O   UNL     1      48.916   6.659  18.838  0.00  0.00    +0.000 OA
ENDBRANCH  15  21
ENDBRANCH   1  15
TORSDOF 4
ENDMDL
MODEL 4
REMARK VINA RESULT:    -6.713      3.313      6.800
REMARK INTER + INTRA:          -7.407
REMARK INTER:                  -7.898
REMARK INTRA:                   0.491
REMARK UNBOUND:                 0.875
REMARK  Name = 
REMARK  6 active torsions:
REMARK  status: ('A' for Active; 'I' for Inactive)
REMARK    1  A    between atoms: C_1  and  C_2
REMARK    2  A    between atoms: C_2  and  C_3
REMARK    3  A    between atoms: C_5  and  N_6
REMARK    4  A    between atoms: N_6  and  C_7
REMARK    5  A    between atoms: C_7  and  C_8
REMARK    6  A    between atoms: C_11  and  C_12
REMARK                            x       y       z     vdW  Elec       q    Type
REMARK                         _______ _______ _______ _____ _____    ______ ____
ROOT
ATOM      1  C   UNL     1      47.406   7.175  12.810  0.00  0.00    +0.000 C 
ATOM      2  C   UNL     1      47.030   8.592  13.219  0.00  0.00    +0.000 C 
ATOM      3  C   UNL     1      48.419   8.305  12.746  0.00  0.00    +0.000 C 
ENDROOT
BRANCH   1   4
ATOM      4  C   UNL     1      47.616   6.095  13.898  0.00  0.00    +0.000 A 
ATOM      5  N   UNL     1      46.829   4.993  13.872  0.00  0.00    +0.000 NA
ATOM      6  C   UNL     1      46.837   4.192  14.959  0.00  0.00    +0.000 A 
ATOM      7  C   UNL     1      47.635   4.411  16.056  0.00  0.00    +0.000 A 
ATOM      8  C   UNL     1      48.444   5.520  15.980  0.00  0.00    +0.000 A 
ATOM      9  N   UNL     1      48.455   6.369  14.927  0.00  0.00    +0.000 NA
BRANCH   7  10
ATOM     10  C   UNL     1      47.543   3.536  17.232  0.00  0.00    +0.000 C 
ATOM     11  N   UNL     1      48.648   3.417  18.028  0.00  0.00    +0.000 N 
ATOM     12  O   UNL     1      46.514   2.926  17.487  0.00  0.00    +0.000 OA
ATOM     13  H   UNL     1      49.577   3.700  17.748  0.00  0.00    +0.000 HD
ATOM     14  H   UNL     1      48.579   2.750  18.788  0.00  0.00    +0.000 HD
ENDBRANCH   7  10
ENDBRANCH   1   4
BRANCH   1  15
ATOM     15  N   UNL     1      46.837   6.676  11.517  0.00  0.00    +0.000 NA
ATOM     16  H   UNL     1      46.720   7.437  10.852  0.00  0.00    +0.000 HD
BRANCH  15  21
ATOM     17  C   UNL     1      43.988   3.210  12.059  0.00  0.00    +0.000 C 
ATOM     18  C   UNL     1      44.255   3.960  10.745  0.00  0.00    +0.000 C 
ATOM     19  C   UNL     1      44.263   2.937   9.600  0.00  0.00    +0.000 C 
ATOM     20  C   UNL     1      45.599   4.712  10.750  0.00  0.00    +0.000 C 
ATOM     21  C   UNL     1      45.571   5.935  11.672  0.00  0.00    +0.000 C 
ATOM     22  C   UNL     1      44.352   6.802  11.350  0.00  0.00    +0.000 C 
ATOM     23  C   UNL     1      43.075   5.981  11.331  0.00  0.00    +0.000 C 
ATOM     24  O   UNL     1      43.181   4.867  10.451  0.00  0.00    +0.000 OA
ENDBRANCH  15  21
ENDBRANCH   1  15
TORSDOF 4
ENDMDL
MODEL 5
REMARK VINA RESULT:    -6.596      3.273      4.990
REMARK INTER + INTRA:          -7.264
REMARK INTER:                  -7.268
REMARK INTRA:                   0.004
REMARK UNBOUND:                 0.875
REMARK  Name = 
REMARK  6 active torsions:
REMARK  status: ('A' for Active; 'I' for Inactive)
REMARK    1  A    between atoms: C_1  and  C_2
REMARK    2  A    between atoms: C_2  and  C_3
REMARK    3  A    between atoms: C_5  and  N_6
REMARK    4  A    between atoms: N_6  and  C_7
REMARK    5  A    between atoms: C_7  and  C_8
REMARK    6  A    between atoms: C_11  and  C_12
REMARK                            x       y       z     vdW  Elec       q    Type
REMARK                         _______ _______ _______ _____ _____    ______ ____
ROOT
ATOM      1  C   UNL     1      47.570   4.504  15.550  0.00  0.00    +0.000 C 
ATOM      2  C   UNL     1      46.926   4.233  16.902  0.00  0.00    +0.000 C 
ATOM      3  C   UNL     1      47.840   3.213  16.304  0.00  0.00    +0.000 C 
ENDROOT
BRANCH   1   4
ATOM      4  C   UNL     1      46.716   4.407  14.263  0.00  0.00    +0.000 A 
ATOM      5  N   UNL     1      45.822   5.393  14.007  0.00  0.00    +0.000 NA
ATOM      6  C   UNL     1      44.910   5.174  13.037  0.00  0.00    +0.000 A 
ATOM      7  C   UNL     1      44.876   4.035  12.270  0.00  0.00    +0.000 A 
ATOM      8  C   UNL     1      45.850   3.108  12.557  0.00  0.00    +0.000 A 
ATOM      9  N   UNL     1      46.771   3.266  13.534  0.00  0.00    +0.000 NA
BRANCH   7  10
ATOM     10  C   UNL     1      43.813   3.834  11.278  0.00  0.00    +0.000 C 
ATOM     11  N   UNL     1      43.724   4.727  10.247  0.00  0.00    +0.000 N 
ATOM     12  O   UNL     1      43.025   2.904  11.375  0.00  0.00    +0.000 OA
ATOM     13  H   UNL     1      44.183   5.628  10.241  0.00  0.00    +0.000 HD
ATOM     14  H   UNL     1      42.936   4.607   9.620  0.00  0.00    +0.000 HD
ENDBRANCH   7  10
ENDBRANCH   1   4
BRANCH   1  15
ATOM     15  N   UNL     1      48.658   5.532  15.517  0.00  0.00    +0.000 NA
ATOM     16  H   UNL     1      48.968   5.765  16.458  0.00  0.00    +0.000 HD
BRANCH  15  21
ATOM     17  C   UNL     1      47.374   8.219  12.118  0.00  0.00    +0.000 C 
ATOM     18  C   UNL     1      48.804   8.075  12.662  0.00  0.00    +0.000 C 
ATOM     19  C   UNL     1      49.776   8.118  11.474  0.00  0.00    +0.000 C 
ATOM     20  C   UNL     1      49.018   6.760  13.433  0.00  0.00    +0.000 C 
ATOM     21  C   UNL     1      48.294   6.759  14.784  0.00  0.00    +0.000 C 
ATOM     22  C   UNL     1      48.649   8.026  15.565  0.00  0.00    +0.000 C 
ATOM     23  C   UNL     1      48.443   9.273  14.724  0.00  0.00    +0.000 C 
ATOM     24  O   UNL     1      49.148   9.197  13.490  0.00  0.00    +0.000 OA
ENDBRANCH  15  21
ENDBRANCH   1  15
TORSDOF 4
ENDMDL
MODEL 6
REMARK VINA RESULT:    -6.523      3.697      5.958
REMARK INTER + INTRA:          -7.173
REMARK INTER:                  -7.074
REMARK INTRA:                  -0.099
REMARK UNBOUND:                 0.875
REMARK  Name = 
REMARK  6 active torsions:
REMARK  status: ('A' for Active; 'I' for Inactive)
REMARK    1  A    between atoms: C_1  and  C_2
REMARK    2  A    between atoms: C_2  and  C_3
REMARK    3  A    between atoms: C_5  and  N_6
REMARK    4  A    between atoms: N_6  and  C_7
REMARK    5  A    between atoms: C_7  and  C_8
REMARK    6  A    between atoms: C_11  and  C_12
REMARK                            x       y       z     vdW  Elec       q    Type
REMARK                         _______ _______ _______ _____ _____    ______ ____
ROOT
ATOM      1  C   UNL     1      48.246   7.140  14.031  0.00  0.00    +0.000 C 
ATOM      2  C   UNL     1      49.390   7.353  13.049  0.00  0.00    +0.000 C 
ATOM      3  C   UNL     1      48.290   8.363  13.130  0.00  0.00    +0.000 C 
ENDROOT
BRANCH   1   4
ATOM      4  C   UNL     1      47.166   6.075  13.727  0.00  0.00    +0.000 A 
ATOM      5  N   UNL     1      47.498   4.768  13.849  0.00  0.00    +0.000 NA
ATOM      6  C   UNL     1      46.646   3.855  13.337  0.00  0.00    +0.000 A 
ATOM      7  C   UNL     1      45.447   4.181  12.750  0.00  0.00    +0.000 A 
ATOM      8  C   UNL     1      45.160   5.525  12.714  0.00  0.00    +0.000 A 
ATOM      9  N   UNL     1      45.990   6.482  13.189  0.00  0.00    +0.000 NA
BRANCH   7  10
ATOM     10  C   UNL     1      44.600   3.141  12.153  0.00  0.00    +0.000 C 
ATOM     11  N   UNL     1      44.911   2.708  10.894  0.00  0.00    +0.000 N 
ATOM     12  O   UNL     1      43.641   2.683  12.758  0.00  0.00    +0.000 OA
ATOM     13  H   UNL     1      45.530   3.201  10.266  0.00  0.00    +0.000 HD
ATOM     14  H   UNL     1      44.267   2.045  10.480  0.00  0.00    +0.000 HD
ENDBRANCH   7  10
ENDBRANCH   1   4
BRANCH   1  15
ATOM     15  N   UNL     1      48.562   7.333  15.482  0.00  0.00    +0.000 NA
ATOM     16  H   UNL     1      49.086   8.192  15.631  0.00  0.00    +0.000 HD
BRANCH  15  21
ATOM     17  C   UNL     1      49.251   3.290  17.381  0.00  0.00    +0.000 C 
ATOM     18  C   UNL     1      49.248   4.641  18.114  0.00  0.00    +0.000 C 
ATOM     19  C   UNL     1      48.569   4.447  19.477  0.00  0.00    +0.000 C 
ATOM     20  C   UNL     1      48.500   5.739  17.336  0.00  0.00    +0.000 C 
ATOM     21  C   UNL     1      49.271   6.192  16.091  0.00  0.00    +0.000 C 
ATOM     22  C   UNL     1      50.711   6.543  16.472  0.00  0.00    +0.000 C 
ATOM     23  C   UNL     1      51.365   5.426  17.264  0.00  0.00    +0.000 C 
ATOM     24  O   UNL     1      50.589   5.065  18.402  0.00  0.00    +0.000 OA
ENDBRANCH  15  21
ENDBRANCH   1  15
TORSDOF 4
ENDMDL
MODEL 7
REMARK VINA RESULT:    -6.306      4.153      8.067
REMARK INTER + INTRA:          -6.905
REMARK INTER:                  -6.644
REMARK INTRA:                  -0.261
REMARK UNBOUND:                 0.875
REMARK  Name = 
REMARK  6 active torsions:
REMARK  status: ('A' for Active; 'I' for Inactive)
REMARK    1  A    between atoms: C_1  and  C_2
REMARK    2  A    between atoms: C_2  and  C_3
REMARK    3  A    between atoms: C_5  and  N_6
REMARK    4  A    between atoms: N_6  and  C_7
REMARK    5  A    between atoms: C_7  and  C_8
REMARK    6  A    between atoms: C_11  and  C_12
REMARK                            x       y       z     vdW  Elec       q    Type
REMARK                         _______ _______ _______ _____ _____    ______ ____
ROOT
ATOM      1  C   UNL     1      48.256   7.312  14.036  0.00  0.00    +0.000 C 
ATOM      2  C   UNL     1      49.057   8.404  13.341  0.00  0.00    +0.000 C 
ATOM      3  C   UNL     1      49.206   6.984  12.896  0.00  0.00    +0.000 C 
ENDROOT
BRANCH   1   4
ATOM      4  C   UNL     1      48.666   6.849  15.454  0.00  0.00    +0.000 A 
ATOM      5  N   UNL     1      48.802   5.521  15.684  0.00  0.00    +0.000 NA
ATOM      6  C   UNL     1      48.900   5.115  16.967  0.00  0.00    +0.000 A 
ATOM      7  C   UNL     1      48.920   5.977  18.037  0.00  0.00    +0.000 A 
ATOM      8  C   UNL     1      48.832   7.311  17.715  0.00  0.00    +0.000 A 
ATOM      9  N   UNL     1      48.706   7.769  16.449  0.00  0.00    +0.000 NA
BRANCH   7  10
ATOM     10  C   UNL     1      48.961   5.461  19.411  0.00  0.00    +0.000 C 
ATOM     11  N   UNL     1      47.775   5.322  20.077  0.00  0.00    +0.000 N 
ATOM     12  O   UNL     1      50.022   5.174  19.947  0.00  0.00    +0.000 OA
ATOM     13  H   UNL     1      46.910   5.754  19.783  0.00  0.00    +0.000 HD
ATOM     14  H   UNL     1      47.840   5.036  21.047  0.00  0.00    +0.000 HD
ENDBRANCH   7  10
ENDBRANCH   1   4
BRANCH   1  15
ATOM     15  N   UNL     1      46.787   7.273  13.752  0.00  0.00    +0.000 NA
ATOM     16  H   UNL     1      46.248   7.258  14.615  0.00  0.00    +0.000 HD
BRANCH  15  21
ATOM     17  C   UNL     1      45.218   5.073  10.130  0.00  0.00    +0.000 C 
ATOM     18  C   UNL     1      44.454   5.307  11.442  0.00  0.00    +0.000 C 
ATOM     19  C   UNL     1      42.986   5.599  11.099  0.00  0.00    +0.000 C 
ATOM     20  C   UNL     1      45.018   6.485  12.258  0.00  0.00    +0.000 C 
ATOM     21  C   UNL     1      46.380   6.155  12.880  0.00  0.00    +0.000 C 
ATOM     22  C   UNL     1      46.298   4.829  13.640  0.00  0.00    +0.000 C 
ATOM     23  C   UNL     1      45.701   3.732  12.778  0.00  0.00    +0.000 C 
ATOM     24  O   UNL     1      44.438   4.114  12.241  0.00  0.00    +0.000 OA
ENDBRANCH  15  21
ENDBRANCH   1  15
TORSDOF 4
ENDMDL
MODEL 8
REMARK VINA RESULT:    -6.265      3.916      5.846
REMARK INTER + INTRA:          -6.854
REMARK INTER:                  -6.440
REMARK INTRA:                  -0.415
REMARK UNBOUND:                 0.875
REMARK  Name = 
REMARK  6 active torsions:
REMARK  status: ('A' for Active; 'I' for Inactive)
REMARK    1  A    between atoms: C_1  and  C_2
REMARK    2  A    between atoms: C_2  and  C_3
REMARK    3  A    between atoms: C_5  and  N_6
REMARK    4  A    between atoms: N_6  and  C_7
REMARK    5  A    between atoms: C_7  and  C_8
REMARK    6  A    between atoms: C_11  and  C_12
REMARK                            x       y       z     vdW  Elec       q    Type
REMARK                         _______ _______ _______ _____ _____    ______ ____
ROOT
ATOM      1  C   UNL     1      47.487   4.445  15.963  0.00  0.00    +0.000 C 
ATOM      2  C   UNL     1      46.955   3.446  16.981  0.00  0.00    +0.000 C 
ATOM      3  C   UNL     1      48.293   3.218  16.355  0.00  0.00    +0.000 C 
ENDROOT
BRANCH   1   4
ATOM      4  C   UNL     1      46.890   4.473  14.536  0.00  0.00    +0.000 A 
ATOM      5  N   UNL     1      46.424   5.650  14.055  0.00  0.00    +0.000 NA
ATOM      6  C   UNL     1      45.677   5.617  12.932  0.00  0.00    +0.000 A 
ATOM      7  C   UNL     1      45.412   4.465  12.231  0.00  0.00    +0.000 A 
ATOM      8  C   UNL     1      45.967   3.321  12.755  0.00  0.00    +0.000 A 
ATOM      9  N   UNL     1      46.701   3.296  13.890  0.00  0.00    +0.000 NA
BRANCH   7  10
ATOM     10  C   UNL     1      44.535   4.493  11.054  0.00  0.00    +0.000 C 
ATOM     11  N   UNL     1      44.980   5.149   9.940  0.00  0.00    +0.000 N 
ATOM     12  O   UNL     1      43.437   3.954  11.071  0.00  0.00    +0.000 OA
ATOM     13  H   UNL     1      45.754   5.799   9.941  0.00  0.00    +0.000 HD
ATOM     14  H   UNL     1      44.324   5.215   9.171  0.00  0.00    +0.000 HD
ENDBRANCH   7  10
ENDBRANCH   1   4
BRANCH   1  15
ATOM     15  N   UNL     1      47.935   5.771  16.493  0.00  0.00    +0.000 NA
ATOM     16  H   UNL     1      47.360   6.525  16.124  0.00  0.00    +0.000 HD
BRANCH  15  21
ATOM     17  C   UNL     1      52.421   5.714  17.034  0.00  0.00    +0.000 C 
ATOM     18  C   UNL     1      51.484   6.874  17.403  0.00  0.00    +0.000 C 
ATOM     19  C   UNL     1      51.981   7.493  18.717  0.00  0.00    +0.000 C 
ATOM     20  C   UNL     1      50.023   6.425  17.586  0.00  0.00    +0.000 C 
ATOM     21  C   UNL     1      49.362   6.056  16.253  0.00  0.00    +0.000 C 
ATOM     22  C   UNL     1      49.564   7.187  15.242  0.00  0.00    +0.000 C 
ATOM     23  C   UNL     1      51.024   7.593  15.148  0.00  0.00    +0.000 C 
ATOM     24  O   UNL     1      51.561   7.921  16.424  0.00  0.00    +0.000 OA
ENDBRANCH  15  21
ENDBRANCH   1  15
TORSDOF 4
ENDMDL
MODEL 9
REMARK VINA RESULT:    -6.070      4.144      6.796
REMARK INTER + INTRA:          -6.614
REMARK INTER:                  -6.044
REMARK INTRA:                  -0.570
REMARK UNBOUND:                 0.875
REMARK  Name = 
REMARK  6 active torsions:
REMARK  status: ('A' for Active; 'I' for Inactive)
REMARK    1  A    between atoms: C_1  and  C_2
REMARK    2  A    between atoms: C_2  and  C_3
REMARK    3  A    between atoms: C_5  and  N_6
REMARK    4  A    between atoms: N_6  and  C_7
REMARK    5  A    between atoms: C_7  and  C_8
REMARK    6  A    between atoms: C_11  and  C_12
REMARK                            x       y       z     vdW  Elec       q    Type
REMARK                         _______ _______ _______ _____ _____    ______ ____
ROOT
ATOM      1  C   UNL     1      49.624   7.481  14.740  0.00  0.00    +0.000 C 
ATOM      2  C   UNL     1      50.769   8.165  14.007  0.00  0.00    +0.000 C 
ATOM      3  C   UNL     1      50.001   8.921  15.043  0.00  0.00    +0.000 C 
ENDROOT
BRANCH   1   4
ATOM      4  C   UNL     1      48.284   7.239  14.006  0.00  0.00    +0.000 A 
ATOM      5  N   UNL     1      48.097   6.053  13.378  0.00  0.00    +0.000 NA
ATOM      6  C   UNL     1      47.051   5.950  12.532  0.00  0.00    +0.000 A 
ATOM      7  C   UNL     1      46.146   6.961  12.318  0.00  0.00    +0.000 A 
ATOM      8  C   UNL     1      46.375   8.113  13.034  0.00  0.00    +0.000 A 
ATOM      9  N   UNL     1      47.422   8.277  13.875  0.00  0.00    +0.000 NA
BRANCH   7  10
ATOM     10  C   UNL     1      45.070   6.804  11.332  0.00  0.00    +0.000 C 
ATOM     11  N   UNL     1      44.045   7.709  11.353  0.00  0.00    +0.000 N 
ATOM     12  O   UNL     1      45.083   5.886  10.523  0.00  0.00    +0.000 OA
ATOM     13  H   UNL     1      43.860   8.331  12.127  0.00  0.00    +0.000 HD
ATOM     14  H   UNL     1      43.282   7.532  10.711  0.00  0.00    +0.000 HD
ENDBRANCH   7  10
ENDBRANCH   1   4
BRANCH   1  15
ATOM     15  N   UNL     1      49.999   6.437  15.745  0.00  0.00    +0.000 NA
ATOM     16  H   UNL     1      50.210   5.551  15.290  0.00  0.00    +0.000 HD
BRANCH  15  21
ATOM     17  C   UNL     1      47.534   7.194  19.457  0.00  0.00    +0.000 C 
ATOM     18  C   UNL     1      48.683   6.182  19.330  0.00  0.00    +0.000 C 
ATOM     19  C   UNL     1      49.483   6.195  20.640  0.00  0.00    +0.000 C 
ATOM     20  C   UNL     1      49.635   6.504  18.162  0.00  0.00    +0.000 C 
ATOM     21  C   UNL     1      48.986   6.238  16.800  0.00  0.00    +0.000 C 
ATOM     22  C   UNL     1      48.394   4.827  16.773  0.00  0.00    +0.000 C 
ATOM     23  C   UNL     1      47.497   4.579  17.973  0.00  0.00    +0.000 C 
ATOM     24  O   UNL     1      48.172   4.847  19.197  0.00  0.00    +0.000 OA
ENDBRANCH  15  21
ENDBRANCH   1  15
TORSDOF 4
ENDMDL
