MODEL 1
REMARK VINA RESULT:    -7.335      0.000      0.000
REMARK INTER + INTRA:         -10.937
REMARK INTER:                 -10.122
REMARK INTRA:                  -0.814
REMARK UNBOUND:                -0.814
REMARK  Name = 
REMARK  8 active torsions:
REMARK  status: ('A' for Active; 'I' for Inactive)
REMARK    1  A    between atoms: C_1  and  C_2
REMARK    2  A    between atoms: C_2  and  N_3
REMARK    3  A    between atoms: C_2  and  C_4
REMARK    4  A    between atoms: C_4  and  C_5
REMARK    5  A    between atoms: C_9  and  O_10
REMARK    6  A    between atoms: O_10  and  C_11
REMARK    7  A    between atoms: C_11  and  C_12
REMARK    8  A    between atoms: C_19  and  C_20
REMARK                            x       y       z     vdW  Elec       q    Type
REMARK                         _______ _______ _______ _____ _____    ______ ____
ROOT
ATOM      1  C   UNL     1      45.989   5.007  13.107  0.00  0.00    +0.000 A 
ATOM      2  N   UNL     1      45.122   3.951  13.139  0.00  0.00    +0.000 NA
ATOM      3  C   UNL     1      44.535   3.612  11.962  0.00  0.00    +0.000 A 
ATOM      4 CL   UNL     1      43.453   2.288  12.077  0.00  0.00    +0.000 Cl
ATOM      5  C   UNL     1      44.820   4.273  10.769  0.00  0.00    +0.000 A 
ATOM      6  N   UNL     1      45.668   5.326  10.732  0.00  0.00    +0.000 NA
ATOM      7  C   UNL     1      46.235   5.691  11.918  0.00  0.00    +0.000 A 
ENDROOT
BRANCH   7   8
ATOM      8  C   UNL     1      47.124   6.808  11.836  0.00  0.00    +0.000 C 
ATOM      9  N   UNL     1      47.863   7.707  11.779  0.00  0.00    +0.000 NA
ENDBRANCH   7   8
BRANCH   1  10
ATOM     10  C   UNL     1      46.647   5.386  14.415  0.00  0.00    +0.000 C 
BRANCH  10  12
ATOM     11  C   UNL     1      47.195   4.249  16.683  0.00  0.00    +0.000 C 
ATOM     12  C   UNL     1      47.221   4.220  15.183  0.00  0.00    +0.000 C 
BRANCH  12  13
ATOM     13  N   UNL     1      47.572   3.018  14.518  0.00  0.00    +0.000 NA
ATOM     14  H   UNL     1      47.763   3.014  13.521  0.00  0.00    +0.000 HD
ATOM     15  H   UNL     1      47.391   2.104  14.920  0.00  0.00    +0.000 HD
ENDBRANCH  12  13
ENDBRANCH  10  12
ENDBRANCH   1  10
BRANCH   5  16
ATOM     16  O   UNL     1      44.205   3.886   9.595  0.00  0.00    +0.000 OA
BRANCH  16  17
ATOM     17  C   UNL     1      44.940   4.295   8.435  0.00  0.00    +0.000 C 
BRANCH  17  18
ATOM     18  C   UNL     1      45.813   3.162   7.951  0.00  0.00    +0.000 A 
ATOM     19  C   UNL     1      46.821   3.395   7.007  0.00  0.00    +0.000 A 
ATOM     20  C   UNL     1      47.597   2.329   6.580  0.00  0.00    +0.000 A 
ATOM     21  N   UNL     1      47.452   1.067   7.035  0.00  0.00    +0.000 NA
ATOM     22  C   UNL     1      46.489   0.865   7.961  0.00  0.00    +0.000 A 
ATOM     23  C   UNL     1      45.661   1.866   8.448  0.00  0.00    +0.000 A 
ENDBRANCH  17  18
ENDBRANCH  16  17
ENDBRANCH   5  16
TORSDOF 7
ENDMDL
MODEL 2
REMARK VINA RESULT:    -6.288      2.263      3.536
REMARK INTER + INTRA:          -9.492
REMARK INTER:                  -8.700
REMARK INTRA:                  -0.792
REMARK UNBOUND:                -0.814
REMARK  Name = 
REMARK  8 active torsions:
REMARK  status: ('A' for Active; 'I' for Inactive)
REMARK    1  A    between atoms: C_1  and  C_2
REMARK    2  A    between atoms: C_2  and  N_3
REMARK    3  A    between atoms: C_2  and  C_4
REMARK    4  A    between atoms: C_4  and  C_5
REMARK    5  A    between atoms: C_9  and  O_10
REMARK    6  A    between atoms: O_10  and  C_11
REMARK    7  A    between atoms: C_11  and  C_12
REMARK    8  A    between atoms: C_19  and  C_20
REMARK                            x       y       z     vdW  Elec       q    Type
REMARK                         _______ _______ _______ _____ _____    ______ ____
ROOT
ATOM      1  C   UNL     1      45.494   7.567  12.379  0.00  0.00    +0.000 A 
ATOM      2  N   UNL     1      44.184   7.183  12.312  0.00  0.00    +0.000 NA
ATOM      3  C   UNL     1      43.942   5.940  11.818  0.00  0.00    +0.000 A 
ATOM      4 CL   UNL     1      42.280   5.527  11.752  0.00  0.00    +0.000 Cl
ATOM      5  C   UNL     1      44.966   5.077  11.433  0.00  0.00    +0.000 A 
ATOM      6  N   UNL     1      46.264   5.456  11.487  0.00  0.00    +0.000 NA
ATOM      7  C   UNL     1      46.510   6.715  11.951  0.00  0.00    +0.000 A 
ENDROOT
BRANCH   7   8
ATOM      8  C   UNL     1      47.893   7.076  11.991  0.00  0.00    +0.000 C 
ATOM      9  N   UNL     1      49.023   7.354  12.038  0.00  0.00    +0.000 NA
ENDBRANCH   7   8
BRANCH   1  10
ATOM     10  C   UNL     1      45.769   8.949  12.931  0.00  0.00    +0.000 C 
BRANCH  10  12
ATOM     11  C   UNL     1      45.931  10.927  11.260  0.00  0.00    +0.000 C 
ATOM     12  C   UNL     1      45.102  10.067  12.167  0.00  0.00    +0.000 C 
BRANCH  12  13
ATOM     13  N   UNL     1      43.688  10.169  12.120  0.00  0.00    +0.000 NA
ATOM     14  H   UNL     1      43.133   9.457  11.656  0.00  0.00    +0.000 HD
ATOM     15  H   UNL     1      43.203  11.044  12.292  0.00  0.00    +0.000 HD
ENDBRANCH  12  13
ENDBRANCH  10  12
ENDBRANCH   1  10
BRANCH   5  16
ATOM     16  O   UNL     1      44.671   3.820  10.946  0.00  0.00    +0.000 OA
BRANCH  16  17
ATOM     17  C   UNL     1      44.261   3.850   9.573  0.00  0.00    +0.000 C 
BRANCH  17  18
ATOM     18  C   UNL     1      45.306   3.189   8.707  0.00  0.00    +0.000 A 
ATOM     19  C   UNL     1      46.098   3.953   7.841  0.00  0.00    +0.000 A 
ATOM     20  C   UNL     1      47.042   3.310   7.055  0.00  0.00    +0.000 A 
ATOM     21  N   UNL     1      47.260   1.979   7.085  0.00  0.00    +0.000 NA
ATOM     22  C   UNL     1      46.502   1.261   7.941  0.00  0.00    +0.000 A 
ATOM     23  C   UNL     1      45.531   1.812   8.766  0.00  0.00    +0.000 A 
ENDBRANCH  17  18
ENDBRANCH  16  17
ENDBRANCH   5  16
TORSDOF 7
ENDMDL
MODEL 3
REMARK VINA RESULT:    -6.233      2.172      2.940
REMARK INTER + INTRA:          -9.416
REMARK INTER:                  -8.422
REMARK INTRA:                  -0.994
REMARK UNBOUND:                -0.814
REMARK  Name = 
REMARK  8 active torsions:
REMARK  status: ('A' for Active; 'I' for Inactive)
REMARK    1  A    between atoms: C_1  and  C_2
REMARK    2  A    between atoms: C_2  and  N_3
REMARK    3  A    between atoms: C_2  and  C_4
REMARK    4  A    between atoms: C_4  and  C_5
REMARK    5  A    between atoms: C_9  and  O_10
REMARK    6  A    between atoms: O_10  and  C_11
REMARK    7  A    between atoms: C_11  and  C_12
REMARK    8  A    between atoms: C_19  and  C_20
REMARK                            x       y       z     vdW  Elec       q    Type
REMARK                         _______ _______ _______ _____ _____    ______ ____
ROOT
ATOM      1  C   UNL     1      46.839   7.055  13.243  0.00  0.00    +0.000 A 
ATOM      2  N   UNL     1      47.040   5.718  13.437  0.00  0.00    +0.000 NA
ATOM      3  C   UNL     1      46.114   4.881  12.898  0.00  0.00    +0.000 A 
ATOM      4 CL   UNL     1      46.423   3.220  13.189  0.00  0.00    +0.000 Cl
ATOM      5  C   UNL     1      45.034   5.345  12.152  0.00  0.00    +0.000 A 
ATOM      6  N   UNL     1      44.823   6.668  11.966  0.00  0.00    +0.000 NA
ATOM      7  C   UNL     1      45.731   7.514  12.533  0.00  0.00    +0.000 A 
ENDROOT
BRANCH   7   8
ATOM      8  C   UNL     1      45.471   8.903  12.314  0.00  0.00    +0.000 C 
ATOM      9  N   UNL     1      45.263  10.031  12.114  0.00  0.00    +0.000 NA
ENDBRANCH   7   8
BRANCH   1  10
ATOM     10  C   UNL     1      47.868   7.990  13.839  0.00  0.00    +0.000 C 
BRANCH  10  12
ATOM     11  C   UNL     1      50.228   7.633  14.856  0.00  0.00    +0.000 C 
ATOM     12  C   UNL     1      49.295   7.523  13.687  0.00  0.00    +0.000 C 
BRANCH  12  13
ATOM     13  N   UNL     1      49.697   6.785  12.544  0.00  0.00    +0.000 NA
ATOM     14  H   UNL     1      50.544   7.030  12.041  0.00  0.00    +0.000 HD
ATOM     15  H   UNL     1      49.056   6.187  12.033  0.00  0.00    +0.000 HD
ENDBRANCH  12  13
ENDBRANCH  10  12
ENDBRANCH   1  10
BRANCH   5  16
ATOM     16  O   UNL     1      44.125   4.455  11.617  0.00  0.00    +0.000 OA
BRANCH  16  17
ATOM     17  C   UNL     1      43.849   4.723  10.236  0.00  0.00    +0.000 C 
BRANCH  17  18
ATOM     18  C   UNL     1      44.717   3.854   9.358  0.00  0.00    +0.000 A 
ATOM     19  C   UNL     1      44.700   2.460   9.498  0.00  0.00    +0.000 A 
ATOM     20  C   UNL     1      45.517   1.696   8.680  0.00  0.00    +0.000 A 
ATOM     21  N   UNL     1      46.325   2.214   7.732  0.00  0.00    +0.000 NA
ATOM     22  C   UNL     1      46.312   3.558   7.597  0.00  0.00    +0.000 A 
ATOM     23  C   UNL     1      45.533   4.408   8.369  0.00  0.00    +0.000 A 
ENDBRANCH  17  18
ENDBRANCH  16  17
ENDBRANCH   5  16
TORSDOF 7
ENDMDL
MODEL 4
REMARK VINA RESULT:    -6.176      2.103      3.263
REMARK INTER + INTRA:          -9.337
REMARK INTER:                  -8.656
REMARK INTRA:                  -0.681
REMARK UNBOUND:                -0.814
REMARK  Name = 
REMARK  8 active torsions:
REMARK  status: ('A' for Active; 'I' for Inactive)
REMARK    1  A    between atoms: C_1  and  C_2
REMARK    2  A    between atoms: C_2  and  N_3
REMARK    3  A    between atoms: C_2  and  C_4
REMARK    4  A    between atoms: C_4  and  C_5
REMARK    5  A    between atoms: C_9  and  O_10
REMARK    6  A    between atoms: O_10  and  C_11
REMARK    7  A    between atoms: C_11  and  C_12
REMARK    8  A    between atoms: C_19  and  C_20
REMARK                            x       y       z     vdW  Elec       q    Type
REMARK                         _______ _______ _______ _____ _____    ______ ____
ROOT
ATOM      1  C   UNL     1      46.826   6.159  13.591  0.00  0.00    +0.000 A 
ATOM      2  N   UNL     1      46.199   7.122  12.851  0.00  0.00    +0.000 NA
ATOM      3  C   UNL     1      45.247   6.694  11.981  0.00  0.00    +0.000 A 
ATOM      4 CL   UNL     1      44.510   7.951  11.079  0.00  0.00    +0.000 Cl
ATOM      5  C   UNL     1      44.891   5.352  11.866  0.00  0.00    +0.000 A 
ATOM      6  N   UNL     1      45.516   4.393  12.587  0.00  0.00    +0.000 NA
ATOM      7  C   UNL     1      46.496   4.814  13.438  0.00  0.00    +0.000 A 
ENDROOT
BRANCH   7   8
ATOM      8  C   UNL     1      47.131   3.770  14.180  0.00  0.00    +0.000 C 
ATOM      9  N   UNL     1      47.660   2.934  14.795  0.00  0.00    +0.000 NA
ENDBRANCH   7   8
BRANCH   1  10
ATOM     10  C   UNL     1      47.885   6.631  14.563  0.00  0.00    +0.000 C 
BRANCH  10  12
ATOM     11  C   UNL     1      50.293   7.574  14.773  0.00  0.00    +0.000 C 
ATOM     12  C   UNL     1      49.190   7.027  13.916  0.00  0.00    +0.000 C 
BRANCH  12  13
ATOM     13  N   UNL     1      49.463   6.684  12.567  0.00  0.00    +0.000 NA
ATOM     14  H   UNL     1      49.191   7.303  11.811  0.00  0.00    +0.000 HD
ATOM     15  H   UNL     1      49.679   5.734  12.284  0.00  0.00    +0.000 HD
ENDBRANCH  12  13
ENDBRANCH  10  12
ENDBRANCH   1  10
BRANCH   5  16
ATOM     16  O   UNL     1      43.911   4.966  10.974  0.00  0.00    +0.000 OA
BRANCH  16  17
ATOM     17  C   UNL     1      43.954   3.562  10.691  0.00  0.00    +0.000 C 
BRANCH  17  18
ATOM     18  C   UNL     1      44.856   3.299   9.510  0.00  0.00    +0.000 A 
ATOM     19  C   UNL     1      45.255   1.994   9.196  0.00  0.00    +0.000 A 
ATOM     20  C   UNL     1      46.091   1.793   8.109  0.00  0.00    +0.000 A 
ATOM     21  N   UNL     1      46.537   2.786   7.313  0.00  0.00    +0.000 NA
ATOM     22  C   UNL     1      46.124   4.036   7.617  0.00  0.00    +0.000 A 
ATOM     23  C   UNL     1      45.291   4.339   8.685  0.00  0.00    +0.000 A 
ENDBRANCH  17  18
ENDBRANCH  16  17
ENDBRANCH   5  16
TORSDOF 7
ENDMDL
MODEL 5
REMARK VINA RESULT:    -6.038      2.648      7.489
REMARK INTER + INTRA:          -9.147
REMARK INTER:                  -8.529
REMARK INTRA:                  -0.618
REMARK UNBOUND:                -0.814
REMARK  Name = 
REMARK  8 active torsions:
REMARK  status: ('A' for Active; 'I' for Inactive)
REMARK    1  A    between atoms: C_1  and  C_2
REMARK    2  A    between atoms: C_2  and  N_3
REMARK    3  A    between atoms: C_2  and  C_4
REMARK    4  A    between atoms: C_4  and  C_5
REMARK    5  A    between atoms: C_9  and  O_10
REMARK    6  A    between atoms: O_10  and  C_11
REMARK    7  A    between atoms: C_11  and  C_12
REMARK    8  A    between atoms: C_19  and  C_20
REMARK                            x       y       z     vdW  Elec       q    Type
REMARK                         _______ _______ _______ _____ _____    ______ ____
ROOT
ATOM      1  C   UNL     1      45.158   4.734  10.870  0.00  0.00    +0.000 A 
ATOM      2  N   UNL     1      46.080   5.731  11.018  0.00  0.00    +0.000 NA
ATOM      3  C   UNL     1      46.604   5.892  12.262  0.00  0.00    +0.000 A 
ATOM      4 CL   UNL     1      47.745   7.166  12.378  0.00  0.00    +0.000 Cl
ATOM      5  C   UNL     1      46.258   5.067  13.330  0.00  0.00    +0.000 A 
ATOM      6  N   UNL     1      45.337   4.085  13.192  0.00  0.00    +0.000 NA
ATOM      7  C   UNL     1      44.784   3.941  11.954  0.00  0.00    +0.000 A 
ENDROOT
BRANCH   7   8
ATOM      8  C   UNL     1      43.816   2.894  11.851  0.00  0.00    +0.000 C 
ATOM      9  N   UNL     1      43.016   2.052  11.753  0.00  0.00    +0.000 NA
ENDBRANCH   7   8
BRANCH   1  10
ATOM     10  C   UNL     1      44.573   4.549   9.487  0.00  0.00    +0.000 C 
BRANCH  10  12
ATOM     11  C   UNL     1      45.342   2.264   8.526  0.00  0.00    +0.000 C 
ATOM     12  C   UNL     1      45.448   3.761   8.543  0.00  0.00    +0.000 C 
BRANCH  12  13
ATOM     13  N   UNL     1      46.192   4.416   7.528  0.00  0.00    +0.000 NA
ATOM     14  H   UNL     1      47.182   4.603   7.651  0.00  0.00    +0.000 HD
ATOM     15  H   UNL     1      45.746   4.950   6.789  0.00  0.00    +0.000 HD
ENDBRANCH  12  13
ENDBRANCH  10  12
ENDBRANCH   1  10
BRANCH   5  16
ATOM     16  O   UNL     1      46.825   5.264  14.573  0.00  0.00    +0.000 OA
BRANCH  16  17
ATOM     17  C   UNL     1      47.127   4.029  15.235  0.00  0.00    +0.000 C 
BRANCH  17  18
ATOM     18  C   UNL     1      47.863   4.301  16.525  0.00  0.00    +0.000 A 
ATOM     19  C   UNL     1      47.926   3.324  17.527  0.00  0.00    +0.000 A 
ATOM     20  C   UNL     1      48.604   3.614  18.701  0.00  0.00    +0.000 A 
ATOM     21  N   UNL     1      49.229   4.785  18.936  0.00  0.00    +0.000 NA
ATOM     22  C   UNL     1      49.176   5.707  17.950  0.00  0.00    +0.000 A 
ATOM     23  C   UNL     1      48.521   5.513  16.742  0.00  0.00    +0.000 A 
ENDBRANCH  17  18
ENDBRANCH  16  17
ENDBRANCH   5  16
TORSDOF 7
ENDMDL
MODEL 6
REMARK VINA RESULT:    -5.709      3.410      5.193
REMARK INTER + INTRA:          -8.692
REMARK INTER:                  -7.884
REMARK INTRA:                  -0.808
REMARK UNBOUND:                -0.814
REMARK  Name = 
REMARK  8 active torsions:
REMARK  status: ('A' for Active; 'I' for Inactive)
REMARK    1  A    between atoms: C_1  and  C_2
REMARK    2  A    between atoms: C_2  and  N_3
REMARK    3  A    between atoms: C_2  and  C_4
REMARK    4  A    between atoms: C_4  and  C_5
REMARK    5  A    between atoms: C_9  and  O_10
REMARK    6  A    between atoms: O_10  and  C_11
REMARK    7  A    between atoms: C_11  and  C_12
REMARK    8  A    between atoms: C_19  and  C_20
REMARK                            x       y       z     vdW  Elec       q    Type
REMARK                         _______ _______ _______ _____ _____    ______ ____
ROOT
ATOM      1  C   UNL     1      48.752   5.618  16.238  0.00  0.00    +0.000 A 
ATOM      2  N   UNL     1      49.215   6.558  15.362  0.00  0.00    +0.000 NA
ATOM      3  C   UNL     1      48.574   6.640  14.166  0.00  0.00    +0.000 A 
ATOM      4 CL   UNL     1      49.213   7.831  13.112  0.00  0.00    +0.000 Cl
ATOM      5  C   UNL     1      47.478   5.841  13.852  0.00  0.00    +0.000 A 
ATOM      6  N   UNL     1      47.021   4.900  14.711  0.00  0.00    +0.000 NA
ATOM      7  C   UNL     1      47.683   4.792  15.899  0.00  0.00    +0.000 A 
ENDROOT
BRANCH   7   8
ATOM      8  C   UNL     1      47.170   3.787  16.778  0.00  0.00    +0.000 C 
ATOM      9  N   UNL     1      46.754   2.953  17.477  0.00  0.00    +0.000 NA
ENDBRANCH   7   8
BRANCH   1  10
ATOM     10  C   UNL     1      49.461   5.525  17.572  0.00  0.00    +0.000 C 
BRANCH  10  12
ATOM     11  C   UNL     1      50.909   3.379  17.742  0.00  0.00    +0.000 C 
ATOM     12  C   UNL     1      50.814   4.858  17.511  0.00  0.00    +0.000 C 
BRANCH  12  13
ATOM     13  N   UNL     1      51.946   5.560  17.024  0.00  0.00    +0.000 NA
ATOM     14  H   UNL     1      51.995   6.572  17.088  0.00  0.00    +0.000 HD
ATOM     15  H   UNL     1      52.603   5.142  16.373  0.00  0.00    +0.000 HD
ENDBRANCH  12  13
ENDBRANCH  10  12
ENDBRANCH   1  10
BRANCH   5  16
ATOM     16  O   UNL     1      46.853   5.967  12.627  0.00  0.00    +0.000 OA
BRANCH  16  17
ATOM     17  C   UNL     1      45.429   6.076  12.751  0.00  0.00    +0.000 C 
BRANCH  17  18
ATOM     18  C   UNL     1      44.759   4.928  12.037  0.00  0.00    +0.000 A 
ATOM     19  C   UNL     1      44.840   4.812  10.643  0.00  0.00    +0.000 A 
ATOM     20  C   UNL     1      44.204   3.749  10.022  0.00  0.00    +0.000 A 
ATOM     21  N   UNL     1      43.517   2.796  10.685  0.00  0.00    +0.000 NA
ATOM     22  C   UNL     1      43.467   2.911  12.030  0.00  0.00    +0.000 A 
ATOM     23  C   UNL     1      44.067   3.940  12.742  0.00  0.00    +0.000 A 
ENDBRANCH  17  18
ENDBRANCH  16  17
ENDBRANCH   5  16
TORSDOF 7
ENDMDL
MODEL 7
REMARK VINA RESULT:    -5.696      3.413      7.264
REMARK INTER + INTRA:          -8.674
REMARK INTER:                  -7.673
REMARK INTRA:                  -1.001
REMARK UNBOUND:                -0.814
REMARK  Name = 
REMARK  8 active torsions:
REMARK  status: ('A' for Active; 'I' for Inactive)
REMARK    1  A    between atoms: C_1  and  C_2
REMARK    2  A    between atoms: C_2  and  N_3
REMARK    3  A    between atoms: C_2  and  C_4
REMARK    4  A    between atoms: C_4  and  C_5
REMARK    5  A    between atoms: C_9  and  O_10
REMARK    6  A    between atoms: O_10  and  C_11
REMARK    7  A    between atoms: C_11  and  C_12
REMARK    8  A    between atoms: C_19  and  C_20
REMARK                            x       y       z     vdW  Elec       q    Type
REMARK                         _______ _______ _______ _____ _____    ______ ____
ROOT
ATOM      1  C   UNL     1      45.047   5.056  13.018  0.00  0.00    +0.000 A 
ATOM      2  N   UNL     1      45.687   4.123  13.783  0.00  0.00    +0.000 NA
ATOM      3  C   UNL     1      46.913   4.467  14.259  0.00  0.00    +0.000 A 
ATOM      4 CL   UNL     1      47.663   3.247  15.201  0.00  0.00    +0.000 Cl
ATOM      5  C   UNL     1      47.483   5.715  14.020  0.00  0.00    +0.000 A 
ATOM      6  N   UNL     1      46.858   6.640  13.254  0.00  0.00    +0.000 NA
ATOM      7  C   UNL     1      45.643   6.287  12.746  0.00  0.00    +0.000 A 
ENDROOT
BRANCH   7   8
ATOM      8  C   UNL     1      45.018   7.290  11.942  0.00  0.00    +0.000 C 
ATOM      9  N   UNL     1      44.512   8.122  11.303  0.00  0.00    +0.000 NA
ENDBRANCH   7   8
BRANCH   1  10
ATOM     10  C   UNL     1      43.681   4.679  12.488  0.00  0.00    +0.000 C 
BRANCH  10  12
ATOM     11  C   UNL     1      44.018   3.337  10.293  0.00  0.00    +0.000 C 
ATOM     12  C   UNL     1      43.644   3.366  11.745  0.00  0.00    +0.000 C 
BRANCH  12  13
ATOM     13  N   UNL     1      43.481   2.143  12.445  0.00  0.00    +0.000 NA
ATOM     14  H   UNL     1      44.246   1.479  12.511  0.00  0.00    +0.000 HD
ATOM     15  H   UNL     1      42.566   1.763  12.666  0.00  0.00    +0.000 HD
ENDBRANCH  12  13
ENDBRANCH  10  12
ENDBRANCH   1  10
BRANCH   5  16
ATOM     16  O   UNL     1      48.727   6.022  14.534  0.00  0.00    +0.000 OA
BRANCH  16  17
ATOM     17  C   UNL     1      48.645   6.816  15.724  0.00  0.00    +0.000 C 
BRANCH  17  18
ATOM     18  C   UNL     1      49.054   5.994  16.923  0.00  0.00    +0.000 A 
ATOM     19  C   UNL     1      50.377   5.557  17.066  0.00  0.00    +0.000 A 
ATOM     20  C   UNL     1      50.713   4.797  18.176  0.00  0.00    +0.000 A 
ATOM     21  N   UNL     1      49.840   4.462  19.147  0.00  0.00    +0.000 NA
ATOM     22  C   UNL     1      48.573   4.910  19.003  0.00  0.00    +0.000 A 
ATOM     23  C   UNL     1      48.139   5.673  17.928  0.00  0.00    +0.000 A 
ENDBRANCH  17  18
ENDBRANCH  16  17
ENDBRANCH   5  16
TORSDOF 7
ENDMDL
MODEL 8
REMARK VINA RESULT:    -5.528      3.207      6.688
REMARK INTER + INTRA:          -8.443
REMARK INTER:                  -7.523
REMARK INTRA:                  -0.920
REMARK UNBOUND:                -0.814
REMARK  Name = 
REMARK  8 active torsions:
REMARK  status: ('A' for Active; 'I' for Inactive)
REMARK    1  A    between atoms: C_1  and  C_2
REMARK    2  A    between atoms: C_2  and  N_3
REMARK    3  A    between atoms: C_2  and  C_4
REMARK    4  A    between atoms: C_4  and  C_5
REMARK    5  A    between atoms: C_9  and  O_10
REMARK    6  A    between atoms: O_10  and  C_11
REMARK    7  A    between atoms: C_11  and  C_12
REMARK    8  A    between atoms: C_19  and  C_20
REMARK                            x       y       z     vdW  Elec       q    Type
REMARK                         _______ _______ _______ _____ _____    ______ ____
ROOT
ATOM      1  C   UNL     1      45.084   5.222  11.725  0.00  0.00    +0.000 A 
ATOM      2  N   UNL     1      44.528   6.358  11.209  0.00  0.00    +0.000 NA
ATOM      3  C   UNL     1      44.923   7.534  11.766  0.00  0.00    +0.000 A 
ATOM      4 CL   UNL     1      44.179   8.916  11.078  0.00  0.00    +0.000 Cl
ATOM      5  C   UNL     1      45.871   7.595  12.784  0.00  0.00    +0.000 A 
ATOM      6  N   UNL     1      46.417   6.473  13.307  0.00  0.00    +0.000 NA
ATOM      7  C   UNL     1      45.999   5.289  12.774  0.00  0.00    +0.000 A 
ENDROOT
BRANCH   7   8
ATOM      8  C   UNL     1      46.599   4.128  13.355  0.00  0.00    +0.000 C 
ATOM      9  N   UNL     1      47.090   3.194  13.847  0.00  0.00    +0.000 NA
ENDBRANCH   7   8
BRANCH   1  10
ATOM     10  C   UNL     1      44.650   3.912  11.106  0.00  0.00    +0.000 C 
BRANCH  10  12
ATOM     11  C   UNL     1      45.031   2.370   9.054  0.00  0.00    +0.000 C 
ATOM     12  C   UNL     1      45.057   3.741   9.663  0.00  0.00    +0.000 C 
BRANCH  12  13
ATOM     13  N   UNL     1      45.242   4.870   8.825  0.00  0.00    +0.000 NA
ATOM     14  H   UNL     1      44.619   5.042   8.043  0.00  0.00    +0.000 HD
ATOM     15  H   UNL     1      46.118   5.382   8.792  0.00  0.00    +0.000 HD
ENDBRANCH  12  13
ENDBRANCH  10  12
ENDBRANCH   1  10
BRANCH   5  16
ATOM     16  O   UNL     1      46.247   8.814  13.312  0.00  0.00    +0.000 OA
BRANCH  16  17
ATOM     17  C   UNL     1      47.621   8.831  13.719  0.00  0.00    +0.000 C 
BRANCH  17  18
ATOM     18  C   UNL     1      48.468   9.479  12.651  0.00  0.00    +0.000 A 
ATOM     19  C   UNL     1      49.756   9.001  12.377  0.00  0.00    +0.000 A 
ATOM     20  C   UNL     1      50.507   9.628  11.395  0.00  0.00    +0.000 A 
ATOM     21  N   UNL     1      50.065  10.671  10.665  0.00  0.00    +0.000 NA
ATOM     22  C   UNL     1      48.813  11.105  10.927  0.00  0.00    +0.000 A 
ATOM     23  C   UNL     1      47.985  10.547  11.891  0.00  0.00    +0.000 A 
ENDBRANCH  17  18
ENDBRANCH  16  17
ENDBRANCH   5  16
TORSDOF 7
ENDMDL
MODEL 9
REMARK VINA RESULT:    -5.527      3.770      7.797
REMARK INTER + INTRA:          -8.442
REMARK INTER:                  -7.650
REMARK INTRA:                  -0.792
REMARK UNBOUND:                -0.814
REMARK  Name = 
REMARK  8 active torsions:
REMARK  status: ('A' for Active; 'I' for Inactive)
REMARK    1  A    between atoms: C_1  and  C_2
REMARK    2  A    between atoms: C_2  and  N_3
REMARK    3  A    between atoms: C_2  and  C_4
REMARK    4  A    between atoms: C_4  and  C_5
REMARK    5  A    between atoms: C_9  and  O_10
REMARK    6  A    between atoms: O_10  and  C_11
REMARK    7  A    between atoms: C_11  and  C_12
REMARK    8  A    between atoms: C_19  and  C_20
REMARK                            x       y       z     vdW  Elec       q    Type
REMARK                         _______ _______ _______ _____ _____    ______ ____
ROOT
ATOM      1  C   UNL     1      45.809   5.510  12.117  0.00  0.00    +0.000 A 
ATOM      2  N   UNL     1      46.817   6.223  12.703  0.00  0.00    +0.000 NA
ATOM      3  C   UNL     1      47.417   5.651  13.780  0.00  0.00    +0.000 A 
ATOM      4 CL   UNL     1      48.663   6.603  14.472  0.00  0.00    +0.000 Cl
ATOM      5  C   UNL     1      47.061   4.389  14.250  0.00  0.00    +0.000 A 
ATOM      6  N   UNL     1      46.056   3.682  13.680  0.00  0.00    +0.000 NA
ATOM      7  C   UNL     1      45.429   4.267  12.620  0.00  0.00    +0.000 A 
ENDROOT
BRANCH   7   8
ATOM      8  C   UNL     1      44.374   3.489  12.048  0.00  0.00    +0.000 C 
ATOM      9  N   UNL     1      43.520   2.839  11.596  0.00  0.00    +0.000 NA
ENDBRANCH   7   8
BRANCH   1  10
ATOM     10  C   UNL     1      45.140   6.141  10.916  0.00  0.00    +0.000 C 
BRANCH  10  12
ATOM     11  C   UNL     1      44.528   8.621  11.373  0.00  0.00    +0.000 C 
ATOM     12  C   UNL     1      44.106   7.186  11.259  0.00  0.00    +0.000 C 
BRANCH  12  13
ATOM     13  N   UNL     1      42.724   6.867  11.251  0.00  0.00    +0.000 NA
ATOM     14  H   UNL     1      42.416   5.900  11.256  0.00  0.00    +0.000 HD
ATOM     15  H   UNL     1      42.015   7.539  10.975  0.00  0.00    +0.000 HD
ENDBRANCH  12  13
ENDBRANCH  10  12
ENDBRANCH   1  10
BRANCH   5  16
ATOM     16  O   UNL     1      47.706   3.845  15.342  0.00  0.00    +0.000 OA
BRANCH  16  17
ATOM     17  C   UNL     1      46.996   4.076  16.565  0.00  0.00    +0.000 C 
BRANCH  17  18
ATOM     18  C   UNL     1      47.918   4.688  17.591  0.00  0.00    +0.000 A 
ATOM     19  C   UNL     1      49.304   4.509  17.498  0.00  0.00    +0.000 A 
ATOM     20  C   UNL     1      50.118   5.080  18.463  0.00  0.00    +0.000 A 
ATOM     21  N   UNL     1      49.656   5.821  19.491  0.00  0.00    +0.000 NA
ATOM     22  C   UNL     1      48.319   6.001  19.553  0.00  0.00    +0.000 A 
ATOM     23  C   UNL     1      47.422   5.469  18.637  0.00  0.00    +0.000 A 
ENDBRANCH  17  18
ENDBRANCH  16  17
ENDBRANCH   5  16
TORSDOF 7
ENDMDL
