MODEL 1
REMARK VINA RESULT:    -8.188      0.000      0.000
REMARK INTER + INTRA:         -12.088
REMARK INTER:                 -11.060
REMARK INTRA:                  -1.028
REMARK UNBOUND:                -1.028
REMARK  Name = 
REMARK  10 active torsions:
REMARK  status: ('A' for Active; 'I' for Inactive)
REMARK    1  A    between atoms: C_1  and  C_2
REMARK    2  A    between atoms: C_2  and  C_3
REMARK    3  A    between atoms: C_5  and  O_6
REMARK    4  A    between atoms: O_6  and  C_7
REMARK    5  A    between atoms: C_9  and  C_10
REMARK    6  A    between atoms: C_10  and  C_11
REMARK    7  A    between atoms: C_10  and  C_12
REMARK    8  A    between atoms: C_10  and  C_13
REMARK    9  A    between atoms: C_13  and  N_14
REMARK   10  A    between atoms: C_18  and  C_19
REMARK                            x       y       z     vdW  Elec       q    Type
REMARK                         _______ _______ _______ _____ _____    ______ ____
ROOT
ATOM      1  C   UNL     1      47.150   5.214  13.704  0.00  0.00    +0.000 A 
ATOM      2  C   UNL     1      45.901   4.731  13.290  0.00  0.00    +0.000 A 
ATOM      3  C   UNL     1      45.164   5.345  12.257  0.00  0.00    +0.000 A 
ATOM      4  C   UNL     1      45.768   6.432  11.610  0.00  0.00    +0.000 A 
ATOM      5  C   UNL     1      47.013   6.917  12.022  0.00  0.00    +0.000 A 
ATOM      6  F   UNL     1      47.510   7.992  11.392  0.00  0.00    +0.000 F 
ATOM      7  C   UNL     1      47.713   6.317  13.063  0.00  0.00    +0.000 A 
ATOM      8 CL   UNL     1      49.240   6.959  13.546  0.00  0.00    +0.000 Cl
ENDROOT
BRANCH   3   9
ATOM      9  C   UNL     1      43.768   4.795  11.890  0.00  0.00    +0.000 C 
ATOM     10  C   UNL     1      43.483   3.561  12.785  0.00  0.00    +0.000 C 
ATOM     11  C   UNL     1      42.681   5.860  12.179  0.00  0.00    +0.000 C 
BRANCH   9  12
ATOM     12  C   UNL     1      43.612   4.313  10.411  0.00  0.00    +0.000 C 
BRANCH  12  13
ATOM     13  N   UNL     1      44.068   2.930  10.202  0.00  0.00    +0.000 N 
ATOM     14  C   UNL     1      44.965   2.780   9.133  0.00  0.00    +0.000 A 
ATOM     15  C   UNL     1      45.398   1.503   8.757  0.00  0.00    +0.000 A 
ATOM     16  N   UNL     1      46.311   1.264   7.780  0.00  0.00    +0.000 NA
ATOM     17  C   UNL     1      46.812   2.371   7.183  0.00  0.00    +0.000 A 
ATOM     18  C   UNL     1      46.396   3.642   7.540  0.00  0.00    +0.000 A 
ATOM     19  N   UNL     1      45.476   3.867   8.512  0.00  0.00    +0.000 NA
ATOM     20  H   UNL     1      43.312   2.256  10.129  0.00  0.00    +0.000 HD
BRANCH  17  21
ATOM     21  C   UNL     1      47.806   2.181   6.172  0.00  0.00    +0.000 C 
ATOM     22  N   UNL     1      48.593   1.984   5.337  0.00  0.00    +0.000 NA
ENDBRANCH  17  21
ENDBRANCH  12  13
ENDBRANCH   9  12
ENDBRANCH   3   9
BRANCH   1  23
ATOM     23  O   UNL     1      47.850   4.621  14.730  0.00  0.00    +0.000 OA
BRANCH  23  28
ATOM     24  C   UNL     1      47.337   5.614  19.078  0.00  0.00    +0.000 C 
ATOM     25  C   UNL     1      48.043   4.632  18.144  0.00  0.00    +0.000 C 
ATOM     26  C   UNL     1      48.874   3.612  18.915  0.00  0.00    +0.000 C 
ATOM     27  C   UNL     1      48.813   5.320  16.991  0.00  0.00    +0.000 C 
ATOM     28  C   UNL     1      47.585   5.086  16.072  0.00  0.00    +0.000 C 
ATOM     29  C   UNL     1      47.124   3.997  17.065  0.00  0.00    +0.000 C 
ENDBRANCH  23  28
ENDBRANCH   1  23
TORSDOF 6
ENDMDL
MODEL 2
REMARK VINA RESULT:    -7.317      2.208      2.710
REMARK INTER + INTRA:         -10.912
REMARK INTER:                  -9.989
REMARK INTRA:                  -0.923
REMARK UNBOUND:                -1.028
REMARK  Name = 
REMARK  10 active torsions:
REMARK  status: ('A' for Active; 'I' for Inactive)
REMARK    1  A    between atoms: C_1  and  C_2
REMARK    2  A    between atoms: C_2  and  C_3
REMARK    3  A    between atoms: C_5  and  O_6
REMARK    4  A    between atoms: O_6  and  C_7
REMARK    5  A    between atoms: C_9  and  C_10
REMARK    6  A    between atoms: C_10  and  C_11
REMARK    7  A    between atoms: C_10  and  C_12
REMARK    8  A    between atoms: C_10  and  C_13
REMARK    9  A    between atoms: C_13  and  N_14
REMARK   10  A    between atoms: C_18  and  C_19
REMARK                            x       y       z     vdW  Elec       q    Type
REMARK                         _______ _______ _______ _____ _____    ______ ____
ROOT
ATOM      1  C   UNL     1      47.276   7.397  12.033  0.00  0.00    +0.000 A 
ATOM      2  C   UNL     1      46.450   6.265  11.984  0.00  0.00    +0.000 A 
ATOM      3  C   UNL     1      45.044   6.362  11.999  0.00  0.00    +0.000 A 
ATOM      4  C   UNL     1      44.499   7.654  11.999  0.00  0.00    +0.000 A 
ATOM      5  C   UNL     1      45.320   8.784  12.050  0.00  0.00    +0.000 A 
ATOM      6  F   UNL     1      44.732   9.988  12.099  0.00  0.00    +0.000 F 
ATOM      7  C   UNL     1      46.707   8.669  12.065  0.00  0.00    +0.000 A 
ATOM      8 CL   UNL     1      47.680  10.092  12.141  0.00  0.00    +0.000 Cl
ENDROOT
BRANCH   3   9
ATOM      9  C   UNL     1      44.194   5.072  12.000  0.00  0.00    +0.000 C 
ATOM     10  C   UNL     1      45.038   3.937  12.635  0.00  0.00    +0.000 C 
ATOM     11  C   UNL     1      42.924   5.269  12.867  0.00  0.00    +0.000 C 
BRANCH   9  12
ATOM     12  C   UNL     1      43.758   4.562  10.589  0.00  0.00    +0.000 C 
BRANCH  12  13
ATOM     13  N   UNL     1      44.099   3.150  10.353  0.00  0.00    +0.000 N 
ATOM     14  C   UNL     1      44.958   2.944   9.262  0.00  0.00    +0.000 A 
ATOM     15  C   UNL     1      45.282   1.642   8.862  0.00  0.00    +0.000 A 
ATOM     16  N   UNL     1      46.151   1.345   7.862  0.00  0.00    +0.000 NA
ATOM     17  C   UNL     1      46.723   2.418   7.265  0.00  0.00    +0.000 A 
ATOM     18  C   UNL     1      46.416   3.713   7.647  0.00  0.00    +0.000 A 
ATOM     19  N   UNL     1      45.539   3.996   8.642  0.00  0.00    +0.000 NA
ATOM     20  H   UNL     1      43.291   2.538  10.291  0.00  0.00    +0.000 HD
BRANCH  17  21
ATOM     21  C   UNL     1      47.677   2.164   6.229  0.00  0.00    +0.000 C 
ATOM     22  N   UNL     1      48.455   1.910   5.401  0.00  0.00    +0.000 NA
ENDBRANCH  17  21
ENDBRANCH  12  13
ENDBRANCH   9  12
ENDBRANCH   3   9
BRANCH   1  23
ATOM     23  O   UNL     1      48.648   7.290  12.042  0.00  0.00    +0.000 OA
BRANCH  23  28
ATOM     24  C   UNL     1      50.378   6.727  16.147  0.00  0.00    +0.000 C 
ATOM     25  C   UNL     1      49.458   7.648  15.345  0.00  0.00    +0.000 C 
ATOM     26  C   UNL     1      48.916   8.791  16.196  0.00  0.00    +0.000 C 
ATOM     27  C   UNL     1      48.367   6.890  14.550  0.00  0.00    +0.000 C 
ATOM     28  C   UNL     1      49.280   6.952  13.297  0.00  0.00    +0.000 C 
ATOM     29  C   UNL     1      50.040   8.110  13.982  0.00  0.00    +0.000 C 
ENDBRANCH  23  28
ENDBRANCH   1  23
TORSDOF 6
ENDMDL
MODEL 3
REMARK VINA RESULT:    -6.665      4.349      8.862
REMARK INTER + INTRA:         -10.032
REMARK INTER:                  -9.134
REMARK INTRA:                  -0.897
REMARK UNBOUND:                -1.028
REMARK  Name = 
REMARK  10 active torsions:
REMARK  status: ('A' for Active; 'I' for Inactive)
REMARK    1  A    between atoms: C_1  and  C_2
REMARK    2  A    between atoms: C_2  and  C_3
REMARK    3  A    between atoms: C_5  and  O_6
REMARK    4  A    between atoms: O_6  and  C_7
REMARK    5  A    between atoms: C_9  and  C_10
REMARK    6  A    between atoms: C_10  and  C_11
REMARK    7  A    between atoms: C_10  and  C_12
REMARK    8  A    between atoms: C_10  and  C_13
REMARK    9  A    between atoms: C_13  and  N_14
REMARK   10  A    between atoms: C_18  and  C_19
REMARK                            x       y       z     vdW  Elec       q    Type
REMARK                         _______ _______ _______ _____ _____    ______ ____
ROOT
ATOM      1  C   UNL     1      45.314   5.197  10.465  0.00  0.00    +0.000 A 
ATOM      2  C   UNL     1      46.333   6.051  10.910  0.00  0.00    +0.000 A 
ATOM      3  C   UNL     1      46.463   6.422  12.263  0.00  0.00    +0.000 A 
ATOM      4  C   UNL     1      45.560   5.844  13.167  0.00  0.00    +0.000 A 
ATOM      5  C   UNL     1      44.541   4.994  12.725  0.00  0.00    +0.000 A 
ATOM      6  F   UNL     1      43.681   4.517  13.636  0.00  0.00    +0.000 F 
ATOM      7  C   UNL     1      44.410   4.662  11.381  0.00  0.00    +0.000 A 
ATOM      8 CL   UNL     1      43.129   3.619  10.881  0.00  0.00    +0.000 Cl
ENDROOT
BRANCH   3   9
ATOM      9  C   UNL     1      47.574   7.412  12.676  0.00  0.00    +0.000 C 
ATOM     10  C   UNL     1      48.278   7.914  11.389  0.00  0.00    +0.000 C 
ATOM     11  C   UNL     1      46.959   8.638  13.396  0.00  0.00    +0.000 C 
BRANCH   9  12
ATOM     12  C   UNL     1      48.695   6.812  13.586  0.00  0.00    +0.000 C 
BRANCH  12  13
ATOM     13  N   UNL     1      48.941   7.607  14.799  0.00  0.00    +0.000 N 
ATOM     14  C   UNL     1      48.812   6.881  15.994  0.00  0.00    +0.000 A 
ATOM     15  C   UNL     1      48.918   7.537  17.226  0.00  0.00    +0.000 A 
ATOM     16  N   UNL     1      48.871   6.911  18.430  0.00  0.00    +0.000 NA
ATOM     17  C   UNL     1      48.731   5.565  18.369  0.00  0.00    +0.000 A 
ATOM     18  C   UNL     1      48.625   4.899  17.161  0.00  0.00    +0.000 A 
ATOM     19  N   UNL     1      48.665   5.538  15.965  0.00  0.00    +0.000 NA
ATOM     20  H   UNL     1      48.400   8.465  14.844  0.00  0.00    +0.000 HD
BRANCH  17  21
ATOM     21  C   UNL     1      48.714   4.848  19.607  0.00  0.00    +0.000 C 
ATOM     22  N   UNL     1      48.701   4.308  20.639  0.00  0.00    +0.000 NA
ENDBRANCH  17  21
ENDBRANCH  12  13
ENDBRANCH   9  12
ENDBRANCH   3   9
BRANCH   1  23
ATOM     23  O   UNL     1      45.182   4.860   9.137  0.00  0.00    +0.000 OA
BRANCH  23  28
ATOM     24  C   UNL     1      47.474   1.579   7.102  0.00  0.00    +0.000 C 
ATOM     25  C   UNL     1      46.645   2.828   6.807  0.00  0.00    +0.000 C 
ATOM     26  C   UNL     1      46.527   3.091   5.310  0.00  0.00    +0.000 C 
ATOM     27  C   UNL     1      47.084   4.068   7.625  0.00  0.00    +0.000 C 
ATOM     28  C   UNL     1      45.967   3.747   8.653  0.00  0.00    +0.000 C 
ATOM     29  C   UNL     1      45.288   2.892   7.559  0.00  0.00    +0.000 C 
ENDBRANCH  23  28
ENDBRANCH   1  23
TORSDOF 6
ENDMDL
MODEL 4
REMARK VINA RESULT:    -6.566      4.037      7.624
REMARK INTER + INTRA:          -9.897
REMARK INTER:                  -8.677
REMARK INTRA:                  -1.220
REMARK UNBOUND:                -1.028
REMARK  Name = 
REMARK  10 active torsions:
REMARK  status: ('A' for Active; 'I' for Inactive)
REMARK    1  A    between atoms: C_1  and  C_2
REMARK    2  A    between atoms: C_2  and  C_3
REMARK    3  A    between atoms: C_5  and  O_6
REMARK    4  A    between atoms: O_6  and  C_7
REMARK    5  A    between atoms: C_9  and  C_10
REMARK    6  A    between atoms: C_10  and  C_11
REMARK    7  A    between atoms: C_10  and  C_12
REMARK    8  A    between atoms: C_10  and  C_13
REMARK    9  A    between atoms: C_13  and  N_14
REMARK   10  A    between atoms: C_18  and  C_19
REMARK                            x       y       z     vdW  Elec       q    Type
REMARK                         _______ _______ _______ _____ _____    ______ ____
ROOT
ATOM      1  C   UNL     1      44.928   8.106  11.843  0.00  0.00    +0.000 A 
ATOM      2  C   UNL     1      46.259   8.137  12.283  0.00  0.00    +0.000 A 
ATOM      3  C   UNL     1      47.066   9.285  12.153  0.00  0.00    +0.000 A 
ATOM      4  C   UNL     1      46.457  10.429  11.618  0.00  0.00    +0.000 A 
ATOM      5  C   UNL     1      45.131  10.401  11.176  0.00  0.00    +0.000 A 
ATOM      6  F   UNL     1      44.626  11.516  10.628  0.00  0.00    +0.000 F 
ATOM      7  C   UNL     1      44.357   9.250  11.285  0.00  0.00    +0.000 A 
ATOM      8 CL   UNL     1      42.729   9.259  10.714  0.00  0.00    +0.000 Cl
ENDROOT
BRANCH   3   9
ATOM      9  C   UNL     1      48.541   9.231  12.607  0.00  0.00    +0.000 C 
ATOM     10  C   UNL     1      49.419   9.818  11.472  0.00  0.00    +0.000 C 
ATOM     11  C   UNL     1      48.744  10.104  13.871  0.00  0.00    +0.000 C 
BRANCH   9  12
ATOM     12  C   UNL     1      49.096   7.799  12.898  0.00  0.00    +0.000 C 
BRANCH  12  13
ATOM     13  N   UNL     1      49.562   7.630  14.283  0.00  0.00    +0.000 N 
ATOM     14  C   UNL     1      48.886   6.628  14.996  0.00  0.00    +0.000 A 
ATOM     15  C   UNL     1      49.157   6.431  16.355  0.00  0.00    +0.000 A 
ATOM     16  N   UNL     1      48.600   5.448  17.110  0.00  0.00    +0.000 NA
ATOM     17  C   UNL     1      47.754   4.628  16.444  0.00  0.00    +0.000 A 
ATOM     18  C   UNL     1      47.473   4.806  15.101  0.00  0.00    +0.000 A 
ATOM     19  N   UNL     1      48.029   5.798  14.360  0.00  0.00    +0.000 NA
ATOM     20  H   UNL     1      49.583   8.494  14.817  0.00  0.00    +0.000 HD
BRANCH  17  21
ATOM     21  C   UNL     1      47.167   3.550  17.180  0.00  0.00    +0.000 C 
ATOM     22  N   UNL     1      46.710   2.641  17.747  0.00  0.00    +0.000 NA
ENDBRANCH  17  21
ENDBRANCH  12  13
ENDBRANCH   9  12
ENDBRANCH   3   9
BRANCH   1  23
ATOM     23  O   UNL     1      44.156   6.973  11.954  0.00  0.00    +0.000 OA
BRANCH  23  28
ATOM     24  C   UNL     1      45.070   3.080   9.913  0.00  0.00    +0.000 C 
ATOM     25  C   UNL     1      44.236   3.677  11.046  0.00  0.00    +0.000 C 
ATOM     26  C   UNL     1      43.410   2.615  11.764  0.00  0.00    +0.000 C 
ATOM     27  C   UNL     1      43.418   4.921  10.622  0.00  0.00    +0.000 C 
ATOM     28  C   UNL     1      44.554   5.820  11.179  0.00  0.00    +0.000 C 
ATOM     29  C   UNL     1      45.028   4.604  12.007  0.00  0.00    +0.000 C 
ENDBRANCH  23  28
ENDBRANCH   1  23
TORSDOF 6
ENDMDL
MODEL 5
REMARK VINA RESULT:    -6.127      4.677      7.986
REMARK INTER + INTRA:          -9.304
REMARK INTER:                  -8.463
REMARK INTRA:                  -0.842
REMARK UNBOUND:                -1.028
REMARK  Name = 
REMARK  10 active torsions:
REMARK  status: ('A' for Active; 'I' for Inactive)
REMARK    1  A    between atoms: C_1  and  C_2
REMARK    2  A    between atoms: C_2  and  C_3
REMARK    3  A    between atoms: C_5  and  O_6
REMARK    4  A    between atoms: O_6  and  C_7
REMARK    5  A    between atoms: C_9  and  C_10
REMARK    6  A    between atoms: C_10  and  C_11
REMARK    7  A    between atoms: C_10  and  C_12
REMARK    8  A    between atoms: C_10  and  C_13
REMARK    9  A    between atoms: C_13  and  N_14
REMARK   10  A    between atoms: C_18  and  C_19
REMARK                            x       y       z     vdW  Elec       q    Type
REMARK                         _______ _______ _______ _____ _____    ______ ____
ROOT
ATOM      1  C   UNL     1      45.215   5.035  10.384  0.00  0.00    +0.000 A 
ATOM      2  C   UNL     1      46.096   6.067  10.737  0.00  0.00    +0.000 A 
ATOM      3  C   UNL     1      46.238   6.509  12.067  0.00  0.00    +0.000 A 
ATOM      4  C   UNL     1      45.502   5.822  13.044  0.00  0.00    +0.000 A 
ATOM      5  C   UNL     1      44.622   4.795  12.694  0.00  0.00    +0.000 A 
ATOM      6  F   UNL     1      43.910   4.214  13.672  0.00  0.00    +0.000 F 
ATOM      7  C   UNL     1      44.471   4.391  11.372  0.00  0.00    +0.000 A 
ATOM      8 CL   UNL     1      43.362   3.126  10.986  0.00  0.00    +0.000 Cl
ENDROOT
BRANCH   3   9
ATOM      9  C   UNL     1      47.184   7.689  12.378  0.00  0.00    +0.000 C 
ATOM     10  C   UNL     1      46.425   9.009  12.086  0.00  0.00    +0.000 C 
ATOM     11  C   UNL     1      47.574   7.682  13.878  0.00  0.00    +0.000 C 
BRANCH   9  12
ATOM     12  C   UNL     1      48.494   7.735  11.525  0.00  0.00    +0.000 C 
BRANCH  12  13
ATOM     13  N   UNL     1      49.587   8.467  12.183  0.00  0.00    +0.000 N 
ATOM     14  C   UNL     1      50.864   8.139  11.702  0.00  0.00    +0.000 A 
ATOM     15  C   UNL     1      52.002   8.685  12.309  0.00  0.00    +0.000 A 
ATOM     16  N   UNL     1      53.272   8.477  11.875  0.00  0.00    +0.000 NA
ATOM     17  C   UNL     1      53.378   7.701  10.771  0.00  0.00    +0.000 A 
ATOM     18  C   UNL     1      52.266   7.153  10.156  0.00  0.00    +0.000 A 
ATOM     19  N   UNL     1      51.003   7.361  10.605  0.00  0.00    +0.000 NA
ATOM     20  H   UNL     1      49.564   8.414  13.197  0.00  0.00    +0.000 HD
BRANCH  17  21
ATOM     21  C   UNL     1      54.691   7.479  10.246  0.00  0.00    +0.000 C 
ATOM     22  N   UNL     1      55.740   7.301   9.774  0.00  0.00    +0.000 NA
ENDBRANCH  17  21
ENDBRANCH  12  13
ENDBRANCH   9  12
ENDBRANCH   3   9
BRANCH   1  23
ATOM     23  O   UNL     1      45.067   4.627   9.077  0.00  0.00    +0.000 OA
BRANCH  23  28
ATOM     24  C   UNL     1      47.716   1.632   7.035  0.00  0.00    +0.000 C 
ATOM     25  C   UNL     1      46.744   2.775   6.743  0.00  0.00    +0.000 C 
ATOM     26  C   UNL     1      46.587   3.018   5.246  0.00  0.00    +0.000 C 
ATOM     27  C   UNL     1      47.039   4.059   7.555  0.00  0.00    +0.000 C 
ATOM     28  C   UNL     1      45.974   3.612   8.591  0.00  0.00    +0.000 C 
ATOM     29  C   UNL     1      45.394   2.681   7.503  0.00  0.00    +0.000 C 
ENDBRANCH  23  28
ENDBRANCH   1  23
TORSDOF 6
ENDMDL
MODEL 6
REMARK VINA RESULT:    -5.773      4.528      8.017
REMARK INTER + INTRA:          -8.827
REMARK INTER:                  -8.131
REMARK INTRA:                  -0.696
REMARK UNBOUND:                -1.028
REMARK  Name = 
REMARK  10 active torsions:
REMARK  status: ('A' for Active; 'I' for Inactive)
REMARK    1  A    between atoms: C_1  and  C_2
REMARK    2  A    between atoms: C_2  and  C_3
REMARK    3  A    between atoms: C_5  and  O_6
REMARK    4  A    between atoms: O_6  and  C_7
REMARK    5  A    between atoms: C_9  and  C_10
REMARK    6  A    between atoms: C_10  and  C_11
REMARK    7  A    between atoms: C_10  and  C_12
REMARK    8  A    between atoms: C_10  and  C_13
REMARK    9  A    between atoms: C_13  and  N_14
REMARK   10  A    between atoms: C_18  and  C_19
REMARK                            x       y       z     vdW  Elec       q    Type
REMARK                         _______ _______ _______ _____ _____    ______ ____
ROOT
ATOM      1  C   UNL     1      45.018   7.900  11.835  0.00  0.00    +0.000 A 
ATOM      2  C   UNL     1      46.316   7.716  12.335  0.00  0.00    +0.000 A 
ATOM      3  C   UNL     1      47.250   8.768  12.405  0.00  0.00    +0.000 A 
ATOM      4  C   UNL     1      46.802  10.038  12.010  0.00  0.00    +0.000 A 
ATOM      5  C   UNL     1      45.511  10.224  11.509  0.00  0.00    +0.000 A 
ATOM      6  F   UNL     1      45.165  11.455  11.102  0.00  0.00    +0.000 F 
ATOM      7  C   UNL     1      44.611   9.167  11.419  0.00  0.00    +0.000 A 
ATOM      8 CL   UNL     1      43.031   9.444  10.782  0.00  0.00    +0.000 Cl
ENDROOT
BRANCH   3   9
ATOM      9  C   UNL     1      48.679   8.482  12.913  0.00  0.00    +0.000 C 
ATOM     10  C   UNL     1      49.061   7.038  12.498  0.00  0.00    +0.000 C 
ATOM     11  C   UNL     1      49.688   9.455  12.250  0.00  0.00    +0.000 C 
BRANCH   9  12
ATOM     12  C   UNL     1      48.862   8.559  14.464  0.00  0.00    +0.000 C 
BRANCH  12  13
ATOM     13  N   UNL     1      48.239   7.433  15.176  0.00  0.00    +0.000 N 
ATOM     14  C   UNL     1      49.153   6.605  15.847  0.00  0.00    +0.000 A 
ATOM     15  C   UNL     1      48.707   5.438  16.479  0.00  0.00    +0.000 A 
ATOM     16  N   UNL     1      49.504   4.611  17.204  0.00  0.00    +0.000 NA
ATOM     17  C   UNL     1      50.796   5.005  17.303  0.00  0.00    +0.000 A 
ATOM     18  C   UNL     1      51.256   6.155  16.685  0.00  0.00    +0.000 A 
ATOM     19  N   UNL     1      50.450   6.968  15.956  0.00  0.00    +0.000 NA
ATOM     20  H   UNL     1      47.615   6.878  14.598  0.00  0.00    +0.000 HD
BRANCH  17  21
ATOM     21  C   UNL     1      51.674   4.192  18.088  0.00  0.00    +0.000 C 
ATOM     22  N   UNL     1      52.422   3.534  18.691  0.00  0.00    +0.000 NA
ENDBRANCH  17  21
ENDBRANCH  12  13
ENDBRANCH   9  12
ENDBRANCH   3   9
BRANCH   1  23
ATOM     23  O   UNL     1      44.122   6.860  11.749  0.00  0.00    +0.000 OA
BRANCH  23  28
ATOM     24  C   UNL     1      45.098   2.884   9.906  0.00  0.00    +0.000 C 
ATOM     25  C   UNL     1      44.218   3.530  10.976  0.00  0.00    +0.000 C 
ATOM     26  C   UNL     1      43.353   2.502  11.697  0.00  0.00    +0.000 C 
ATOM     27  C   UNL     1      43.429   4.761  10.466  0.00  0.00    +0.000 C 
ATOM     28  C   UNL     1      44.545   5.675  11.039  0.00  0.00    +0.000 C 
ATOM     29  C   UNL     1      44.973   4.490  11.935  0.00  0.00    +0.000 C 
ENDBRANCH  23  28
ENDBRANCH   1  23
TORSDOF 6
ENDMDL
MODEL 7
REMARK VINA RESULT:    -5.746      3.266      6.378
REMARK INTER + INTRA:          -8.790
REMARK INTER:                  -8.145
REMARK INTRA:                  -0.644
REMARK UNBOUND:                -1.028
REMARK  Name = 
REMARK  10 active torsions:
REMARK  status: ('A' for Active; 'I' for Inactive)
REMARK    1  A    between atoms: C_1  and  C_2
REMARK    2  A    between atoms: C_2  and  C_3
REMARK    3  A    between atoms: C_5  and  O_6
REMARK    4  A    between atoms: O_6  and  C_7
REMARK    5  A    between atoms: C_9  and  C_10
REMARK    6  A    between atoms: C_10  and  C_11
REMARK    7  A    between atoms: C_10  and  C_12
REMARK    8  A    between atoms: C_10  and  C_13
REMARK    9  A    between atoms: C_13  and  N_14
REMARK   10  A    between atoms: C_18  and  C_19
REMARK                            x       y       z     vdW  Elec       q    Type
REMARK                         _______ _______ _______ _____ _____    ______ ____
ROOT
ATOM      1  C   UNL     1      50.468   7.155  16.121  0.00  0.00    +0.000 A 
ATOM      2  C   UNL     1      49.314   6.419  16.426  0.00  0.00    +0.000 A 
ATOM      3  C   UNL     1      49.373   5.153  17.041  0.00  0.00    +0.000 A 
ATOM      4  C   UNL     1      50.645   4.682  17.398  0.00  0.00    +0.000 A 
ATOM      5  C   UNL     1      51.797   5.412  17.093  0.00  0.00    +0.000 A 
ATOM      6  F   UNL     1      52.985   4.879  17.417  0.00  0.00    +0.000 F 
ATOM      7  C   UNL     1      51.722   6.648  16.458  0.00  0.00    +0.000 A 
ATOM      8 CL   UNL     1      53.173   7.507  16.090  0.00  0.00    +0.000 Cl
ENDROOT
BRANCH   3   9
ATOM      9  C   UNL     1      48.066   4.372  17.297  0.00  0.00    +0.000 C 
ATOM     10  C   UNL     1      48.433   3.015  17.952  0.00  0.00    +0.000 C 
ATOM     11  C   UNL     1      47.161   5.152  18.284  0.00  0.00    +0.000 C 
BRANCH   9  12
ATOM     12  C   UNL     1      47.232   4.033  16.019  0.00  0.00    +0.000 C 
BRANCH  12  13
ATOM     13  N   UNL     1      46.984   5.204  15.164  0.00  0.00    +0.000 N 
ATOM     14  C   UNL     1      46.437   4.890  13.910  0.00  0.00    +0.000 A 
ATOM     15  C   UNL     1      46.247   5.898  12.957  0.00  0.00    +0.000 A 
ATOM     16  N   UNL     1      45.668   5.702  11.744  0.00  0.00    +0.000 NA
ATOM     17  C   UNL     1      45.250   4.435  11.509  0.00  0.00    +0.000 A 
ATOM     18  C   UNL     1      45.429   3.425  12.438  0.00  0.00    +0.000 A 
ATOM     19  N   UNL     1      46.018   3.633  13.643  0.00  0.00    +0.000 NA
ATOM     20  H   UNL     1      47.791   5.812  15.058  0.00  0.00    +0.000 HD
BRANCH  17  21
ATOM     21  C   UNL     1      44.598   4.178  10.262  0.00  0.00    +0.000 C 
ATOM     22  N   UNL     1      44.084   4.012   9.230  0.00  0.00    +0.000 NA
ENDBRANCH  17  21
ENDBRANCH  12  13
ENDBRANCH   9  12
ENDBRANCH   3   9
BRANCH   1  23
ATOM     23  O   UNL     1      50.400   8.381  15.498  0.00  0.00    +0.000 OA
BRANCH  23  28
ATOM     24  C   UNL     1      47.518   9.240  12.166  0.00  0.00    +0.000 C 
ATOM     25  C   UNL     1      48.998   9.342  12.531  0.00  0.00    +0.000 C 
ATOM     26  C   UNL     1      49.824   9.941  11.398  0.00  0.00    +0.000 C 
ATOM     27  C   UNL     1      49.585   8.028  13.103  0.00  0.00    +0.000 C 
ATOM     28  C   UNL     1      49.343   8.578  14.533  0.00  0.00    +0.000 C 
ATOM     29  C   UNL     1      49.276   9.992  13.914  0.00  0.00    +0.000 C 
ENDBRANCH  23  28
ENDBRANCH   1  23
TORSDOF 6
ENDMDL
MODEL 8
REMARK VINA RESULT:    -5.610      3.538      6.287
REMARK INTER + INTRA:          -8.606
REMARK INTER:                  -7.624
REMARK INTRA:                  -0.982
REMARK UNBOUND:                -1.028
REMARK  Name = 
REMARK  10 active torsions:
REMARK  status: ('A' for Active; 'I' for Inactive)
REMARK    1  A    between atoms: C_1  and  C_2
REMARK    2  A    between atoms: C_2  and  C_3
REMARK    3  A    between atoms: C_5  and  O_6
REMARK    4  A    between atoms: O_6  and  C_7
REMARK    5  A    between atoms: C_9  and  C_10
REMARK    6  A    between atoms: C_10  and  C_11
REMARK    7  A    between atoms: C_10  and  C_12
REMARK    8  A    between atoms: C_10  and  C_13
REMARK    9  A    between atoms: C_13  and  N_14
REMARK   10  A    between atoms: C_18  and  C_19
REMARK                            x       y       z     vdW  Elec       q    Type
REMARK                         _______ _______ _______ _____ _____    ______ ____
ROOT
ATOM      1  C   UNL     1      49.846   6.752  17.884  0.00  0.00    +0.000 A 
ATOM      2  C   UNL     1      49.531   5.512  17.311  0.00  0.00    +0.000 A 
ATOM      3  C   UNL     1      48.429   4.746  17.741  0.00  0.00    +0.000 A 
ATOM      4  C   UNL     1      47.613   5.312  18.731  0.00  0.00    +0.000 A 
ATOM      5  C   UNL     1      47.926   6.547  19.306  0.00  0.00    +0.000 A 
ATOM      6  F   UNL     1      47.131   7.006  20.284  0.00  0.00    +0.000 F 
ATOM      7  C   UNL     1      49.035   7.276  18.890  0.00  0.00    +0.000 A 
ATOM      8 CL   UNL     1      49.389   8.791  19.638  0.00  0.00    +0.000 Cl
ENDROOT
BRANCH   3   9
ATOM      9  C   UNL     1      48.172   3.362  17.105  0.00  0.00    +0.000 C 
ATOM     10  C   UNL     1      49.481   2.536  17.199  0.00  0.00    +0.000 C 
ATOM     11  C   UNL     1      47.071   2.607  17.892  0.00  0.00    +0.000 C 
BRANCH   9  12
ATOM     12  C   UNL     1      47.774   3.387  15.594  0.00  0.00    +0.000 C 
BRANCH  12  13
ATOM     13  N   UNL     1      47.088   4.627  15.198  0.00  0.00    +0.000 N 
ATOM     14  C   UNL     1      46.411   4.538  13.971  0.00  0.00    +0.000 A 
ATOM     15  C   UNL     1      45.802   5.674  13.424  0.00  0.00    +0.000 A 
ATOM     16  N   UNL     1      45.073   5.672  12.278  0.00  0.00    +0.000 NA
ATOM     17  C   UNL     1      44.947   4.461  11.684  0.00  0.00    +0.000 A 
ATOM     18  C   UNL     1      45.541   3.327  12.210  0.00  0.00    +0.000 A 
ATOM     19  N   UNL     1      46.274   3.345  13.351  0.00  0.00    +0.000 NA
ATOM     20  H   UNL     1      47.684   5.449  15.216  0.00  0.00    +0.000 HD
BRANCH  17  21
ATOM     21  C   UNL     1      44.156   4.392  10.493  0.00  0.00    +0.000 C 
ATOM     22  N   UNL     1      43.554   4.344   9.498  0.00  0.00    +0.000 NA
ENDBRANCH  17  21
ENDBRANCH  12  13
ENDBRANCH   9  12
ENDBRANCH   3   9
BRANCH   1  23
ATOM     23  O   UNL     1      50.939   7.481  17.473  0.00  0.00    +0.000 OA
BRANCH  23  28
ATOM     24  C   UNL     1      50.214   9.615  13.590  0.00  0.00    +0.000 C 
ATOM     25  C   UNL     1      49.989   8.272  14.284  0.00  0.00    +0.000 C 
ATOM     26  C   UNL     1      49.272   7.277  13.379  0.00  0.00    +0.000 C 
ATOM     27  C   UNL     1      49.356   8.403  15.691  0.00  0.00    +0.000 C 
ATOM     28  C   UNL     1      50.778   8.318  16.306  0.00  0.00    +0.000 C 
ATOM     29  C   UNL     1      51.250   7.688  14.977  0.00  0.00    +0.000 C 
ENDBRANCH  23  28
ENDBRANCH   1  23
TORSDOF 6
ENDMDL
MODEL 9
REMARK VINA RESULT:    -5.593      2.991      4.854
REMARK INTER + INTRA:          -8.583
REMARK INTER:                  -7.536
REMARK INTRA:                  -1.047
REMARK UNBOUND:                -1.028
REMARK  Name = 
REMARK  10 active torsions:
REMARK  status: ('A' for Active; 'I' for Inactive)
REMARK    1  A    between atoms: C_1  and  C_2
REMARK    2  A    between atoms: C_2  and  C_3
REMARK    3  A    between atoms: C_5  and  O_6
REMARK    4  A    between atoms: O_6  and  C_7
REMARK    5  A    between atoms: C_9  and  C_10
REMARK    6  A    between atoms: C_10  and  C_11
REMARK    7  A    between atoms: C_10  and  C_12
REMARK    8  A    between atoms: C_10  and  C_13
REMARK    9  A    between atoms: C_13  and  N_14
REMARK   10  A    between atoms: C_18  and  C_19
REMARK                            x       y       z     vdW  Elec       q    Type
REMARK                         _______ _______ _______ _____ _____    ______ ____
ROOT
ATOM      1  C   UNL     1      49.840   7.673  16.150  0.00  0.00    +0.000 A 
ATOM      2  C   UNL     1      49.375   7.615  14.828  0.00  0.00    +0.000 A 
ATOM      3  C   UNL     1      48.707   8.698  14.220  0.00  0.00    +0.000 A 
ATOM      4  C   UNL     1      48.584   9.871  14.978  0.00  0.00    +0.000 A 
ATOM      5  C   UNL     1      49.044   9.930  16.297  0.00  0.00    +0.000 A 
ATOM      6  F   UNL     1      48.848  11.067  16.982  0.00  0.00    +0.000 F 
ATOM      7  C   UNL     1      49.674   8.842  16.891  0.00  0.00    +0.000 A 
ATOM      8 CL   UNL     1      50.215   8.958  18.526  0.00  0.00    +0.000 Cl
ENDROOT
BRANCH   3   9
ATOM      9  C   UNL     1      48.171   8.546  12.780  0.00  0.00    +0.000 C 
ATOM     10  C   UNL     1      48.353   9.902  12.050  0.00  0.00    +0.000 C 
ATOM     11  C   UNL     1      48.988   7.476  12.014  0.00  0.00    +0.000 C 
BRANCH   9  12
ATOM     12  C   UNL     1      46.654   8.186  12.670  0.00  0.00    +0.000 C 
BRANCH  12  13
ATOM     13  N   UNL     1      46.310   6.920  13.336  0.00  0.00    +0.000 N 
ATOM     14  C   UNL     1      45.773   5.949  12.476  0.00  0.00    +0.000 A 
ATOM     15  C   UNL     1      45.307   4.736  12.995  0.00  0.00    +0.000 A 
ATOM     16  N   UNL     1      44.831   3.714  12.237  0.00  0.00    +0.000 NA
ATOM     17  C   UNL     1      44.853   3.936  10.902  0.00  0.00    +0.000 A 
ATOM     18  C   UNL     1      45.311   5.129  10.369  0.00  0.00    +0.000 A 
ATOM     19  N   UNL     1      45.775   6.145  11.139  0.00  0.00    +0.000 NA
ATOM     20  H   UNL     1      45.721   7.035  14.155  0.00  0.00    +0.000 HD
BRANCH  17  21
ATOM     21  C   UNL     1      44.399   2.878  10.052  0.00  0.00    +0.000 C 
ATOM     22  N   UNL     1      44.077   2.008   9.348  0.00  0.00    +0.000 NA
ENDBRANCH  17  21
ENDBRANCH  12  13
ENDBRANCH   9  12
ENDBRANCH   3   9
BRANCH   1  23
ATOM     23  O   UNL     1      50.469   6.602  16.742  0.00  0.00    +0.000 OA
BRANCH  23  28
ATOM     24  C   UNL     1      48.071   3.063  18.112  0.00  0.00    +0.000 C 
ATOM     25  C   UNL     1      48.814   4.289  18.641  0.00  0.00    +0.000 C 
ATOM     26  C   UNL     1      48.745   4.385  20.161  0.00  0.00    +0.000 C 
ATOM     27  C   UNL     1      48.432   5.603  17.916  0.00  0.00    +0.000 C 
ATOM     28  C   UNL     1      49.673   5.425  17.002  0.00  0.00    +0.000 C 
ATOM     29  C   UNL     1      50.248   4.467  18.071  0.00  0.00    +0.000 C 
ENDBRANCH  23  28
ENDBRANCH   1  23
TORSDOF 6
ENDMDL
