MODEL 1
REMARK VINA RESULT:    -8.184      0.000      0.000
REMARK INTER + INTRA:         -10.852
REMARK INTER:                 -10.576
REMARK INTRA:                  -0.277
REMARK UNBOUND:                -0.277
REMARK  Name = 
REMARK  6 active torsions:
REMARK  status: ('A' for Active; 'I' for Inactive)
REMARK    1  A    between atoms: C_1  and  C_2
REMARK    2  A    between atoms: C_4  and  O_5
REMARK    3  A    between atoms: O_5  and  C_6
REMARK    4  A    between atoms: C_6  and  C_7
REMARK    5  A    between atoms: C_12  and  C_13
REMARK    6  A    between atoms: C_22  and  C_23
REMARK                            x       y       z     vdW  Elec       q    Type
REMARK                         _______ _______ _______ _____ _____    ______ ____
ROOT
ATOM      1  C   UNL     1      44.408   4.614  11.493  0.00  0.00    +0.000 A 
ATOM      2  C   UNL     1      43.337   5.475  11.237  0.00  0.00    +0.000 A 
ATOM      3  C   UNL     1      43.518   6.856  11.326  0.00  0.00    +0.000 A 
ATOM      4  C   UNL     1      44.783   7.377  11.591  0.00  0.00    +0.000 A 
ATOM      5  F   UNL     1      44.932   8.711  11.623  0.00  0.00    +0.000 F 
ATOM      6  C   UNL     1      45.891   6.545  11.793  0.00  0.00    +0.000 A 
ATOM      7  C   UNL     1      45.649   5.166  11.844  0.00  0.00    +0.000 A 
ENDROOT
BRANCH   6   8
ATOM      8  C   UNL     1      47.297   7.136  11.852  0.00  0.00    +0.000 C 
ATOM      9  C   UNL     1      48.233   6.268  12.720  0.00  0.00    +0.000 C 
ATOM     10  C   UNL     1      47.922   6.408  14.212  0.00  0.00    +0.000 C 
ATOM     11  N   UNL     1      48.021   7.792  14.680  0.00  0.00    +0.000 NA
ATOM     12  C   UNL     1      47.194   8.705  13.896  0.00  0.00    +0.000 C 
ATOM     13  C   UNL     1      47.408   8.584  12.378  0.00  0.00    +0.000 C 
ATOM     14  H   UNL     1      48.992   8.096  14.638  0.00  0.00    +0.000 HD
ENDBRANCH   6   8
BRANCH   1  15
ATOM     15  C   UNL     1      44.293   3.107  11.361  0.00  0.00    +0.000 C 
BRANCH  15  16
ATOM     16  O   UNL     1      43.790   2.816  10.050  0.00  0.00    +0.000 OA
BRANCH  16  20
ATOM     17  C   UNL     1      46.798  -0.088   7.715  0.00  0.00    +0.000 C 
ATOM     18  C   UNL     1      46.262   1.299   7.931  0.00  0.00    +0.000 A 
ATOM     19  N   UNL     1      45.310   1.421   8.898  0.00  0.00    +0.000 NA
ATOM     20  C   UNL     1      44.773   2.643   9.099  0.00  0.00    +0.000 A 
ATOM     21  C   UNL     1      45.149   3.767   8.380  0.00  0.00    +0.000 A 
ATOM     22  C   UNL     1      46.131   3.632   7.398  0.00  0.00    +0.000 A 
ATOM     23  C   UNL     1      46.701   2.380   7.160  0.00  0.00    +0.000 A 
BRANCH  23  24
ATOM     24  C   UNL     1      47.700   2.231   6.138  0.00  0.00    +0.000 C 
ATOM     25  N   UNL     1      48.506   2.110   5.315  0.00  0.00    +0.000 NA
ENDBRANCH  23  24
ENDBRANCH  16  20
ENDBRANCH  15  16
ENDBRANCH   1  15
TORSDOF 5
ENDMDL
MODEL 2
REMARK VINA RESULT:    -7.960      1.635      2.265
REMARK INTER + INTRA:         -10.563
REMARK INTER:                 -10.369
REMARK INTRA:                  -0.195
REMARK UNBOUND:                -0.277
REMARK  Name = 
REMARK  6 active torsions:
REMARK  status: ('A' for Active; 'I' for Inactive)
REMARK    1  A    between atoms: C_1  and  C_2
REMARK    2  A    between atoms: C_4  and  O_5
REMARK    3  A    between atoms: O_5  and  C_6
REMARK    4  A    between atoms: C_6  and  C_7
REMARK    5  A    between atoms: C_12  and  C_13
REMARK    6  A    between atoms: C_22  and  C_23
REMARK                            x       y       z     vdW  Elec       q    Type
REMARK                         _______ _______ _______ _____ _____    ______ ____
ROOT
ATOM      1  C   UNL     1      45.077   4.703  11.615  0.00  0.00    +0.000 A 
ATOM      2  C   UNL     1      45.310   3.633  12.484  0.00  0.00    +0.000 A 
ATOM      3  C   UNL     1      46.198   3.784  13.551  0.00  0.00    +0.000 A 
ATOM      4  C   UNL     1      46.790   5.022  13.795  0.00  0.00    +0.000 A 
ATOM      5  F   UNL     1      47.601   5.145  14.857  0.00  0.00    +0.000 F 
ATOM      6  C   UNL     1      46.531   6.131  12.980  0.00  0.00    +0.000 A 
ATOM      7  C   UNL     1      45.754   5.911  11.835  0.00  0.00    +0.000 A 
ENDROOT
BRANCH   6   8
ATOM      8  C   UNL     1      47.004   7.520  13.398  0.00  0.00    +0.000 C 
ATOM      9  C   UNL     1      47.277   8.413  12.168  0.00  0.00    +0.000 C 
ATOM     10  C   UNL     1      48.559   8.004  11.439  0.00  0.00    +0.000 C 
ATOM     11  N   UNL     1      49.739   8.050  12.305  0.00  0.00    +0.000 NA
ATOM     12  C   UNL     1      49.567   7.260  13.522  0.00  0.00    +0.000 C 
ATOM     13  C   UNL     1      48.269   7.574  14.284  0.00  0.00    +0.000 C 
ATOM     14  H   UNL     1      49.938   9.017  12.556  0.00  0.00    +0.000 HD
ENDBRANCH   6   8
BRANCH   1  15
ATOM     15  C   UNL     1      44.085   4.622  10.471  0.00  0.00    +0.000 C 
BRANCH  15  16
ATOM     16  O   UNL     1      44.043   3.262  10.017  0.00  0.00    +0.000 OA
BRANCH  16  20
ATOM     17  C   UNL     1      46.694   0.005   7.715  0.00  0.00    +0.000 C 
ATOM     18  C   UNL     1      46.303   1.445   7.898  0.00  0.00    +0.000 A 
ATOM     19  N   UNL     1      45.391   1.690   8.880  0.00  0.00    +0.000 NA
ATOM     20  C   UNL     1      44.981   2.964   9.053  0.00  0.00    +0.000 A 
ATOM     21  C   UNL     1      45.449   4.023   8.291  0.00  0.00    +0.000 A 
ATOM     22  C   UNL     1      46.389   3.763   7.293  0.00  0.00    +0.000 A 
ATOM     23  C   UNL     1      46.827   2.454   7.084  0.00  0.00    +0.000 A 
BRANCH  23  24
ATOM     24  C   UNL     1      47.782   2.176   6.046  0.00  0.00    +0.000 C 
ATOM     25  N   UNL     1      48.550   1.949   5.209  0.00  0.00    +0.000 NA
ENDBRANCH  23  24
ENDBRANCH  16  20
ENDBRANCH  15  16
ENDBRANCH   1  15
TORSDOF 5
ENDMDL
MODEL 3
REMARK VINA RESULT:    -7.557      1.954      2.830
REMARK INTER + INTRA:         -10.043
REMARK INTER:                  -9.383
REMARK INTRA:                  -0.660
REMARK UNBOUND:                -0.277
REMARK  Name = 
REMARK  6 active torsions:
REMARK  status: ('A' for Active; 'I' for Inactive)
REMARK    1  A    between atoms: C_1  and  C_2
REMARK    2  A    between atoms: C_4  and  O_5
REMARK    3  A    between atoms: O_5  and  C_6
REMARK    4  A    between atoms: C_6  and  C_7
REMARK    5  A    between atoms: C_12  and  C_13
REMARK    6  A    between atoms: C_22  and  C_23
REMARK                            x       y       z     vdW  Elec       q    Type
REMARK                         _______ _______ _______ _____ _____    ______ ____
ROOT
ATOM      1  C   UNL     1      45.340   5.826  11.847  0.00  0.00    +0.000 A 
ATOM      2  C   UNL     1      44.902   5.063  12.933  0.00  0.00    +0.000 A 
ATOM      3  C   UNL     1      45.787   4.753  13.968  0.00  0.00    +0.000 A 
ATOM      4  C   UNL     1      47.080   5.272  13.957  0.00  0.00    +0.000 A 
ATOM      5  F   UNL     1      47.889   4.995  14.991  0.00  0.00    +0.000 F 
ATOM      6  C   UNL     1      47.532   6.091  12.915  0.00  0.00    +0.000 A 
ATOM      7  C   UNL     1      46.674   6.261  11.822  0.00  0.00    +0.000 A 
ENDROOT
BRANCH   6   8
ATOM      8  C   UNL     1      48.863   6.829  13.038  0.00  0.00    +0.000 C 
ATOM      9  C   UNL     1      48.910   7.686  14.322  0.00  0.00    +0.000 C 
ATOM     10  C   UNL     1      48.028   8.933  14.208  0.00  0.00    +0.000 C 
ATOM     11  N   UNL     1      48.401   9.785  13.077  0.00  0.00    +0.000 NA
ATOM     12  C   UNL     1      48.421   9.054  11.813  0.00  0.00    +0.000 C 
ATOM     13  C   UNL     1      49.242   7.755  11.863  0.00  0.00    +0.000 C 
ATOM     14  H   UNL     1      49.320  10.191  13.247  0.00  0.00    +0.000 HD
ENDBRANCH   6   8
BRANCH   1  15
ATOM     15  C   UNL     1      44.417   6.242  10.718  0.00  0.00    +0.000 C 
BRANCH  15  16
ATOM     16  O   UNL     1      43.636   5.099  10.341  0.00  0.00    +0.000 OA
BRANCH  16  20
ATOM     17  C   UNL     1      46.853   3.947   6.987  0.00  0.00    +0.000 C 
ATOM     18  C   UNL     1      45.892   3.497   8.052  0.00  0.00    +0.000 A 
ATOM     19  N   UNL     1      45.194   4.488   8.674  0.00  0.00    +0.000 NA
ATOM     20  C   UNL     1      44.349   4.133   9.664  0.00  0.00    +0.000 A 
ATOM     21  C   UNL     1      44.155   2.820  10.065  0.00  0.00    +0.000 A 
ATOM     22  C   UNL     1      44.869   1.813   9.415  0.00  0.00    +0.000 A 
ATOM     23  C   UNL     1      45.757   2.147   8.391  0.00  0.00    +0.000 A 
BRANCH  23  24
ATOM     24  C   UNL     1      46.509   1.117   7.730  0.00  0.00    +0.000 C 
ATOM     25  N   UNL     1      47.116   0.285   7.200  0.00  0.00    +0.000 NA
ENDBRANCH  23  24
ENDBRANCH  16  20
ENDBRANCH  15  16
ENDBRANCH   1  15
TORSDOF 5
ENDMDL
MODEL 4
REMARK VINA RESULT:    -7.041      3.710      7.886
REMARK INTER + INTRA:          -9.375
REMARK INTER:                  -9.156
REMARK INTRA:                  -0.219
REMARK UNBOUND:                -0.277
REMARK  Name = 
REMARK  6 active torsions:
REMARK  status: ('A' for Active; 'I' for Inactive)
REMARK    1  A    between atoms: C_1  and  C_2
REMARK    2  A    between atoms: C_4  and  O_5
REMARK    3  A    between atoms: O_5  and  C_6
REMARK    4  A    between atoms: C_6  and  C_7
REMARK    5  A    between atoms: C_12  and  C_13
REMARK    6  A    between atoms: C_22  and  C_23
REMARK                            x       y       z     vdW  Elec       q    Type
REMARK                         _______ _______ _______ _____ _____    ______ ____
ROOT
ATOM      1  C   UNL     1      46.711   4.733  13.535  0.00  0.00    +0.000 A 
ATOM      2  C   UNL     1      47.065   6.070  13.734  0.00  0.00    +0.000 A 
ATOM      3  C   UNL     1      46.576   7.056  12.874  0.00  0.00    +0.000 A 
ATOM      4  C   UNL     1      45.673   6.716  11.868  0.00  0.00    +0.000 A 
ATOM      5  F   UNL     1      45.186   7.695  11.089  0.00  0.00    +0.000 F 
ATOM      6  C   UNL     1      45.251   5.395  11.679  0.00  0.00    +0.000 A 
ATOM      7  C   UNL     1      45.870   4.411  12.459  0.00  0.00    +0.000 A 
ENDROOT
BRANCH   6   8
ATOM      8  C   UNL     1      44.096   5.086  10.729  0.00  0.00    +0.000 C 
ATOM      9  C   UNL     1      42.965   4.324  11.452  0.00  0.00    +0.000 C 
ATOM     10  C   UNL     1      43.349   2.870  11.740  0.00  0.00    +0.000 C 
ATOM     11  N   UNL     1      43.693   2.128  10.526  0.00  0.00    +0.000 NA
ATOM     12  C   UNL     1      44.737   2.789   9.747  0.00  0.00    +0.000 C 
ATOM     13  C   UNL     1      44.450   4.273   9.464  0.00  0.00    +0.000 C 
ATOM     14  H   UNL     1      42.861   2.016   9.949  0.00  0.00    +0.000 HD
ENDBRANCH   6   8
BRANCH   1  15
ATOM     15  C   UNL     1      47.163   3.622  14.463  0.00  0.00    +0.000 C 
BRANCH  15  16
ATOM     16  O   UNL     1      46.924   4.049  15.812  0.00  0.00    +0.000 OA
BRANCH  16  20
ATOM     17  C   UNL     1      50.906   1.882  17.354  0.00  0.00    +0.000 C 
ATOM     18  C   UNL     1      49.995   3.077  17.401  0.00  0.00    +0.000 A 
ATOM     19  N   UNL     1      48.880   3.000  16.621  0.00  0.00    +0.000 NA
ATOM     20  C   UNL     1      48.053   4.067  16.601  0.00  0.00    +0.000 A 
ATOM     21  C   UNL     1      48.281   5.219  17.337  0.00  0.00    +0.000 A 
ATOM     22  C   UNL     1      49.422   5.284  18.138  0.00  0.00    +0.000 A 
ATOM     23  C   UNL     1      50.301   4.200  18.175  0.00  0.00    +0.000 A 
BRANCH  23  24
ATOM     24  C   UNL     1      51.487   4.267  18.983  0.00  0.00    +0.000 C 
ATOM     25  N   UNL     1      52.442   4.319  19.636  0.00  0.00    +0.000 NA
ENDBRANCH  23  24
ENDBRANCH  16  20
ENDBRANCH  15  16
ENDBRANCH   1  15
TORSDOF 5
ENDMDL
MODEL 5
REMARK VINA RESULT:    -6.976      3.528      7.441
REMARK INTER + INTRA:          -9.292
REMARK INTER:                  -8.551
REMARK INTRA:                  -0.741
REMARK UNBOUND:                -0.277
REMARK  Name = 
REMARK  6 active torsions:
REMARK  status: ('A' for Active; 'I' for Inactive)
REMARK    1  A    between atoms: C_1  and  C_2
REMARK    2  A    between atoms: C_4  and  O_5
REMARK    3  A    between atoms: O_5  and  C_6
REMARK    4  A    between atoms: C_6  and  C_7
REMARK    5  A    between atoms: C_12  and  C_13
REMARK    6  A    between atoms: C_22  and  C_23
REMARK                            x       y       z     vdW  Elec       q    Type
REMARK                         _______ _______ _______ _____ _____    ______ ____
ROOT
ATOM      1  C   UNL     1      46.936   7.149  12.497  0.00  0.00    +0.000 A 
ATOM      2  C   UNL     1      46.492   8.468  12.631  0.00  0.00    +0.000 A 
ATOM      3  C   UNL     1      45.268   8.850  12.078  0.00  0.00    +0.000 A 
ATOM      4  C   UNL     1      44.454   7.900  11.464  0.00  0.00    +0.000 A 
ATOM      5  F   UNL     1      43.263   8.291  10.985  0.00  0.00    +0.000 F 
ATOM      6  C   UNL     1      44.841   6.558  11.367  0.00  0.00    +0.000 A 
ATOM      7  C   UNL     1      46.134   6.235  11.797  0.00  0.00    +0.000 A 
ENDROOT
BRANCH   6   8
ATOM      8  C   UNL     1      43.842   5.502  10.901  0.00  0.00    +0.000 C 
ATOM      9  C   UNL     1      42.688   5.338  11.914  0.00  0.00    +0.000 C 
ATOM     10  C   UNL     1      43.139   4.606  13.181  0.00  0.00    +0.000 C 
ATOM     11  N   UNL     1      43.688   3.279  12.898  0.00  0.00    +0.000 NA
ATOM     12  C   UNL     1      44.770   3.321  11.918  0.00  0.00    +0.000 C 
ATOM     13  C   UNL     1      44.412   4.091  10.636  0.00  0.00    +0.000 C 
ATOM     14  H   UNL     1      42.946   2.670  12.556  0.00  0.00    +0.000 HD
ENDBRANCH   6   8
BRANCH   1  15
ATOM     15  C   UNL     1      48.228   6.657  13.119  0.00  0.00    +0.000 C 
BRANCH  15  16
ATOM     16  O   UNL     1      47.997   5.337  13.632  0.00  0.00    +0.000 OA
BRANCH  16  20
ATOM     17  C   UNL     1      47.173   2.860  17.647  0.00  0.00    +0.000 C 
ATOM     18  C   UNL     1      47.679   4.116  16.995  0.00  0.00    +0.000 A 
ATOM     19  N   UNL     1      47.577   4.160  15.637  0.00  0.00    +0.000 NA
ATOM     20  C   UNL     1      48.055   5.253  15.007  0.00  0.00    +0.000 A 
ATOM     21  C   UNL     1      48.631   6.324  15.673  0.00  0.00    +0.000 A 
ATOM     22  C   UNL     1      48.723   6.272  17.064  0.00  0.00    +0.000 A 
ATOM     23  C   UNL     1      48.244   5.152  17.746  0.00  0.00    +0.000 A 
BRANCH  23  24
ATOM     24  C   UNL     1      48.353   5.084  19.177  0.00  0.00    +0.000 C 
ATOM     25  N   UNL     1      48.444   5.029  20.330  0.00  0.00    +0.000 NA
ENDBRANCH  23  24
ENDBRANCH  16  20
ENDBRANCH  15  16
ENDBRANCH   1  15
TORSDOF 5
ENDMDL
MODEL 6
REMARK VINA RESULT:    -6.461      2.572      3.510
REMARK INTER + INTRA:          -8.626
REMARK INTER:                  -8.407
REMARK INTRA:                  -0.219
REMARK UNBOUND:                -0.277
REMARK  Name = 
REMARK  6 active torsions:
REMARK  status: ('A' for Active; 'I' for Inactive)
REMARK    1  A    between atoms: C_1  and  C_2
REMARK    2  A    between atoms: C_4  and  O_5
REMARK    3  A    between atoms: O_5  and  C_6
REMARK    4  A    between atoms: C_6  and  C_7
REMARK    5  A    between atoms: C_12  and  C_13
REMARK    6  A    between atoms: C_22  and  C_23
REMARK                            x       y       z     vdW  Elec       q    Type
REMARK                         _______ _______ _______ _____ _____    ______ ____
ROOT
ATOM      1  C   UNL     1      46.133   4.915  13.274  0.00  0.00    +0.000 A 
ATOM      2  C   UNL     1      46.379   6.144  12.656  0.00  0.00    +0.000 A 
ATOM      3  C   UNL     1      47.251   7.059  13.250  0.00  0.00    +0.000 A 
ATOM      4  C   UNL     1      47.935   6.715  14.414  0.00  0.00    +0.000 A 
ATOM      5  F   UNL     1      48.801   7.599  14.933  0.00  0.00    +0.000 F 
ATOM      6  C   UNL     1      47.758   5.467  15.026  0.00  0.00    +0.000 A 
ATOM      7  C   UNL     1      46.770   4.631  14.491  0.00  0.00    +0.000 A 
ENDROOT
BRANCH   6   8
ATOM      8  C   UNL     1      48.682   5.028  16.158  0.00  0.00    +0.000 C 
ATOM      9  C   UNL     1      48.386   3.576  16.592  0.00  0.00    +0.000 C 
ATOM     10  C   UNL     1      47.078   3.471  17.382  0.00  0.00    +0.000 C 
ATOM     11  N   UNL     1      47.076   4.313  18.580  0.00  0.00    +0.000 NA
ATOM     12  C   UNL     1      47.383   5.709  18.280  0.00  0.00    +0.000 C 
ATOM     13  C   UNL     1      48.656   5.894  17.437  0.00  0.00    +0.000 C 
ATOM     14  H   UNL     1      47.756   3.954  19.248  0.00  0.00    +0.000 HD
ENDBRANCH   6   8
BRANCH   1  15
ATOM     15  C   UNL     1      45.240   3.856  12.655  0.00  0.00    +0.000 C 
BRANCH  15  16
ATOM     16  O   UNL     1      44.551   4.452  11.546  0.00  0.00    +0.000 OA
BRANCH  16  20
ATOM     17  C   UNL     1      45.593   1.020   8.373  0.00  0.00    +0.000 C 
ATOM     18  C   UNL     1      45.593   2.480   8.730  0.00  0.00    +0.000 A 
ATOM     19  N   UNL     1      45.109   2.785   9.967  0.00  0.00    +0.000 NA
ATOM     20  C   UNL     1      45.053   4.088  10.315  0.00  0.00    +0.000 A 
ATOM     21  C   UNL     1      45.470   5.116   9.484  0.00  0.00    +0.000 A 
ATOM     22  C   UNL     1      45.971   4.791   8.223  0.00  0.00    +0.000 A 
ATOM     23  C   UNL     1      46.035   3.454   7.829  0.00  0.00    +0.000 A 
BRANCH  23  24
ATOM     24  C   UNL     1      46.533   3.114   6.525  0.00  0.00    +0.000 C 
ATOM     25  N   UNL     1      46.934   2.837   5.474  0.00  0.00    +0.000 NA
ENDBRANCH  23  24
ENDBRANCH  16  20
ENDBRANCH  15  16
ENDBRANCH   1  15
TORSDOF 5
ENDMDL
MODEL 7
REMARK VINA RESULT:    -6.398      4.318      6.598
REMARK INTER + INTRA:          -8.545
REMARK INTER:                  -8.061
REMARK INTRA:                  -0.484
REMARK UNBOUND:                -0.277
REMARK  Name = 
REMARK  6 active torsions:
REMARK  status: ('A' for Active; 'I' for Inactive)
REMARK    1  A    between atoms: C_1  and  C_2
REMARK    2  A    between atoms: C_4  and  O_5
REMARK    3  A    between atoms: O_5  and  C_6
REMARK    4  A    between atoms: C_6  and  C_7
REMARK    5  A    between atoms: C_12  and  C_13
REMARK    6  A    between atoms: C_22  and  C_23
REMARK                            x       y       z     vdW  Elec       q    Type
REMARK                         _______ _______ _______ _____ _____    ______ ____
ROOT
ATOM      1  C   UNL     1      49.216   7.065  14.356  0.00  0.00    +0.000 A 
ATOM      2  C   UNL     1      50.391   7.822  14.332  0.00  0.00    +0.000 A 
ATOM      3  C   UNL     1      51.210   7.872  15.462  0.00  0.00    +0.000 A 
ATOM      4  C   UNL     1      50.898   7.106  16.583  0.00  0.00    +0.000 A 
ATOM      5  F   UNL     1      51.732   7.141  17.634  0.00  0.00    +0.000 F 
ATOM      6  C   UNL     1      49.761   6.289  16.618  0.00  0.00    +0.000 A 
ATOM      7  C   UNL     1      48.883   6.373  15.530  0.00  0.00    +0.000 A 
ENDROOT
BRANCH   6   8
ATOM      8  C   UNL     1      49.566   5.291  17.757  0.00  0.00    +0.000 C 
ATOM      9  C   UNL     1      48.701   4.093  17.309  0.00  0.00    +0.000 C 
ATOM     10  C   UNL     1      47.227   4.477  17.159  0.00  0.00    +0.000 C 
ATOM     11  N   UNL     1      46.656   5.013  18.396  0.00  0.00    +0.000 NA
ATOM     12  C   UNL     1      47.427   6.136  18.924  0.00  0.00    +0.000 C 
ATOM     13  C   UNL     1      48.932   5.846  19.051  0.00  0.00    +0.000 C 
ATOM     14  H   UNL     1      46.612   4.275  19.097  0.00  0.00    +0.000 HD
ENDBRANCH   6   8
BRANCH   1  15
ATOM     15  C   UNL     1      48.311   6.925  13.147  0.00  0.00    +0.000 C 
BRANCH  15  16
ATOM     16  O   UNL     1      46.957   7.096  13.587  0.00  0.00    +0.000 OA
BRANCH  16  20
ATOM     17  C   UNL     1      42.770   5.779  11.672  0.00  0.00    +0.000 C 
ATOM     18  C   UNL     1      44.094   5.379  12.260  0.00  0.00    +0.000 A 
ATOM     19  N   UNL     1      44.889   6.405  12.675  0.00  0.00    +0.000 NA
ATOM     20  C   UNL     1      46.104   6.094  13.174  0.00  0.00    +0.000 A 
ATOM     21  C   UNL     1      46.569   4.793  13.290  0.00  0.00    +0.000 A 
ATOM     22  C   UNL     1      45.743   3.750  12.869  0.00  0.00    +0.000 A 
ATOM     23  C   UNL     1      44.483   4.039  12.342  0.00  0.00    +0.000 A 
BRANCH  23  24
ATOM     24  C   UNL     1      43.634   2.971  11.889  0.00  0.00    +0.000 C 
ATOM     25  N   UNL     1      42.949   2.111  11.527  0.00  0.00    +0.000 NA
ENDBRANCH  23  24
ENDBRANCH  16  20
ENDBRANCH  15  16
ENDBRANCH   1  15
TORSDOF 5
ENDMDL
MODEL 8
REMARK VINA RESULT:    -6.315      4.312      6.829
REMARK INTER + INTRA:          -8.438
REMARK INTER:                  -7.873
REMARK INTRA:                  -0.564
REMARK UNBOUND:                -0.277
REMARK  Name = 
REMARK  6 active torsions:
REMARK  status: ('A' for Active; 'I' for Inactive)
REMARK    1  A    between atoms: C_1  and  C_2
REMARK    2  A    between atoms: C_4  and  O_5
REMARK    3  A    between atoms: O_5  and  C_6
REMARK    4  A    between atoms: C_6  and  C_7
REMARK    5  A    between atoms: C_12  and  C_13
REMARK    6  A    between atoms: C_22  and  C_23
REMARK                            x       y       z     vdW  Elec       q    Type
REMARK                         _______ _______ _______ _____ _____    ______ ____
ROOT
ATOM      1  C   UNL     1      48.568   6.764  15.419  0.00  0.00    +0.000 A 
ATOM      2  C   UNL     1      48.933   7.982  16.000  0.00  0.00    +0.000 A 
ATOM      3  C   UNL     1      49.110   8.068  17.383  0.00  0.00    +0.000 A 
ATOM      4  C   UNL     1      49.002   6.924  18.171  0.00  0.00    +0.000 A 
ATOM      5  F   UNL     1      49.225   7.034  19.490  0.00  0.00    +0.000 F 
ATOM      6  C   UNL     1      48.697   5.677  17.614  0.00  0.00    +0.000 A 
ATOM      7  C   UNL     1      48.380   5.649  16.250  0.00  0.00    +0.000 A 
ENDROOT
BRANCH   6   8
ATOM      8  C   UNL     1      48.810   4.409  18.458  0.00  0.00    +0.000 C 
ATOM      9  C   UNL     1      50.286   4.009  18.671  0.00  0.00    +0.000 C 
ATOM     10  C   UNL     1      50.910   3.429  17.399  0.00  0.00    +0.000 C 
ATOM     11  N   UNL     1      50.187   2.256  16.902  0.00  0.00    +0.000 NA
ATOM     12  C   UNL     1      48.765   2.522  16.700  0.00  0.00    +0.000 C 
ATOM     13  C   UNL     1      48.078   3.161  17.919  0.00  0.00    +0.000 C 
ATOM     14  H   UNL     1      50.296   1.486  17.561  0.00  0.00    +0.000 HD
ENDBRANCH   6   8
BRANCH   1  15
ATOM     15  C   UNL     1      48.412   6.589  13.921  0.00  0.00    +0.000 C 
BRANCH  15  16
ATOM     16  O   UNL     1      47.124   7.100  13.548  0.00  0.00    +0.000 OA
BRANCH  16  20
ATOM     17  C   UNL     1      42.951   5.936  11.507  0.00  0.00    +0.000 C 
ATOM     18  C   UNL     1      44.229   5.489  12.161  0.00  0.00    +0.000 A 
ATOM     19  N   UNL     1      45.061   6.485  12.575  0.00  0.00    +0.000 NA
ATOM     20  C   UNL     1      46.237   6.130  13.133  0.00  0.00    +0.000 A 
ATOM     21  C   UNL     1      46.628   4.812  13.308  0.00  0.00    +0.000 A 
ATOM     22  C   UNL     1      45.765   3.799  12.886  0.00  0.00    +0.000 A 
ATOM     23  C   UNL     1      44.544   4.134  12.300  0.00  0.00    +0.000 A 
BRANCH  23  24
ATOM     24  C   UNL     1      43.658   3.096  11.847  0.00  0.00    +0.000 C 
ATOM     25  N   UNL     1      42.946   2.258  11.484  0.00  0.00    +0.000 NA
ENDBRANCH  23  24
ENDBRANCH  16  20
ENDBRANCH  15  16
ENDBRANCH   1  15
TORSDOF 5
ENDMDL
MODEL 9
REMARK VINA RESULT:    -6.309      4.391      7.069
REMARK INTER + INTRA:          -8.430
REMARK INTER:                  -7.716
REMARK INTRA:                  -0.714
REMARK UNBOUND:                -0.277
REMARK  Name = 
REMARK  6 active torsions:
REMARK  status: ('A' for Active; 'I' for Inactive)
REMARK    1  A    between atoms: C_1  and  C_2
REMARK    2  A    between atoms: C_4  and  O_5
REMARK    3  A    between atoms: O_5  and  C_6
REMARK    4  A    between atoms: C_6  and  C_7
REMARK    5  A    between atoms: C_12  and  C_13
REMARK    6  A    between atoms: C_22  and  C_23
REMARK                            x       y       z     vdW  Elec       q    Type
REMARK                         _______ _______ _______ _____ _____    ______ ____
ROOT
ATOM      1  C   UNL     1      46.553   4.801  13.393  0.00  0.00    +0.000 A 
ATOM      2  C   UNL     1      45.498   4.748  12.479  0.00  0.00    +0.000 A 
ATOM      3  C   UNL     1      45.069   5.915  11.842  0.00  0.00    +0.000 A 
ATOM      4  C   UNL     1      45.745   7.114  12.058  0.00  0.00    +0.000 A 
ATOM      5  F   UNL     1      45.337   8.207  11.394  0.00  0.00    +0.000 F 
ATOM      6  C   UNL     1      46.845   7.190  12.921  0.00  0.00    +0.000 A 
ATOM      7  C   UNL     1      47.157   6.039  13.656  0.00  0.00    +0.000 A 
ENDROOT
BRANCH   6   8
ATOM      8  C   UNL     1      47.704   8.451  12.964  0.00  0.00    +0.000 C 
ATOM      9  C   UNL     1      48.606   8.556  11.715  0.00  0.00    +0.000 C 
ATOM     10  C   UNL     1      49.763   7.555  11.760  0.00  0.00    +0.000 C 
ATOM     11  N   UNL     1      50.606   7.722  12.946  0.00  0.00    +0.000 NA
ATOM     12  C   UNL     1      49.837   7.674  14.187  0.00  0.00    +0.000 C 
ATOM     13  C   UNL     1      48.620   8.614  14.196  0.00  0.00    +0.000 C 
ATOM     14  H   UNL     1      51.099   8.612  12.889  0.00  0.00    +0.000 HD
ENDBRANCH   6   8
BRANCH   1  15
ATOM     15  C   UNL     1      47.101   3.564  14.078  0.00  0.00    +0.000 C 
BRANCH  15  16
ATOM     16  O   UNL     1      46.774   3.648  15.472  0.00  0.00    +0.000 OA
BRANCH  16  20
ATOM     17  C   UNL     1      50.812   1.768  17.230  0.00  0.00    +0.000 C 
ATOM     18  C   UNL     1      49.835   2.909  17.200  0.00  0.00    +0.000 A 
ATOM     19  N   UNL     1      48.755   2.742  16.386  0.00  0.00    +0.000 NA
ATOM     20  C   UNL     1      47.871   3.758  16.299  0.00  0.00    +0.000 A 
ATOM     21  C   UNL     1      48.008   4.947  16.998  0.00  0.00    +0.000 A 
ATOM     22  C   UNL     1      49.113   5.105  17.835  0.00  0.00    +0.000 A 
ATOM     23  C   UNL     1      50.049   4.075  17.942  0.00  0.00    +0.000 A 
BRANCH  23  24
ATOM     24  C   UNL     1      51.200   4.238  18.788  0.00  0.00    +0.000 C 
ATOM     25  N   UNL     1      52.126   4.368  19.471  0.00  0.00    +0.000 NA
ENDBRANCH  23  24
ENDBRANCH  16  20
ENDBRANCH  15  16
ENDBRANCH   1  15
TORSDOF 5
ENDMDL
