MODEL 1
REMARK VINA RESULT:    -6.269      0.000      0.000
REMARK INTER + INTRA:          -8.271
REMARK INTER:                  -7.919
REMARK INTRA:                  -0.352
REMARK UNBOUND:                -0.352
REMARK  Name = 
REMARK  5 active torsions:
REMARK  status: ('A' for Active; 'I' for Inactive)
REMARK    1  A    between atoms: N_1  and  C_2
REMARK    2  A    between atoms: C_2  and  C_3
REMARK    3  A    between atoms: C_3  and  N_4
REMARK    4  A    between atoms: N_7  and  C_8
REMARK    5  A    between atoms: C_8  and  C_9
REMARK                            x       y       z     vdW  Elec       q    Type
REMARK                         _______ _______ _______ _____ _____    ______ ____
ROOT
ATOM      1  N   UNL     1      46.680   2.907   7.542  0.00  0.00    +0.000 NA
ATOM      2  C   UNL     1      46.251   1.790   8.418  0.00  0.00    +0.000 C 
ATOM      3  C   UNL     1      44.735   1.778   8.722  0.00  0.00    +0.000 C 
ATOM      4  N   UNL     1      44.233   3.029   9.333  0.00  0.00    +0.000 NA
ATOM      5  C   UNL     1      44.643   4.159   8.470  0.00  0.00    +0.000 C 
ATOM      6  C   UNL     1      46.146   4.173   8.087  0.00  0.00    +0.000 C 
ENDROOT
BRANCH   1   7
ATOM      7  C   UNL     1      46.266   2.630   6.152  0.00  0.00    +0.000 C 
BRANCH   7   8
ATOM      8  C   UNL     1      47.413   2.577   5.123  0.00  0.00    +0.000 C 
BRANCH   8   9
ATOM      9  N   UNL     1      48.565   1.847   5.659  0.00  0.00    +0.000 NA
ATOM     10  H   UNL     1      48.995   2.400   6.399  0.00  0.00    +0.000 HD
ATOM     11  H   UNL     1      49.273   1.746   4.931  0.00  0.00    +0.000 HD
ENDBRANCH   8   9
ENDBRANCH   7   8
ENDBRANCH   1   7
BRANCH   4  12
ATOM     12  C   UNL     1      44.712   3.224  10.718  0.00  0.00    +0.000 C 
BRANCH  12  13
ATOM     13  C   UNL     1      44.309   4.581  11.220  0.00  0.00    +0.000 A 
ATOM     14  C   UNL     1      43.024   4.978  11.553  0.00  0.00    +0.000 A 
ATOM     15  N   UNL     1      43.086   6.228  12.098  0.00  0.00    +0.000 N 
ATOM     16  C   UNL     1      44.385   6.674  12.117  0.00  0.00    +0.000 A 
ATOM     17  C   UNL     1      44.925   7.852  12.618  0.00  0.00    +0.000 A 
ATOM     18  N   UNL     1      46.253   8.069  12.505  0.00  0.00    +0.000 NA
ATOM     19  C   UNL     1      47.019   7.133  11.904  0.00  0.00    +0.000 A 
ATOM     20  C   UNL     1      46.549   5.929  11.398  0.00  0.00    +0.000 A 
ATOM     21  C   UNL     1      45.172   5.687  11.523  0.00  0.00    +0.000 A 
ATOM     22  H   UNL     1      42.295   6.741  12.464  0.00  0.00    +0.000 HD
ENDBRANCH  12  13
ENDBRANCH   4  12
TORSDOF 5
ENDMDL
MODEL 2
REMARK VINA RESULT:    -5.861      1.392      6.424
REMARK INTER + INTRA:          -7.755
REMARK INTER:                  -7.405
REMARK INTRA:                  -0.350
REMARK UNBOUND:                -0.352
REMARK  Name = 
REMARK  5 active torsions:
REMARK  status: ('A' for Active; 'I' for Inactive)
REMARK    1  A    between atoms: N_1  and  C_2
REMARK    2  A    between atoms: C_2  and  C_3
REMARK    3  A    between atoms: C_3  and  N_4
REMARK    4  A    between atoms: N_7  and  C_8
REMARK    5  A    between atoms: C_8  and  C_9
REMARK                            x       y       z     vdW  Elec       q    Type
REMARK                         _______ _______ _______ _____ _____    ______ ____
ROOT
ATOM      1  N   UNL     1      45.979   7.612  11.742  0.00  0.00    +0.000 NA
ATOM      2  C   UNL     1      44.568   7.697  11.292  0.00  0.00    +0.000 C 
ATOM      3  C   UNL     1      43.690   6.513  11.759  0.00  0.00    +0.000 C 
ATOM      4  N   UNL     1      44.199   5.185  11.349  0.00  0.00    +0.000 NA
ATOM      5  C   UNL     1      45.606   5.075  11.796  0.00  0.00    +0.000 C 
ATOM      6  C   UNL     1      46.509   6.275  11.404  0.00  0.00    +0.000 C 
ENDROOT
BRANCH   1   7
ATOM      7  C   UNL     1      46.058   7.944  13.178  0.00  0.00    +0.000 C 
BRANCH   7   8
ATOM      8  C   UNL     1      47.432   8.451  13.660  0.00  0.00    +0.000 C 
BRANCH   8   9
ATOM      9  N   UNL     1      47.350   8.970  15.028  0.00  0.00    +0.000 NA
ATOM     10  H   UNL     1      46.549   9.597  15.098  0.00  0.00    +0.000 HD
ATOM     11  H   UNL     1      48.173   9.539  15.227  0.00  0.00    +0.000 HD
ENDBRANCH   8   9
ENDBRANCH   7   8
ENDBRANCH   1   7
BRANCH   4  12
ATOM     12  C   UNL     1      44.090   4.952   9.893  0.00  0.00    +0.000 C 
BRANCH  12  13
ATOM     13  C   UNL     1      44.636   3.598   9.542  0.00  0.00    +0.000 A 
ATOM     14  C   UNL     1      44.184   2.384  10.035  0.00  0.00    +0.000 A 
ATOM     15  N   UNL     1      44.835   1.381   9.376  0.00  0.00    +0.000 N 
ATOM     16  C   UNL     1      45.722   1.908   8.468  0.00  0.00    +0.000 A 
ATOM     17  C   UNL     1      46.554   1.275   7.553  0.00  0.00    +0.000 A 
ATOM     18  N   UNL     1      47.356   2.023   6.764  0.00  0.00    +0.000 NA
ATOM     19  C   UNL     1      47.328   3.367   6.892  0.00  0.00    +0.000 A 
ATOM     20  C   UNL     1      46.510   4.064   7.771  0.00  0.00    +0.000 A 
ATOM     21  C   UNL     1      45.662   3.296   8.586  0.00  0.00    +0.000 A 
ATOM     22  H   UNL     1      44.668   0.393   9.513  0.00  0.00    +0.000 HD
ENDBRANCH  12  13
ENDBRANCH   4  12
TORSDOF 5
ENDMDL
MODEL 3
REMARK VINA RESULT:    -5.748      2.219      6.345
REMARK INTER + INTRA:          -7.613
REMARK INTER:                  -7.744
REMARK INTRA:                   0.131
REMARK UNBOUND:                -0.352
REMARK  Name = 
REMARK  5 active torsions:
REMARK  status: ('A' for Active; 'I' for Inactive)
REMARK    1  A    between atoms: N_1  and  C_2
REMARK    2  A    between atoms: C_2  and  C_3
REMARK    3  A    between atoms: C_3  and  N_4
REMARK    4  A    between atoms: N_7  and  C_8
REMARK    5  A    between atoms: C_8  and  C_9
REMARK                            x       y       z     vdW  Elec       q    Type
REMARK                         _______ _______ _______ _____ _____    ______ ____
ROOT
ATOM      1  N   UNL     1      45.291   3.655  13.109  0.00  0.00    +0.000 NA
ATOM      2  C   UNL     1      46.144   3.837  11.910  0.00  0.00    +0.000 C 
ATOM      3  C   UNL     1      45.691   4.994  10.989  0.00  0.00    +0.000 C 
ATOM      4  N   UNL     1      44.294   4.878  10.517  0.00  0.00    +0.000 NA
ATOM      5  C   UNL     1      43.422   4.704  11.700  0.00  0.00    +0.000 C 
ATOM      6  C   UNL     1      43.877   3.595  12.686  0.00  0.00    +0.000 C 
ENDROOT
BRANCH   1   7
ATOM      7  C   UNL     1      45.580   4.725  14.085  0.00  0.00    +0.000 C 
BRANCH   7   8
ATOM      8  C   UNL     1      47.023   4.748  14.627  0.00  0.00    +0.000 C 
BRANCH   8   9
ATOM      9  N   UNL     1      47.350   3.489  15.302  0.00  0.00    +0.000 NA
ATOM     10  H   UNL     1      47.561   2.780  14.601  0.00  0.00    +0.000 HD
ATOM     11  H   UNL     1      46.531   3.152  15.810  0.00  0.00    +0.000 HD
ENDBRANCH   8   9
ENDBRANCH   7   8
ENDBRANCH   1   7
BRANCH   4  12
ATOM     12  C   UNL     1      44.102   3.771   9.555  0.00  0.00    +0.000 C 
BRANCH  12  13
ATOM     13  C   UNL     1      45.241   3.732   8.576  0.00  0.00    +0.000 A 
ATOM     14  C   UNL     1      45.871   4.832   8.015  0.00  0.00    +0.000 A 
ATOM     15  N   UNL     1      46.941   4.392   7.289  0.00  0.00    +0.000 N 
ATOM     16  C   UNL     1      47.022   3.022   7.346  0.00  0.00    +0.000 A 
ATOM     17  C   UNL     1      47.963   2.154   6.807  0.00  0.00    +0.000 A 
ATOM     18  N   UNL     1      47.815   0.823   6.992  0.00  0.00    +0.000 NA
ATOM     19  C   UNL     1      46.752   0.376   7.694  0.00  0.00    +0.000 A 
ATOM     20  C   UNL     1      45.786   1.187   8.274  0.00  0.00    +0.000 A 
ATOM     21  C   UNL     1      45.937   2.572   8.099  0.00  0.00    +0.000 A 
ATOM     22  H   UNL     1      47.598   4.990   6.806  0.00  0.00    +0.000 HD
ENDBRANCH  12  13
ENDBRANCH   4  12
TORSDOF 5
ENDMDL
MODEL 4
REMARK VINA RESULT:    -5.669      1.808      6.199
REMARK INTER + INTRA:          -7.513
REMARK INTER:                  -7.065
REMARK INTRA:                  -0.448
REMARK UNBOUND:                -0.352
REMARK  Name = 
REMARK  5 active torsions:
REMARK  status: ('A' for Active; 'I' for Inactive)
REMARK    1  A    between atoms: N_1  and  C_2
REMARK    2  A    between atoms: C_2  and  C_3
REMARK    3  A    between atoms: C_3  and  N_4
REMARK    4  A    between atoms: N_7  and  C_8
REMARK    5  A    between atoms: C_8  and  C_9
REMARK                            x       y       z     vdW  Elec       q    Type
REMARK                         _______ _______ _______ _____ _____    ______ ____
ROOT
ATOM      1  N   UNL     1      47.842   8.248  12.074  0.00  0.00    +0.000 NA
ATOM      2  C   UNL     1      46.534   8.947  12.099  0.00  0.00    +0.000 C 
ATOM      3  C   UNL     1      45.489   8.290  13.031  0.00  0.00    +0.000 C 
ATOM      4  N   UNL     1      45.218   6.868  12.724  0.00  0.00    +0.000 NA
ATOM      5  C   UNL     1      46.511   6.148  12.703  0.00  0.00    +0.000 C 
ATOM      6  C   UNL     1      47.610   6.809  11.830  0.00  0.00    +0.000 C 
ENDROOT
BRANCH   1   7
ATOM      7  C   UNL     1      48.576   8.534  13.323  0.00  0.00    +0.000 C 
BRANCH   7   8
ATOM      8  C   UNL     1      49.983   7.911  13.415  0.00  0.00    +0.000 C 
BRANCH   8   9
ATOM      9  N   UNL     1      50.072   6.981  14.545  0.00  0.00    +0.000 NA
ATOM     10  H   UNL     1      51.011   7.024  14.938  0.00  0.00    +0.000 HD
ATOM     11  H   UNL     1      49.948   6.025  14.209  0.00  0.00    +0.000 HD
ENDBRANCH   8   9
ENDBRANCH   7   8
ENDBRANCH   1   7
BRANCH   4  12
ATOM     12  C   UNL     1      44.492   6.683  11.449  0.00  0.00    +0.000 C 
BRANCH  12  13
ATOM     13  C   UNL     1      44.320   5.220  11.158  0.00  0.00    +0.000 A 
ATOM     14  C   UNL     1      43.562   4.325  11.896  0.00  0.00    +0.000 A 
ATOM     15  N   UNL     1      43.542   3.130  11.238  0.00  0.00    +0.000 N 
ATOM     16  C   UNL     1      44.286   3.210  10.085  0.00  0.00    +0.000 A 
ATOM     17  C   UNL     1      44.506   2.267   9.090  0.00  0.00    +0.000 A 
ATOM     18  N   UNL     1      45.300   2.585   8.044  0.00  0.00    +0.000 NA
ATOM     19  C   UNL     1      45.859   3.813   7.999  0.00  0.00    +0.000 A 
ATOM     20  C   UNL     1      45.668   4.808   8.949  0.00  0.00    +0.000 A 
ATOM     21  C   UNL     1      44.833   4.492  10.033  0.00  0.00    +0.000 A 
ATOM     22  H   UNL     1      43.028   2.311  11.537  0.00  0.00    +0.000 HD
ENDBRANCH  12  13
ENDBRANCH   4  12
TORSDOF 5
ENDMDL
MODEL 5
REMARK VINA RESULT:    -5.532      3.893      6.970
REMARK INTER + INTRA:          -7.339
REMARK INTER:                  -6.972
REMARK INTRA:                  -0.367
REMARK UNBOUND:                -0.352
REMARK  Name = 
REMARK  5 active torsions:
REMARK  status: ('A' for Active; 'I' for Inactive)
REMARK    1  A    between atoms: N_1  and  C_2
REMARK    2  A    between atoms: C_2  and  C_3
REMARK    3  A    between atoms: C_3  and  N_4
REMARK    4  A    between atoms: N_7  and  C_8
REMARK    5  A    between atoms: C_8  and  C_9
REMARK                            x       y       z     vdW  Elec       q    Type
REMARK                         _______ _______ _______ _____ _____    ______ ____
ROOT
ATOM      1  N   UNL     1      48.072   5.052  16.722  0.00  0.00    +0.000 NA
ATOM      2  C   UNL     1      47.150   4.310  15.829  0.00  0.00    +0.000 C 
ATOM      3  C   UNL     1      47.622   4.241  14.358  0.00  0.00    +0.000 C 
ATOM      4  N   UNL     1      47.860   5.564  13.738  0.00  0.00    +0.000 NA
ATOM      5  C   UNL     1      48.786   6.320  14.610  0.00  0.00    +0.000 C 
ATOM      6  C   UNL     1      48.384   6.360  16.108  0.00  0.00    +0.000 C 
ENDROOT
BRANCH   1   7
ATOM      7  C   UNL     1      49.261   4.222  17.001  0.00  0.00    +0.000 C 
BRANCH   7   8
ATOM      8  C   UNL     1      48.977   2.724  17.229  0.00  0.00    +0.000 C 
BRANCH   8   9
ATOM      9  N   UNL     1      49.675   1.900  16.238  0.00  0.00    +0.000 NA
ATOM     10  H   UNL     1      49.294   2.098  15.314  0.00  0.00    +0.000 HD
ATOM     11  H   UNL     1      49.484   0.915  16.419  0.00  0.00    +0.000 HD
ENDBRANCH   8   9
ENDBRANCH   7   8
ENDBRANCH   1   7
BRANCH   4  12
ATOM     12  C   UNL     1      46.612   6.325  13.511  0.00  0.00    +0.000 C 
BRANCH  12  13
ATOM     13  C   UNL     1      45.971   5.897  12.222  0.00  0.00    +0.000 A 
ATOM     14  C   UNL     1      46.262   6.397  10.963  0.00  0.00    +0.000 A 
ATOM     15  N   UNL     1      45.577   5.663  10.038  0.00  0.00    +0.000 N 
ATOM     16  C   UNL     1      44.825   4.696  10.661  0.00  0.00    +0.000 A 
ATOM     17  C   UNL     1      44.018   3.700  10.127  0.00  0.00    +0.000 A 
ATOM     18  N   UNL     1      43.361   2.865  10.960  0.00  0.00    +0.000 NA
ATOM     19  C   UNL     1      43.506   3.026  12.293  0.00  0.00    +0.000 A 
ATOM     20  C   UNL     1      44.308   3.987  12.894  0.00  0.00    +0.000 A 
ATOM     21  C   UNL     1      45.007   4.851  12.036  0.00  0.00    +0.000 A 
ATOM     22  H   UNL     1      45.637   5.790   9.036  0.00  0.00    +0.000 HD
ENDBRANCH  12  13
ENDBRANCH   4  12
TORSDOF 5
ENDMDL
MODEL 6
REMARK VINA RESULT:    -5.356      2.110      4.152
REMARK INTER + INTRA:          -7.117
REMARK INTER:                  -6.720
REMARK INTRA:                  -0.397
REMARK UNBOUND:                -0.352
REMARK  Name = 
REMARK  5 active torsions:
REMARK  status: ('A' for Active; 'I' for Inactive)
REMARK    1  A    between atoms: N_1  and  C_2
REMARK    2  A    between atoms: C_2  and  C_3
REMARK    3  A    between atoms: C_3  and  N_4
REMARK    4  A    between atoms: N_7  and  C_8
REMARK    5  A    between atoms: C_8  and  C_9
REMARK                            x       y       z     vdW  Elec       q    Type
REMARK                         _______ _______ _______ _____ _____    ______ ____
ROOT
ATOM      1  N   UNL     1      44.053   3.457  10.683  0.00  0.00    +0.000 NA
ATOM      2  C   UNL     1      44.229   4.833  10.159  0.00  0.00    +0.000 C 
ATOM      3  C   UNL     1      45.562   5.497  10.575  0.00  0.00    +0.000 C 
ATOM      4  N   UNL     1      45.774   5.558  12.039  0.00  0.00    +0.000 NA
ATOM      5  C   UNL     1      45.611   4.191  12.583  0.00  0.00    +0.000 C 
ATOM      6  C   UNL     1      44.316   3.462  12.137  0.00  0.00    +0.000 C 
ENDROOT
BRANCH   1   7
ATOM      7  C   UNL     1      44.911   2.527   9.921  0.00  0.00    +0.000 C 
BRANCH   7   8
ATOM      8  C   UNL     1      45.011   2.815   8.410  0.00  0.00    +0.000 C 
BRANCH   8   9
ATOM      9  N   UNL     1      46.284   2.332   7.867  0.00  0.00    +0.000 NA
ATOM     10  H   UNL     1      46.218   1.327   7.709  0.00  0.00    +0.000 HD
ATOM     11  H   UNL     1      47.021   2.463   8.560  0.00  0.00    +0.000 HD
ENDBRANCH   8   9
ENDBRANCH   7   8
ENDBRANCH   1   7
BRANCH   4  12
ATOM     12  C   UNL     1      44.861   6.505  12.713  0.00  0.00    +0.000 C 
BRANCH  12  13
ATOM     13  C   UNL     1      45.431   7.894  12.672  0.00  0.00    +0.000 A 
ATOM     14  C   UNL     1      46.548   8.336  13.363  0.00  0.00    +0.000 A 
ATOM     15  N   UNL     1      46.829   9.610  12.959  0.00  0.00    +0.000 N 
ATOM     16  C   UNL     1      45.909  10.026  12.027  0.00  0.00    +0.000 A 
ATOM     17  C   UNL     1      45.827  11.214  11.312  0.00  0.00    +0.000 A 
ATOM     18  N   UNL     1      44.805  11.394  10.447  0.00  0.00    +0.000 NA
ATOM     19  C   UNL     1      43.889  10.413  10.306  0.00  0.00    +0.000 A 
ATOM     20  C   UNL     1      43.919   9.196  10.974  0.00  0.00    +0.000 A 
ATOM     21  C   UNL     1      44.986   8.993  11.865  0.00  0.00    +0.000 A 
ATOM     22  H   UNL     1      47.617  10.158  13.275  0.00  0.00    +0.000 HD
ENDBRANCH  12  13
ENDBRANCH   4  12
TORSDOF 5
ENDMDL
MODEL 7
REMARK VINA RESULT:    -5.286      2.017      3.948
REMARK INTER + INTRA:          -7.030
REMARK INTER:                  -6.888
REMARK INTRA:                  -0.141
REMARK UNBOUND:                -0.352
REMARK  Name = 
REMARK  5 active torsions:
REMARK  status: ('A' for Active; 'I' for Inactive)
REMARK    1  A    between atoms: N_1  and  C_2
REMARK    2  A    between atoms: C_2  and  C_3
REMARK    3  A    between atoms: C_3  and  N_4
REMARK    4  A    between atoms: N_7  and  C_8
REMARK    5  A    between atoms: C_8  and  C_9
REMARK                            x       y       z     vdW  Elec       q    Type
REMARK                         _______ _______ _______ _____ _____    ______ ____
ROOT
ATOM      1  N   UNL     1      43.663   3.395  10.638  0.00  0.00    +0.000 NA
ATOM      2  C   UNL     1      44.051   4.759  10.206  0.00  0.00    +0.000 C 
ATOM      3  C   UNL     1      45.481   5.168  10.628  0.00  0.00    +0.000 C 
ATOM      4  N   UNL     1      45.727   5.087  12.085  0.00  0.00    +0.000 NA
ATOM      5  C   UNL     1      45.355   3.728  12.538  0.00  0.00    +0.000 C 
ATOM      6  C   UNL     1      43.951   3.251  12.081  0.00  0.00    +0.000 C 
ENDROOT
BRANCH   1   7
ATOM      7  C   UNL     1      44.345   2.398   9.789  0.00  0.00    +0.000 C 
BRANCH   7   8
ATOM      8  C   UNL     1      44.766   2.902   8.394  0.00  0.00    +0.000 C 
BRANCH   8   9
ATOM      9  N   UNL     1      46.049   2.320   7.992  0.00  0.00    +0.000 NA
ATOM     10  H   UNL     1      46.440   1.801   8.777  0.00  0.00    +0.000 HD
ATOM     11  H   UNL     1      46.712   3.067   7.786  0.00  0.00    +0.000 HD
ENDBRANCH   8   9
ENDBRANCH   7   8
ENDBRANCH   1   7
BRANCH   4  12
ATOM     12  C   UNL     1      44.992   6.116  12.850  0.00  0.00    +0.000 C 
BRANCH  12  13
ATOM     13  C   UNL     1      45.779   7.394  12.888  0.00  0.00    +0.000 A 
ATOM     14  C   UNL     1      45.302   8.655  12.566  0.00  0.00    +0.000 A 
ATOM     15  N   UNL     1      46.270   9.572  12.859  0.00  0.00    +0.000 N 
ATOM     16  C   UNL     1      47.386   8.941  13.353  0.00  0.00    +0.000 A 
ATOM     17  C   UNL     1      48.583   9.468  13.823  0.00  0.00    +0.000 A 
ATOM     18  N   UNL     1      49.550   8.627  14.252  0.00  0.00    +0.000 NA
ATOM     19  C   UNL     1      49.325   7.297  14.208  0.00  0.00    +0.000 A 
ATOM     20  C   UNL     1      48.149   6.705  13.768  0.00  0.00    +0.000 A 
ATOM     21  C   UNL     1      47.132   7.570  13.333  0.00  0.00    +0.000 A 
ATOM     22  H   UNL     1      46.171  10.573  12.757  0.00  0.00    +0.000 HD
ENDBRANCH  12  13
ENDBRANCH   4  12
TORSDOF 5
ENDMDL
MODEL 8
REMARK VINA RESULT:    -5.159      2.539      6.514
REMARK INTER + INTRA:          -6.869
REMARK INTER:                  -6.409
REMARK INTRA:                  -0.459
REMARK UNBOUND:                -0.352
REMARK  Name = 
REMARK  5 active torsions:
REMARK  status: ('A' for Active; 'I' for Inactive)
REMARK    1  A    between atoms: N_1  and  C_2
REMARK    2  A    between atoms: C_2  and  C_3
REMARK    3  A    between atoms: C_3  and  N_4
REMARK    4  A    between atoms: N_7  and  C_8
REMARK    5  A    between atoms: C_8  and  C_9
REMARK                            x       y       z     vdW  Elec       q    Type
REMARK                         _______ _______ _______ _____ _____    ______ ____
ROOT
ATOM      1  N   UNL     1      49.015   9.150  11.921  0.00  0.00    +0.000 NA
ATOM      2  C   UNL     1      47.754   9.622  12.541  0.00  0.00    +0.000 C 
ATOM      3  C   UNL     1      47.215   8.691  13.653  0.00  0.00    +0.000 C 
ATOM      4  N   UNL     1      46.989   7.296  13.213  0.00  0.00    +0.000 NA
ATOM      5  C   UNL     1      48.240   6.800  12.597  0.00  0.00    +0.000 C 
ATOM      6  C   UNL     1      48.851   7.736  11.521  0.00  0.00    +0.000 C 
ENDROOT
BRANCH   1   7
ATOM      7  C   UNL     1      50.138   9.384  12.850  0.00  0.00    +0.000 C 
BRANCH   7   8
ATOM      8  C   UNL     1      51.466   8.706  12.459  0.00  0.00    +0.000 C 
BRANCH   8   9
ATOM      9  N   UNL     1      52.076   8.040  13.613  0.00  0.00    +0.000 NA
ATOM     10  H   UNL     1      51.432   8.086  14.402  0.00  0.00    +0.000 HD
ATOM     11  H   UNL     1      52.912   8.550  13.898  0.00  0.00    +0.000 HD
ENDBRANCH   8   9
ENDBRANCH   7   8
ENDBRANCH   1   7
BRANCH   4  12
ATOM     12  C   UNL     1      45.853   7.165  12.276  0.00  0.00    +0.000 C 
BRANCH  12  13
ATOM     13  C   UNL     1      45.404   5.734  12.202  0.00  0.00    +0.000 A 
ATOM     14  C   UNL     1      45.013   4.946  13.273  0.00  0.00    +0.000 A 
ATOM     15  N   UNL     1      44.544   3.759  12.788  0.00  0.00    +0.000 N 
ATOM     16  C   UNL     1      44.633   3.739  11.417  0.00  0.00    +0.000 A 
ATOM     17  C   UNL     1      44.235   2.770  10.505  0.00  0.00    +0.000 A 
ATOM     18  N   UNL     1      44.444   2.980   9.187  0.00  0.00    +0.000 NA
ATOM     19  C   UNL     1      45.039   4.127   8.795  0.00  0.00    +0.000 A 
ATOM     20  C   UNL     1      45.445   5.143   9.650  0.00  0.00    +0.000 A 
ATOM     21  C   UNL     1      45.219   4.940  11.021  0.00  0.00    +0.000 A 
ATOM     22  H   UNL     1      44.158   3.014  13.352  0.00  0.00    +0.000 HD
ENDBRANCH  12  13
ENDBRANCH   4  12
TORSDOF 5
ENDMDL
MODEL 9
REMARK VINA RESULT:    -5.137      5.126      6.727
REMARK INTER + INTRA:          -6.841
REMARK INTER:                  -6.462
REMARK INTRA:                  -0.379
REMARK UNBOUND:                -0.352
REMARK  Name = 
REMARK  5 active torsions:
REMARK  status: ('A' for Active; 'I' for Inactive)
REMARK    1  A    between atoms: N_1  and  C_2
REMARK    2  A    between atoms: C_2  and  C_3
REMARK    3  A    between atoms: C_3  and  N_4
REMARK    4  A    between atoms: N_7  and  C_8
REMARK    5  A    between atoms: C_8  and  C_9
REMARK                            x       y       z     vdW  Elec       q    Type
REMARK                         _______ _______ _______ _____ _____    ______ ____
ROOT
ATOM      1  N   UNL     1      45.088   5.386  12.226  0.00  0.00    +0.000 NA
ATOM      2  C   UNL     1      45.983   6.271  13.009  0.00  0.00    +0.000 C 
ATOM      3  C   UNL     1      47.379   5.666  13.285  0.00  0.00    +0.000 C 
ATOM      4  N   UNL     1      47.344   4.359  13.978  0.00  0.00    +0.000 NA
ATOM      5  C   UNL     1      46.461   3.455  13.208  0.00  0.00    +0.000 C 
ATOM      6  C   UNL     1      45.072   4.047  12.853  0.00  0.00    +0.000 C 
ENDROOT
BRANCH   1   7
ATOM      7  C   UNL     1      45.514   5.381  10.813  0.00  0.00    +0.000 C 
BRANCH   7   8
ATOM      8  C   UNL     1      44.943   4.232   9.958  0.00  0.00    +0.000 C 
BRANCH   8   9
ATOM      9  N   UNL     1      43.765   4.673   9.206  0.00  0.00    +0.000 NA
ATOM     10  H   UNL     1      43.341   5.466   9.687  0.00  0.00    +0.000 HD
ATOM     11  H   UNL     1      43.064   3.933   9.206  0.00  0.00    +0.000 HD
ENDBRANCH   8   9
ENDBRANCH   7   8
ENDBRANCH   1   7
BRANCH   4  12
ATOM     12  C   UNL     1      46.892   4.465  15.382  0.00  0.00    +0.000 C 
BRANCH  12  13
ATOM     13  C   UNL     1      47.963   3.967  16.310  0.00  0.00    +0.000 A 
ATOM     14  C   UNL     1      48.294   2.640  16.534  0.00  0.00    +0.000 A 
ATOM     15  N   UNL     1      49.402   2.600  17.330  0.00  0.00    +0.000 N 
ATOM     16  C   UNL     1      49.802   3.875  17.652  0.00  0.00    +0.000 A 
ATOM     17  C   UNL     1      50.893   4.316  18.389  0.00  0.00    +0.000 A 
ATOM     18  N   UNL     1      51.067   5.642  18.580  0.00  0.00    +0.000 NA
ATOM     19  C   UNL     1      50.171   6.501  18.050  0.00  0.00    +0.000 A 
ATOM     20  C   UNL     1      49.070   6.130  17.290  0.00  0.00    +0.000 A 
ATOM     21  C   UNL     1      48.887   4.755  17.073  0.00  0.00    +0.000 A 
ATOM     22  H   UNL     1      49.880   1.756  17.617  0.00  0.00    +0.000 HD
ENDBRANCH  12  13
ENDBRANCH   4  12
TORSDOF 5
ENDMDL
