MODEL 1
REMARK VINA RESULT:    -8.325      0.000      0.000
REMARK INTER + INTRA:         -10.636
REMARK INTER:                 -10.272
REMARK INTRA:                  -0.365
REMARK UNBOUND:                -0.365
REMARK  Name = 
REMARK  4 active torsions:
REMARK  status: ('A' for Active; 'I' for Inactive)
REMARK    1  A    between atoms: C_2  and  C_4
REMARK    2  A    between atoms: C_7  and  C_8
REMARK    3  A    between atoms: C_8  and  C_9
REMARK    4  A    between atoms: C_9  and  C_10
REMARK                            x       y       z     vdW  Elec       q    Type
REMARK                         _______ _______ _______ _____ _____    ______ ____
ROOT
ATOM      1  C   UNL     1      46.444   2.363   7.692  0.00  0.00    +0.000 A 
ATOM      2  C   UNL     1      45.646   1.825   8.671  0.00  0.00    +0.000 A 
ATOM      3  N   UNL     1      44.824   2.561   9.443  0.00  0.00    +0.000 NA
ATOM      4  C   UNL     1      44.858   3.895   9.273  0.00  0.00    +0.000 A 
ATOM      5  N   UNL     1      45.604   4.516   8.335  0.00  0.00    +0.000 NA
ATOM      6  C   UNL     1      46.389   3.731   7.563  0.00  0.00    +0.000 A 
ENDROOT
BRANCH   1   8
ATOM      7  N   UNL     1      48.442   2.172   6.329  0.00  0.00    +0.000 N 
ATOM      8  C   UNL     1      47.329   1.561   6.838  0.00  0.00    +0.000 C 
ATOM      9  O   UNL     1      47.093   0.384   6.615  0.00  0.00    +0.000 OA
ATOM     10  H   UNL     1      49.082   1.578   5.815  0.00  0.00    +0.000 HD
ATOM     11  H   UNL     1      48.808   3.047   6.677  0.00  0.00    +0.000 HD
ENDBRANCH   1   8
BRANCH   4  12
ATOM     12  C   UNL     1      43.912   4.765  10.061  0.00  0.00    +0.000 C 
BRANCH  12  13
ATOM     13  C   UNL     1      44.014   4.800  11.590  0.00  0.00    +0.000 C 
ATOM     14  C   UNL     1      43.313   3.748  12.438  0.00  0.00    +0.000 C 
ATOM     15  C   UNL     1      42.843   5.174  12.491  0.00  0.00    +0.000 C 
BRANCH  13  16
ATOM     16  C   UNL     1      45.391   5.306  12.010  0.00  0.00    +0.000 A 
ATOM     17  C   UNL     1      45.990   6.408  11.375  0.00  0.00    +0.000 A 
ATOM     18  C   UNL     1      47.134   7.015  11.899  0.00  0.00    +0.000 A 
ATOM     19  C   UNL     1      47.702   6.524  13.071  0.00  0.00    +0.000 A 
ATOM     20  C   UNL     1      47.148   5.409  13.683  0.00  0.00    +0.000 A 
ATOM     21  F   UNL     1      47.680   4.947  14.822  0.00  0.00    +0.000 F 
ATOM     22  C   UNL     1      46.017   4.794  13.160  0.00  0.00    +0.000 A 
ENDBRANCH  13  16
ENDBRANCH  12  13
ENDBRANCH   4  12
TORSDOF 4
ENDMDL
MODEL 2
REMARK VINA RESULT:    -8.101      1.050      1.833
REMARK INTER + INTRA:         -10.360
REMARK INTER:                 -10.061
REMARK INTRA:                  -0.300
REMARK UNBOUND:                -0.365
REMARK  Name = 
REMARK  4 active torsions:
REMARK  status: ('A' for Active; 'I' for Inactive)
REMARK    1  A    between atoms: C_2  and  C_4
REMARK    2  A    between atoms: C_7  and  C_8
REMARK    3  A    between atoms: C_8  and  C_9
REMARK    4  A    between atoms: C_9  and  C_10
REMARK                            x       y       z     vdW  Elec       q    Type
REMARK                         _______ _______ _______ _____ _____    ______ ____
ROOT
ATOM      1  C   UNL     1      46.547   2.616   7.682  0.00  0.00    +0.000 A 
ATOM      2  C   UNL     1      46.474   3.981   7.550  0.00  0.00    +0.000 A 
ATOM      3  N   UNL     1      45.668   4.755   8.302  0.00  0.00    +0.000 NA
ATOM      4  C   UNL     1      44.856   4.127   9.171  0.00  0.00    +0.000 A 
ATOM      5  N   UNL     1      44.858   2.793   9.376  0.00  0.00    +0.000 NA
ATOM      6  C   UNL     1      45.707   2.063   8.619  0.00  0.00    +0.000 A 
ENDROOT
BRANCH   1   8
ATOM      7  N   UNL     1      48.604   2.326   6.428  0.00  0.00    +0.000 N 
ATOM      8  C   UNL     1      47.436   1.771   6.875  0.00  0.00    +0.000 C 
ATOM      9  O   UNL     1      47.154   0.607   6.635  0.00  0.00    +0.000 OA
ATOM     10  H   UNL     1      49.240   1.702   5.947  0.00  0.00    +0.000 HD
ATOM     11  H   UNL     1      48.993   3.182   6.799  0.00  0.00    +0.000 HD
ENDBRANCH   1   8
BRANCH   4  12
ATOM     12  C   UNL     1      43.980   4.945  10.086  0.00  0.00    +0.000 C 
BRANCH  12  13
ATOM     13  C   UNL     1      44.027   4.697  11.598  0.00  0.00    +0.000 C 
ATOM     14  C   UNL     1      43.446   3.422  12.192  0.00  0.00    +0.000 C 
ATOM     15  C   UNL     1      42.788   4.740  12.484  0.00  0.00    +0.000 C 
BRANCH  13  16
ATOM     16  C   UNL     1      45.310   5.281  12.183  0.00  0.00    +0.000 A 
ATOM     17  C   UNL     1      46.004   4.631  13.218  0.00  0.00    +0.000 A 
ATOM     18  C   UNL     1      47.287   5.034  13.597  0.00  0.00    +0.000 A 
ATOM     19  C   UNL     1      47.897   6.103  12.945  0.00  0.00    +0.000 A 
ATOM     20  C   UNL     1      47.204   6.782  11.954  0.00  0.00    +0.000 A 
ATOM     21  F   UNL     1      47.796   7.797  11.311  0.00  0.00    +0.000 F 
ATOM     22  C   UNL     1      45.924   6.393  11.581  0.00  0.00    +0.000 A 
ENDBRANCH  13  16
ENDBRANCH  12  13
ENDBRANCH   4  12
TORSDOF 4
ENDMDL
MODEL 3
REMARK VINA RESULT:    -7.254      4.111      6.363
REMARK INTER + INTRA:          -9.315
REMARK INTER:                  -9.104
REMARK INTRA:                  -0.210
REMARK UNBOUND:                -0.365
REMARK  Name = 
REMARK  4 active torsions:
REMARK  status: ('A' for Active; 'I' for Inactive)
REMARK    1  A    between atoms: C_2  and  C_4
REMARK    2  A    between atoms: C_7  and  C_8
REMARK    3  A    between atoms: C_8  and  C_9
REMARK    4  A    between atoms: C_9  and  C_10
REMARK                            x       y       z     vdW  Elec       q    Type
REMARK                         _______ _______ _______ _____ _____    ______ ____
ROOT
ATOM      1  C   UNL     1      47.860   5.872  14.634  0.00  0.00    +0.000 A 
ATOM      2  C   UNL     1      47.230   4.770  15.159  0.00  0.00    +0.000 A 
ATOM      3  N   UNL     1      46.386   3.993  14.453  0.00  0.00    +0.000 NA
ATOM      4  C   UNL     1      46.111   4.378  13.194  0.00  0.00    +0.000 A 
ATOM      5  N   UNL     1      46.683   5.441  12.589  0.00  0.00    +0.000 NA
ATOM      6  C   UNL     1      47.547   6.171  13.329  0.00  0.00    +0.000 A 
ENDROOT
BRANCH   1   8
ATOM      7  N   UNL     1      48.270   7.507  16.379  0.00  0.00    +0.000 N 
ATOM      8  C   UNL     1      48.792   6.711  15.397  0.00  0.00    +0.000 C 
ATOM      9  O   UNL     1      49.994   6.676  15.180  0.00  0.00    +0.000 OA
ATOM     10  H   UNL     1      48.938   8.011  16.949  0.00  0.00    +0.000 HD
ATOM     11  H   UNL     1      47.340   7.389  16.758  0.00  0.00    +0.000 HD
ENDBRANCH   1   8
BRANCH   4  12
ATOM     12  C   UNL     1      45.227   3.513  12.333  0.00  0.00    +0.000 C 
BRANCH  12  13
ATOM     13  C   UNL     1      44.404   4.153  11.210  0.00  0.00    +0.000 C 
ATOM     14  C   UNL     1      43.865   5.569  11.355  0.00  0.00    +0.000 C 
ATOM     15  C   UNL     1      42.906   4.413  11.324  0.00  0.00    +0.000 C 
BRANCH  13  16
ATOM     16  C   UNL     1      44.917   3.681   9.852  0.00  0.00    +0.000 A 
ATOM     17  C   UNL     1      45.451   4.584   8.917  0.00  0.00    +0.000 A 
ATOM     18  C   UNL     1      46.127   4.137   7.780  0.00  0.00    +0.000 A 
ATOM     19  C   UNL     1      46.276   2.771   7.555  0.00  0.00    +0.000 A 
ATOM     20  C   UNL     1      45.713   1.868   8.446  0.00  0.00    +0.000 A 
ATOM     21  F   UNL     1      45.873   0.554   8.245  0.00  0.00    +0.000 F 
ATOM     22  C   UNL     1      45.030   2.308   9.573  0.00  0.00    +0.000 A 
ENDBRANCH  13  16
ENDBRANCH  12  13
ENDBRANCH   4  12
TORSDOF 4
ENDMDL
MODEL 4
REMARK VINA RESULT:    -6.731      4.003      6.364
REMARK INTER + INTRA:          -8.669
REMARK INTER:                  -8.895
REMARK INTRA:                   0.225
REMARK UNBOUND:                -0.365
REMARK  Name = 
REMARK  4 active torsions:
REMARK  status: ('A' for Active; 'I' for Inactive)
REMARK    1  A    between atoms: C_2  and  C_4
REMARK    2  A    between atoms: C_7  and  C_8
REMARK    3  A    between atoms: C_8  and  C_9
REMARK    4  A    between atoms: C_9  and  C_10
REMARK                            x       y       z     vdW  Elec       q    Type
REMARK                         _______ _______ _______ _____ _____    ______ ____
ROOT
ATOM      1  C   UNL     1      47.019   7.795  13.073  0.00  0.00    +0.000 A 
ATOM      2  C   UNL     1      45.677   8.073  12.982  0.00  0.00    +0.000 A 
ATOM      3  N   UNL     1      44.832   7.391  12.186  0.00  0.00    +0.000 NA
ATOM      4  C   UNL     1      45.368   6.441  11.399  0.00  0.00    +0.000 A 
ATOM      5  N   UNL     1      46.672   6.091  11.420  0.00  0.00    +0.000 NA
ATOM      6  C   UNL     1      47.474   6.784  12.259  0.00  0.00    +0.000 A 
ENDROOT
BRANCH   1   8
ATOM      7  N   UNL     1      47.448   8.985  15.143  0.00  0.00    +0.000 N 
ATOM      8  C   UNL     1      47.940   8.526  13.952  0.00  0.00    +0.000 C 
ATOM      9  O   UNL     1      49.109   8.693  13.641  0.00  0.00    +0.000 OA
ATOM     10  H   UNL     1      48.120   9.410  15.770  0.00  0.00    +0.000 HD
ATOM     11  H   UNL     1      46.580   8.664  15.550  0.00  0.00    +0.000 HD
ENDBRANCH   1   8
BRANCH   4  12
ATOM     12  C   UNL     1      44.462   5.599  10.536  0.00  0.00    +0.000 C 
BRANCH  12  13
ATOM     13  C   UNL     1      44.539   4.071  10.624  0.00  0.00    +0.000 C 
ATOM     14  C   UNL     1      43.459   3.281  11.348  0.00  0.00    +0.000 C 
ATOM     15  C   UNL     1      44.847   3.329  11.920  0.00  0.00    +0.000 C 
BRANCH  13  16
ATOM     16  C   UNL     1      45.155   3.505   9.347  0.00  0.00    +0.000 A 
ATOM     17  C   UNL     1      45.758   4.342   8.393  0.00  0.00    +0.000 A 
ATOM     18  C   UNL     1      46.518   3.819   7.345  0.00  0.00    +0.000 A 
ATOM     19  C   UNL     1      46.686   2.441   7.232  0.00  0.00    +0.000 A 
ATOM     20  C   UNL     1      46.058   1.602   8.140  0.00  0.00    +0.000 A 
ATOM     21  F   UNL     1      46.234   0.277   8.047  0.00  0.00    +0.000 F 
ATOM     22  C   UNL     1      45.291   2.116   9.178  0.00  0.00    +0.000 A 
ENDBRANCH  13  16
ENDBRANCH  12  13
ENDBRANCH   4  12
TORSDOF 4
ENDMDL
MODEL 5
REMARK VINA RESULT:    -6.471      4.773      6.970
REMARK INTER + INTRA:          -8.348
REMARK INTER:                  -8.185
REMARK INTRA:                  -0.163
REMARK UNBOUND:                -0.365
REMARK  Name = 
REMARK  4 active torsions:
REMARK  status: ('A' for Active; 'I' for Inactive)
REMARK    1  A    between atoms: C_2  and  C_4
REMARK    2  A    between atoms: C_7  and  C_8
REMARK    3  A    between atoms: C_8  and  C_9
REMARK    4  A    between atoms: C_9  and  C_10
REMARK                            x       y       z     vdW  Elec       q    Type
REMARK                         _______ _______ _______ _____ _____    ______ ____
ROOT
ATOM      1  C   UNL     1      48.291   5.519  16.192  0.00  0.00    +0.000 A 
ATOM      2  C   UNL     1      47.496   4.425  16.432  0.00  0.00    +0.000 A 
ATOM      3  N   UNL     1      46.763   3.819  15.480  0.00  0.00    +0.000 NA
ATOM      4  C   UNL     1      46.775   4.375  14.255  0.00  0.00    +0.000 A 
ATOM      5  N   UNL     1      47.527   5.444  13.920  0.00  0.00    +0.000 NA
ATOM      6  C   UNL     1      48.269   5.999  14.904  0.00  0.00    +0.000 A 
ENDROOT
BRANCH   1   8
ATOM      7  N   UNL     1      48.445   6.802  18.245  0.00  0.00    +0.000 N 
ATOM      8  C   UNL     1      49.104   6.172  17.225  0.00  0.00    +0.000 C 
ATOM      9  O   UNL     1      50.324   6.129  17.189  0.00  0.00    +0.000 OA
ATOM     10  H   UNL     1      49.023   7.171  18.991  0.00  0.00    +0.000 HD
ATOM     11  H   UNL     1      47.467   6.657  18.452  0.00  0.00    +0.000 HD
ENDBRANCH   1   8
BRANCH   4  12
ATOM     12  C   UNL     1      46.027   3.702  13.132  0.00  0.00    +0.000 C 
BRANCH  12  13
ATOM     13  C   UNL     1      44.883   4.446  12.433  0.00  0.00    +0.000 C 
ATOM     14  C   UNL     1      44.464   5.834  12.896  0.00  0.00    +0.000 C 
ATOM     15  C   UNL     1      43.524   4.677  13.084  0.00  0.00    +0.000 C 
BRANCH  13  16
ATOM     16  C   UNL     1      44.883   4.120  10.942  0.00  0.00    +0.000 A 
ATOM     17  C   UNL     1      45.374   5.033   9.993  0.00  0.00    +0.000 A 
ATOM     18  C   UNL     1      45.589   4.656   8.666  0.00  0.00    +0.000 A 
ATOM     19  C   UNL     1      45.309   3.353   8.262  0.00  0.00    +0.000 A 
ATOM     20  C   UNL     1      44.780   2.455   9.178  0.00  0.00    +0.000 A 
ATOM     21  F   UNL     1      44.530   1.195   8.799  0.00  0.00    +0.000 F 
ATOM     22  C   UNL     1      44.554   2.828  10.497  0.00  0.00    +0.000 A 
ENDBRANCH  13  16
ENDBRANCH  12  13
ENDBRANCH   4  12
TORSDOF 4
ENDMDL
MODEL 6
REMARK VINA RESULT:    -5.833      4.906      7.226
REMARK INTER + INTRA:          -7.562
REMARK INTER:                  -7.386
REMARK INTRA:                  -0.176
REMARK UNBOUND:                -0.365
REMARK  Name = 
REMARK  4 active torsions:
REMARK  status: ('A' for Active; 'I' for Inactive)
REMARK    1  A    between atoms: C_2  and  C_4
REMARK    2  A    between atoms: C_7  and  C_8
REMARK    3  A    between atoms: C_8  and  C_9
REMARK    4  A    between atoms: C_9  and  C_10
REMARK                            x       y       z     vdW  Elec       q    Type
REMARK                         _______ _______ _______ _____ _____    ______ ____
ROOT
ATOM      1  C   UNL     1      48.116   4.950  16.974  0.00  0.00    +0.000 A 
ATOM      2  C   UNL     1      47.352   4.077  16.238  0.00  0.00    +0.000 A 
ATOM      3  N   UNL     1      47.124   4.223  14.919  0.00  0.00    +0.000 NA
ATOM      4  C   UNL     1      47.624   5.326  14.332  0.00  0.00    +0.000 A 
ATOM      5  N   UNL     1      48.389   6.238  14.969  0.00  0.00    +0.000 NA
ATOM      6  C   UNL     1      48.615   6.030  16.285  0.00  0.00    +0.000 A 
ENDROOT
BRANCH   1   8
ATOM      7  N   UNL     1      48.067   3.578  18.974  0.00  0.00    +0.000 N 
ATOM      8  C   UNL     1      48.379   4.784  18.408  0.00  0.00    +0.000 C 
ATOM      9  O   UNL     1      48.883   5.682  19.065  0.00  0.00    +0.000 OA
ATOM     10  H   UNL     1      48.336   3.456  19.943  0.00  0.00    +0.000 HD
ATOM     11  H   UNL     1      47.887   2.740  18.439  0.00  0.00    +0.000 HD
ENDBRANCH   1   8
BRANCH   4  12
ATOM     12  C   UNL     1      47.458   5.511  12.845  0.00  0.00    +0.000 C 
BRANCH  12  13
ATOM     13  C   UNL     1      46.206   6.210  12.305  0.00  0.00    +0.000 C 
ATOM     14  C   UNL     1      46.285   7.627  11.756  0.00  0.00    +0.000 C 
ATOM     15  C   UNL     1      45.526   7.368  13.026  0.00  0.00    +0.000 C 
BRANCH  13  16
ATOM     16  C   UNL     1      45.292   5.193  11.627  0.00  0.00    +0.000 A 
ATOM     17  C   UNL     1      45.237   5.077  10.227  0.00  0.00    +0.000 A 
ATOM     18  C   UNL     1      44.585   4.006   9.612  0.00  0.00    +0.000 A 
ATOM     19  C   UNL     1      43.970   3.029  10.392  0.00  0.00    +0.000 A 
ATOM     20  C   UNL     1      43.977   3.156  11.774  0.00  0.00    +0.000 A 
ATOM     21  F   UNL     1      43.405   2.209  12.528  0.00  0.00    +0.000 F 
ATOM     22  C   UNL     1      44.614   4.226  12.390  0.00  0.00    +0.000 A 
ENDBRANCH  13  16
ENDBRANCH  12  13
ENDBRANCH   4  12
TORSDOF 4
ENDMDL
MODEL 7
REMARK VINA RESULT:    -5.811      5.249      7.320
REMARK INTER + INTRA:          -7.534
REMARK INTER:                  -6.975
REMARK INTRA:                  -0.559
REMARK UNBOUND:                -0.365
REMARK  Name = 
REMARK  4 active torsions:
REMARK  status: ('A' for Active; 'I' for Inactive)
REMARK    1  A    between atoms: C_2  and  C_4
REMARK    2  A    between atoms: C_7  and  C_8
REMARK    3  A    between atoms: C_8  and  C_9
REMARK    4  A    between atoms: C_9  and  C_10
REMARK                            x       y       z     vdW  Elec       q    Type
REMARK                         _______ _______ _______ _____ _____    ______ ____
ROOT
ATOM      1  C   UNL     1      47.910   4.850  17.528  0.00  0.00    +0.000 A 
ATOM      2  C   UNL     1      48.472   5.666  16.576  0.00  0.00    +0.000 A 
ATOM      3  N   UNL     1      48.224   5.547  15.258  0.00  0.00    +0.000 NA
ATOM      4  C   UNL     1      47.437   4.525  14.876  0.00  0.00    +0.000 A 
ATOM      5  N   UNL     1      46.835   3.675  15.734  0.00  0.00    +0.000 NA
ATOM      6  C   UNL     1      47.091   3.856  17.049  0.00  0.00    +0.000 A 
ENDROOT
BRANCH   1   8
ATOM      7  N   UNL     1      48.628   3.890  19.637  0.00  0.00    +0.000 N 
ATOM      8  C   UNL     1      48.167   4.989  18.966  0.00  0.00    +0.000 C 
ATOM      9  O   UNL     1      48.001   6.057  19.536  0.00  0.00    +0.000 OA
ATOM     10  H   UNL     1      48.879   4.031  20.608  0.00  0.00    +0.000 HD
ATOM     11  H   UNL     1      49.011   3.075  19.177  0.00  0.00    +0.000 HD
ENDBRANCH   1   8
BRANCH   4  12
ATOM     12  C   UNL     1      47.070   4.380  13.421  0.00  0.00    +0.000 C 
BRANCH  12  13
ATOM     13  C   UNL     1      45.886   5.174  12.857  0.00  0.00    +0.000 C 
ATOM     14  C   UNL     1      44.474   4.925  13.364  0.00  0.00    +0.000 C 
ATOM     15  C   UNL     1      44.827   4.554  11.952  0.00  0.00    +0.000 C 
BRANCH  13  16
ATOM     16  C   UNL     1      46.324   6.597  12.525  0.00  0.00    +0.000 A 
ATOM     17  C   UNL     1      45.574   7.710  12.943  0.00  0.00    +0.000 A 
ATOM     18  C   UNL     1      46.082   9.007  12.845  0.00  0.00    +0.000 A 
ATOM     19  C   UNL     1      47.355   9.214  12.319  0.00  0.00    +0.000 A 
ATOM     20  C   UNL     1      48.087   8.129  11.859  0.00  0.00    +0.000 A 
ATOM     21  F   UNL     1      49.320   8.321  11.372  0.00  0.00    +0.000 F 
ATOM     22  C   UNL     1      47.582   6.838  11.944  0.00  0.00    +0.000 A 
ENDBRANCH  13  16
ENDBRANCH  12  13
ENDBRANCH   4  12
TORSDOF 4
ENDMDL
MODEL 8
REMARK VINA RESULT:    -5.648      3.046      4.876
REMARK INTER + INTRA:          -7.334
REMARK INTER:                  -7.184
REMARK INTRA:                  -0.149
REMARK UNBOUND:                -0.365
REMARK  Name = 
REMARK  4 active torsions:
REMARK  status: ('A' for Active; 'I' for Inactive)
REMARK    1  A    between atoms: C_2  and  C_4
REMARK    2  A    between atoms: C_7  and  C_8
REMARK    3  A    between atoms: C_8  and  C_9
REMARK    4  A    between atoms: C_9  and  C_10
REMARK                            x       y       z     vdW  Elec       q    Type
REMARK                         _______ _______ _______ _____ _____    ______ ____
ROOT
ATOM      1  C   UNL     1      44.561   4.139  11.516  0.00  0.00    +0.000 A 
ATOM      2  C   UNL     1      44.848   4.370  12.840  0.00  0.00    +0.000 A 
ATOM      3  N   UNL     1      45.371   5.525  13.293  0.00  0.00    +0.000 NA
ATOM      4  C   UNL     1      45.683   6.456  12.374  0.00  0.00    +0.000 A 
ATOM      5  N   UNL     1      45.435   6.325  11.054  0.00  0.00    +0.000 NA
ATOM      6  C   UNL     1      44.880   5.159  10.652  0.00  0.00    +0.000 A 
ENDROOT
BRANCH   1   8
ATOM      7  N   UNL     1      44.577   2.287   9.950  0.00  0.00    +0.000 N 
ATOM      8  C   UNL     1      43.976   2.888  11.022  0.00  0.00    +0.000 C 
ATOM      9  O   UNL     1      43.004   2.387  11.567  0.00  0.00    +0.000 OA
ATOM     10  H   UNL     1      44.210   1.382   9.680  0.00  0.00    +0.000 HD
ATOM     11  H   UNL     1      45.507   2.519   9.628  0.00  0.00    +0.000 HD
ENDBRANCH   1   8
BRANCH   4  12
ATOM     12  C   UNL     1      46.209   7.794  12.827  0.00  0.00    +0.000 C 
BRANCH  12  13
ATOM     13  C   UNL     1      47.721   8.045  12.845  0.00  0.00    +0.000 C 
ATOM     14  C   UNL     1      48.349   9.063  11.904  0.00  0.00    +0.000 C 
ATOM     15  C   UNL     1      48.649   7.602  11.720  0.00  0.00    +0.000 C 
BRANCH  13  16
ATOM     16  C   UNL     1      48.255   7.910  14.268  0.00  0.00    +0.000 A 
ATOM     17  C   UNL     1      48.305   9.012  15.139  0.00  0.00    +0.000 A 
ATOM     18  C   UNL     1      48.573   8.851  16.500  0.00  0.00    +0.000 A 
ATOM     19  C   UNL     1      48.801   7.577  17.015  0.00  0.00    +0.000 A 
ATOM     20  C   UNL     1      48.801   6.485  16.158  0.00  0.00    +0.000 A 
ATOM     21  F   UNL     1      49.000   5.257  16.652  0.00  0.00    +0.000 F 
ATOM     22  C   UNL     1      48.547   6.642  14.801  0.00  0.00    +0.000 A 
ENDBRANCH  13  16
ENDBRANCH  12  13
ENDBRANCH   4  12
TORSDOF 4
ENDMDL
MODEL 9
REMARK VINA RESULT:    -5.620      3.534      5.296
REMARK INTER + INTRA:          -7.298
REMARK INTER:                  -6.948
REMARK INTRA:                  -0.350
REMARK UNBOUND:                -0.365
REMARK  Name = 
REMARK  4 active torsions:
REMARK  status: ('A' for Active; 'I' for Inactive)
REMARK    1  A    between atoms: C_2  and  C_4
REMARK    2  A    between atoms: C_7  and  C_8
REMARK    3  A    between atoms: C_8  and  C_9
REMARK    4  A    between atoms: C_9  and  C_10
REMARK                            x       y       z     vdW  Elec       q    Type
REMARK                         _______ _______ _______ _____ _____    ______ ____
ROOT
ATOM      1  C   UNL     1      44.337   4.196  11.584  0.00  0.00    +0.000 A 
ATOM      2  C   UNL     1      43.989   4.710  12.810  0.00  0.00    +0.000 A 
ATOM      3  N   UNL     1      44.388   5.920  13.246  0.00  0.00    +0.000 NA
ATOM      4  C   UNL     1      45.226   6.609  12.450  0.00  0.00    +0.000 A 
ATOM      5  N   UNL     1      45.620   6.191  11.228  0.00  0.00    +0.000 NA
ATOM      6  C   UNL     1      45.167   4.984  10.823  0.00  0.00    +0.000 A 
ENDROOT
BRANCH   1   8
ATOM      7  N   UNL     1      44.545   2.348  10.027  0.00  0.00    +0.000 N 
ATOM      8  C   UNL     1      43.890   2.885  11.101  0.00  0.00    +0.000 C 
ATOM      9  O   UNL     1      42.983   2.283  11.657  0.00  0.00    +0.000 OA
ATOM     10  H   UNL     1      44.278   1.406   9.765  0.00  0.00    +0.000 HD
ATOM     11  H   UNL     1      45.441   2.679   9.697  0.00  0.00    +0.000 HD
ENDBRANCH   1   8
BRANCH   4  12
ATOM     12  C   UNL     1      45.654   7.998  12.853  0.00  0.00    +0.000 C 
BRANCH  12  13
ATOM     13  C   UNL     1      47.137   8.288  13.107  0.00  0.00    +0.000 C 
ATOM     14  C   UNL     1      48.072   7.186  13.585  0.00  0.00    +0.000 C 
ATOM     15  C   UNL     1      47.747   8.329  14.503  0.00  0.00    +0.000 C 
BRANCH  13  16
ATOM     16  C   UNL     1      47.645   9.321  12.106  0.00  0.00    +0.000 A 
ATOM     17  C   UNL     1      46.887  10.459  11.781  0.00  0.00    +0.000 A 
ATOM     18  C   UNL     1      47.437  11.514  11.049  0.00  0.00    +0.000 A 
ATOM     19  C   UNL     1      48.762  11.446  10.626  0.00  0.00    +0.000 A 
ATOM     20  C   UNL     1      49.507  10.308  10.900  0.00  0.00    +0.000 A 
ATOM     21  F   UNL     1      50.788  10.248  10.512  0.00  0.00    +0.000 F 
ATOM     22  C   UNL     1      48.961   9.251  11.617  0.00  0.00    +0.000 A 
ENDBRANCH  13  16
ENDBRANCH  12  13
ENDBRANCH   4  12
TORSDOF 4
ENDMDL
