MODEL 1
REMARK VINA RESULT:    -8.853      0.000      0.000
REMARK INTER + INTRA:         -12.021
REMARK INTER:                 -11.958
REMARK INTRA:                  -0.063
REMARK UNBOUND:                -0.063
REMARK  Name = 
REMARK  7 active torsions:
REMARK  status: ('A' for Active; 'I' for Inactive)
REMARK    1  A    between atoms: C_1  and  C_2
REMARK    2  A    between atoms: C_2  and  N_3
REMARK    3  A    between atoms: C_2  and  C_16
REMARK    4  A    between atoms: C_4  and  C_6
REMARK    5  A    between atoms: C_19  and  O_20
REMARK    6  A    between atoms: O_20  and  C_21
REMARK    7  A    between atoms: C_21  and  C_22
REMARK                            x       y       z     vdW  Elec       q    Type
REMARK                         _______ _______ _______ _____ _____    ______ ____
ROOT
ATOM      1  C   UNL     1      47.668   8.270  12.035  0.00  0.00    +0.000 C 
ATOM      2  C   UNL     1      46.601   7.569  12.884  0.00  0.00    +0.000 C 
ENDROOT
BRANCH   2   3
ATOM      3  C   UNL     1      45.978   6.366  12.200  0.00  0.00    +0.000 A 
ATOM      4  C   UNL     1      45.980   6.282  10.798  0.00  0.00    +0.000 A 
ATOM      5  C   UNL     1      45.515   5.132  10.151  0.00  0.00    +0.000 A 
ATOM      6  C   UNL     1      45.046   4.051  10.895  0.00  0.00    +0.000 A 
ATOM      7  C   UNL     1      44.946   4.168  12.280  0.00  0.00    +0.000 A 
ATOM      8  C   UNL     1      45.408   5.314  12.927  0.00  0.00    +0.000 A 
BRANCH   6   9
ATOM      9  O   UNL     1      44.723   2.926  10.185  0.00  0.00    +0.000 OA
BRANCH   9  10
ATOM     10  C   UNL     1      44.605   3.130   8.772  0.00  0.00    +0.000 C 
BRANCH  10  11
ATOM     11  C   UNL     1      45.752   2.473   8.047  0.00  0.00    +0.000 A 
ATOM     12  C   UNL     1      46.580   3.226   7.234  0.00  0.00    +0.000 A 
ATOM     13  C   UNL     1      47.638   2.560   6.659  0.00  0.00    +0.000 A 
ATOM     14  N   UNL     1      47.889   1.255   6.858  0.00  0.00    +0.000 NA
ATOM     15  C   UNL     1      47.030   0.615   7.666  0.00  0.00    +0.000 A 
ATOM     16  N   UNL     1      45.970   1.159   8.283  0.00  0.00    +0.000 NA
ENDBRANCH  10  11
ENDBRANCH   9  10
ENDBRANCH   6   9
ENDBRANCH   2   3
BRANCH   2  17
ATOM     17  N   UNL     1      47.138   7.202  14.180  0.00  0.00    +0.000 N 
ATOM     18  C   UNL     1      48.376   6.618  14.285  0.00  0.00    +0.000 C 
ATOM     19  O   UNL     1      49.098   6.448  13.306  0.00  0.00    +0.000 OA
ATOM     20  H   UNL     1      46.496   7.168  14.967  0.00  0.00    +0.000 HD
BRANCH  18  21
ATOM     21  C   UNL     1      48.834   6.248  15.626  0.00  0.00    +0.000 A 
ATOM     22  C   UNL     1      49.818   7.014  16.237  0.00  0.00    +0.000 A 
ATOM     23  S   UNL     1      50.274   6.445  17.776  0.00  0.00    +0.000 S 
ATOM     24  C   UNL     1      49.195   5.130  17.665  0.00  0.00    +0.000 A 
ATOM     25  N   UNL     1      49.130   4.204  18.658  0.00  0.00    +0.000 NA
ATOM     26  C   UNL     1      48.303   3.240  18.427  0.00  0.00    +0.000 A 
ATOM     27  N   UNL     1      47.522   3.131  17.304  0.00  0.00    +0.000 N 
ATOM     28  C   UNL     1      47.520   4.072  16.299  0.00  0.00    +0.000 A 
ATOM     29  O   UNL     1      46.752   3.993  15.346  0.00  0.00    +0.000 OA
ATOM     30  C   UNL     1      48.469   5.151  16.487  0.00  0.00    +0.000 A 
ATOM     31  H   UNL     1      46.875   2.364  17.202  0.00  0.00    +0.000 HD
ENDBRANCH  18  21
ENDBRANCH   2  17
TORSDOF 6
ENDMDL
MODEL 2
REMARK VINA RESULT:    -8.105      1.771      2.104
REMARK INTER + INTRA:         -11.011
REMARK INTER:                 -10.072
REMARK INTRA:                  -0.939
REMARK UNBOUND:                -0.063
REMARK  Name = 
REMARK  7 active torsions:
REMARK  status: ('A' for Active; 'I' for Inactive)
REMARK    1  A    between atoms: C_1  and  C_2
REMARK    2  A    between atoms: C_2  and  N_3
REMARK    3  A    between atoms: C_2  and  C_16
REMARK    4  A    between atoms: C_4  and  C_6
REMARK    5  A    between atoms: C_19  and  O_20
REMARK    6  A    between atoms: O_20  and  C_21
REMARK    7  A    between atoms: C_21  and  C_22
REMARK                            x       y       z     vdW  Elec       q    Type
REMARK                         _______ _______ _______ _____ _____    ______ ____
ROOT
ATOM      1  C   UNL     1      49.296   7.030  12.724  0.00  0.00    +0.000 C 
ATOM      2  C   UNL     1      47.900   7.263  13.314  0.00  0.00    +0.000 C 
ENDROOT
BRANCH   2   3
ATOM      3  C   UNL     1      46.839   6.342  12.737  0.00  0.00    +0.000 A 
ATOM      4  C   UNL     1      46.037   6.783  11.672  0.00  0.00    +0.000 A 
ATOM      5  C   UNL     1      45.132   5.915  11.051  0.00  0.00    +0.000 A 
ATOM      6  C   UNL     1      45.020   4.595  11.484  0.00  0.00    +0.000 A 
ATOM      7  C   UNL     1      45.737   4.181  12.605  0.00  0.00    +0.000 A 
ATOM      8  C   UNL     1      46.637   5.046  13.226  0.00  0.00    +0.000 A 
BRANCH   6   9
ATOM      9  O   UNL     1      44.199   3.786  10.744  0.00  0.00    +0.000 OA
BRANCH   9  10
ATOM     10  C   UNL     1      44.166   4.095   9.346  0.00  0.00    +0.000 C 
BRANCH  10  11
ATOM     11  C   UNL     1      45.264   3.360   8.618  0.00  0.00    +0.000 A 
ATOM     12  C   UNL     1      45.414   1.995   8.789  0.00  0.00    +0.000 A 
ATOM     13  C   UNL     1      46.400   1.393   8.041  0.00  0.00    +0.000 A 
ATOM     14  N   UNL     1      47.186   2.059   7.177  0.00  0.00    +0.000 NA
ATOM     15  C   UNL     1      46.957   3.377   7.082  0.00  0.00    +0.000 A 
ATOM     16  N   UNL     1      46.026   4.069   7.755  0.00  0.00    +0.000 NA
ENDBRANCH  10  11
ENDBRANCH   9  10
ENDBRANCH   6   9
ENDBRANCH   2   3
BRANCH   2  17
ATOM     17  N   UNL     1      47.931   7.166  14.760  0.00  0.00    +0.000 N 
ATOM     18  C   UNL     1      48.551   8.132  15.513  0.00  0.00    +0.000 C 
ATOM     19  O   UNL     1      49.039   9.138  15.003  0.00  0.00    +0.000 OA
ATOM     20  H   UNL     1      47.697   6.271  15.181  0.00  0.00    +0.000 HD
BRANCH  18  21
ATOM     21  C   UNL     1      48.567   7.947  16.966  0.00  0.00    +0.000 A 
ATOM     22  C   UNL     1      48.330   9.042  17.787  0.00  0.00    +0.000 A 
ATOM     23  S   UNL     1      48.413   8.683  19.450  0.00  0.00    +0.000 S 
ATOM     24  C   UNL     1      48.805   7.056  19.130  0.00  0.00    +0.000 A 
ATOM     25  N   UNL     1      49.063   6.194  20.150  0.00  0.00    +0.000 NA
ATOM     26  C   UNL     1      49.388   5.005  19.767  0.00  0.00    +0.000 A 
ATOM     27  N   UNL     1      49.456   4.595  18.458  0.00  0.00    +0.000 N 
ATOM     28  C   UNL     1      49.153   5.421  17.399  0.00  0.00    +0.000 A 
ATOM     29  O   UNL     1      49.142   5.006  16.244  0.00  0.00    +0.000 OA
ATOM     30  C   UNL     1      48.830   6.783  17.773  0.00  0.00    +0.000 A 
ATOM     31  H   UNL     1      49.689   3.641  18.231  0.00  0.00    +0.000 HD
ENDBRANCH  18  21
ENDBRANCH   2  17
TORSDOF 6
ENDMDL
MODEL 3
REMARK VINA RESULT:    -7.700      3.520      7.418
REMARK INTER + INTRA:         -10.463
REMARK INTER:                  -9.292
REMARK INTRA:                  -1.171
REMARK UNBOUND:                -0.063
REMARK  Name = 
REMARK  7 active torsions:
REMARK  status: ('A' for Active; 'I' for Inactive)
REMARK    1  A    between atoms: C_1  and  C_2
REMARK    2  A    between atoms: C_2  and  N_3
REMARK    3  A    between atoms: C_2  and  C_16
REMARK    4  A    between atoms: C_4  and  C_6
REMARK    5  A    between atoms: C_19  and  O_20
REMARK    6  A    between atoms: O_20  and  C_21
REMARK    7  A    between atoms: C_21  and  C_22
REMARK                            x       y       z     vdW  Elec       q    Type
REMARK                         _______ _______ _______ _____ _____    ______ ____
ROOT
ATOM      1  C   UNL     1      48.958  10.097  14.595  0.00  0.00    +0.000 C 
ATOM      2  C   UNL     1      49.028   8.573  14.440  0.00  0.00    +0.000 C 
ENDROOT
BRANCH   2   3
ATOM      3  C   UNL     1      49.388   7.850  15.726  0.00  0.00    +0.000 A 
ATOM      4  C   UNL     1      48.506   7.890  16.819  0.00  0.00    +0.000 A 
ATOM      5  C   UNL     1      48.762   7.140  17.971  0.00  0.00    +0.000 A 
ATOM      6  C   UNL     1      49.899   6.337  18.045  0.00  0.00    +0.000 A 
ATOM      7  C   UNL     1      50.828   6.372  17.007  0.00  0.00    +0.000 A 
ATOM      8  C   UNL     1      50.575   7.121  15.859  0.00  0.00    +0.000 A 
BRANCH   6   9
ATOM      9  O   UNL     1      50.008   5.548  19.159  0.00  0.00    +0.000 OA
BRANCH   9  10
ATOM     10  C   UNL     1      48.994   4.543  19.274  0.00  0.00    +0.000 C 
BRANCH  10  11
ATOM     11  C   UNL     1      49.150   3.510  18.186  0.00  0.00    +0.000 A 
ATOM     12  C   UNL     1      48.089   3.227  17.344  0.00  0.00    +0.000 A 
ATOM     13  C   UNL     1      48.335   2.318  16.341  0.00  0.00    +0.000 A 
ATOM     14  N   UNL     1      49.526   1.723  16.154  0.00  0.00    +0.000 NA
ATOM     15  C   UNL     1      50.489   2.069  17.022  0.00  0.00    +0.000 A 
ATOM     16  N   UNL     1      50.367   2.943  18.032  0.00  0.00    +0.000 NA
ENDBRANCH  10  11
ENDBRANCH   9  10
ENDBRANCH   6   9
ENDBRANCH   2   3
BRANCH   2  17
ATOM     17  N   UNL     1      47.790   8.055  13.891  0.00  0.00    +0.000 N 
ATOM     18  C   UNL     1      47.794   6.948  13.079  0.00  0.00    +0.000 C 
ATOM     19  O   UNL     1      48.822   6.320  12.844  0.00  0.00    +0.000 OA
ATOM     20  H   UNL     1      46.969   8.653  13.925  0.00  0.00    +0.000 HD
BRANCH  18  21
ATOM     21  C   UNL     1      46.506   6.505  12.539  0.00  0.00    +0.000 A 
ATOM     22  C   UNL     1      45.662   7.441  11.957  0.00  0.00    +0.000 A 
ATOM     23  S   UNL     1      44.189   6.788  11.405  0.00  0.00    +0.000 S 
ATOM     24  C   UNL     1      44.614   5.233  11.960  0.00  0.00    +0.000 A 
ATOM     25  N   UNL     1      43.743   4.195  11.840  0.00  0.00    +0.000 NA
ATOM     26  C   UNL     1      44.174   3.085  12.338  0.00  0.00    +0.000 A 
ATOM     27  N   UNL     1      45.403   2.914  12.924  0.00  0.00    +0.000 N 
ATOM     28  C   UNL     1      46.333   3.926  13.019  0.00  0.00    +0.000 A 
ATOM     29  O   UNL     1      47.456   3.726  13.473  0.00  0.00    +0.000 OA
ATOM     30  C   UNL     1      45.879   5.207  12.519  0.00  0.00    +0.000 A 
ATOM     31  H   UNL     1      45.687   2.010  13.266  0.00  0.00    +0.000 HD
ENDBRANCH  18  21
ENDBRANCH   2  17
TORSDOF 6
ENDMDL
MODEL 4
REMARK VINA RESULT:    -7.582      1.677      1.996
REMARK INTER + INTRA:         -10.305
REMARK INTER:                  -9.283
REMARK INTRA:                  -1.022
REMARK UNBOUND:                -0.063
REMARK  Name = 
REMARK  7 active torsions:
REMARK  status: ('A' for Active; 'I' for Inactive)
REMARK    1  A    between atoms: C_1  and  C_2
REMARK    2  A    between atoms: C_2  and  N_3
REMARK    3  A    between atoms: C_2  and  C_16
REMARK    4  A    between atoms: C_4  and  C_6
REMARK    5  A    between atoms: C_19  and  O_20
REMARK    6  A    between atoms: O_20  and  C_21
REMARK    7  A    between atoms: C_21  and  C_22
REMARK                            x       y       z     vdW  Elec       q    Type
REMARK                         _______ _______ _______ _____ _____    ______ ____
ROOT
ATOM      1  C   UNL     1      47.946   8.552  13.798  0.00  0.00    +0.000 C 
ATOM      2  C   UNL     1      47.404   7.194  14.257  0.00  0.00    +0.000 C 
ENDROOT
BRANCH   2   3
ATOM      3  C   UNL     1      46.733   6.404  13.148  0.00  0.00    +0.000 A 
ATOM      4  C   UNL     1      46.056   5.211  13.452  0.00  0.00    +0.000 A 
ATOM      5  C   UNL     1      45.335   4.527  12.467  0.00  0.00    +0.000 A 
ATOM      6  C   UNL     1      45.279   5.027  11.168  0.00  0.00    +0.000 A 
ATOM      7  C   UNL     1      46.031   6.152  10.836  0.00  0.00    +0.000 A 
ATOM      8  C   UNL     1      46.751   6.834  11.816  0.00  0.00    +0.000 A 
BRANCH   6   9
ATOM      9  O   UNL     1      44.456   4.359  10.300  0.00  0.00    +0.000 OA
BRANCH   9  10
ATOM     10  C   UNL     1      44.740   2.961  10.173  0.00  0.00    +0.000 C 
BRANCH  10  11
ATOM     11  C   UNL     1      45.476   2.688   8.885  0.00  0.00    +0.000 A 
ATOM     12  C   UNL     1      45.659   3.705   7.964  0.00  0.00    +0.000 A 
ATOM     13  C   UNL     1      46.394   3.386   6.845  0.00  0.00    +0.000 A 
ATOM     14  N   UNL     1      46.925   2.170   6.628  0.00  0.00    +0.000 NA
ATOM     15  C   UNL     1      46.693   1.257   7.582  0.00  0.00    +0.000 A 
ATOM     16  N   UNL     1      45.998   1.453   8.713  0.00  0.00    +0.000 NA
ENDBRANCH  10  11
ENDBRANCH   9  10
ENDBRANCH   6   9
ENDBRANCH   2   3
BRANCH   2  17
ATOM     17  N   UNL     1      48.449   6.409  14.885  0.00  0.00    +0.000 N 
ATOM     18  C   UNL     1      48.822   6.652  16.184  0.00  0.00    +0.000 C 
ATOM     19  O   UNL     1      48.246   7.485  16.879  0.00  0.00    +0.000 OA
ATOM     20  H   UNL     1      49.048   5.850  14.285  0.00  0.00    +0.000 HD
BRANCH  18  21
ATOM     21  C   UNL     1      49.907   5.837  16.737  0.00  0.00    +0.000 A 
ATOM     22  C   UNL     1      51.109   6.449  17.064  0.00  0.00    +0.000 A 
ATOM     23  S   UNL     1      52.286   5.373  17.662  0.00  0.00    +0.000 S 
ATOM     24  C   UNL     1      51.239   4.042  17.470  0.00  0.00    +0.000 A 
ATOM     25  N   UNL     1      51.663   2.783  17.759  0.00  0.00    +0.000 NA
ATOM     26  C   UNL     1      50.785   1.865  17.529  0.00  0.00    +0.000 A 
ATOM     27  N   UNL     1      49.516   2.095  17.057  0.00  0.00    +0.000 N 
ATOM     28  C   UNL     1      49.032   3.358  16.801  0.00  0.00    +0.000 A 
ATOM     29  O   UNL     1      47.867   3.542  16.458  0.00  0.00    +0.000 OA
ATOM     30  C   UNL     1      49.996   4.422  16.996  0.00  0.00    +0.000 A 
ATOM     31  H   UNL     1      48.871   1.332  16.928  0.00  0.00    +0.000 HD
ENDBRANCH  18  21
ENDBRANCH   2  17
TORSDOF 6
ENDMDL
MODEL 5
REMARK VINA RESULT:    -7.430      2.631      3.856
REMARK INTER + INTRA:         -10.099
REMARK INTER:                  -9.067
REMARK INTRA:                  -1.032
REMARK UNBOUND:                -0.063
REMARK  Name = 
REMARK  7 active torsions:
REMARK  status: ('A' for Active; 'I' for Inactive)
REMARK    1  A    between atoms: C_1  and  C_2
REMARK    2  A    between atoms: C_2  and  N_3
REMARK    3  A    between atoms: C_2  and  C_16
REMARK    4  A    between atoms: C_4  and  C_6
REMARK    5  A    between atoms: C_19  and  O_20
REMARK    6  A    between atoms: O_20  and  C_21
REMARK    7  A    between atoms: C_21  and  C_22
REMARK                            x       y       z     vdW  Elec       q    Type
REMARK                         _______ _______ _______ _____ _____    ______ ____
ROOT
ATOM      1  C   UNL     1      49.771   9.050  15.921  0.00  0.00    +0.000 C 
ATOM      2  C   UNL     1      49.193   7.632  15.864  0.00  0.00    +0.000 C 
ENDROOT
BRANCH   2   3
ATOM      3  C   UNL     1      48.630   7.262  14.504  0.00  0.00    +0.000 A 
ATOM      4  C   UNL     1      47.802   6.135  14.374  0.00  0.00    +0.000 A 
ATOM      5  C   UNL     1      47.180   5.840  13.156  0.00  0.00    +0.000 A 
ATOM      6  C   UNL     1      47.374   6.670  12.054  0.00  0.00    +0.000 A 
ATOM      7  C   UNL     1      48.274   7.731  12.146  0.00  0.00    +0.000 A 
ATOM      8  C   UNL     1      48.895   8.024  13.360  0.00  0.00    +0.000 A 
BRANCH   6   9
ATOM      9  O   UNL     1      46.635   6.374  10.939  0.00  0.00    +0.000 OA
BRANCH   9  10
ATOM     10  C   UNL     1      45.315   5.892  11.215  0.00  0.00    +0.000 C 
BRANCH  10  11
ATOM     11  C   UNL     1      44.997   4.699  10.349  0.00  0.00    +0.000 A 
ATOM     12  C   UNL     1      45.360   4.696   9.014  0.00  0.00    +0.000 A 
ATOM     13  C   UNL     1      45.088   3.544   8.312  0.00  0.00    +0.000 A 
ATOM     14  N   UNL     1      44.511   2.461   8.860  0.00  0.00    +0.000 NA
ATOM     15  C   UNL     1      44.202   2.563  10.161  0.00  0.00    +0.000 A 
ATOM     16  N   UNL     1      44.423   3.629  10.945  0.00  0.00    +0.000 NA
ENDBRANCH  10  11
ENDBRANCH   9  10
ENDBRANCH   6   9
ENDBRANCH   2   3
BRANCH   2  17
ATOM     17  N   UNL     1      50.179   6.658  16.292  0.00  0.00    +0.000 N 
ATOM     18  C   UNL     1      50.025   5.980  17.476  0.00  0.00    +0.000 C 
ATOM     19  O   UNL     1      49.026   6.119  18.177  0.00  0.00    +0.000 OA
ATOM     20  H   UNL     1      51.081   6.661  15.826  0.00  0.00    +0.000 HD
BRANCH  18  21
ATOM     21  C   UNL     1      51.079   5.035  17.853  0.00  0.00    +0.000 A 
ATOM     22  C   UNL     1      52.232   5.519  18.457  0.00  0.00    +0.000 A 
ATOM     23  S   UNL     1      53.381   4.311  18.806  0.00  0.00    +0.000 S 
ATOM     24  C   UNL     1      52.390   3.102  18.128  0.00  0.00    +0.000 A 
ATOM     25  N   UNL     1      52.821   1.813  18.061  0.00  0.00    +0.000 NA
ATOM     26  C   UNL     1      51.990   1.009  17.487  0.00  0.00    +0.000 A 
ATOM     27  N   UNL     1      50.762   1.373  16.994  0.00  0.00    +0.000 N 
ATOM     28  C   UNL     1      50.268   2.655  17.087  0.00  0.00    +0.000 A 
ATOM     29  O   UNL     1      49.133   2.935  16.712  0.00  0.00    +0.000 OA
ATOM     30  C   UNL     1      51.183   3.608  17.680  0.00  0.00    +0.000 A 
ATOM     31  H   UNL     1      50.151   0.685  16.582  0.00  0.00    +0.000 HD
ENDBRANCH  18  21
ENDBRANCH   2  17
TORSDOF 6
ENDMDL
MODEL 6
REMARK VINA RESULT:    -7.415      3.670      8.148
REMARK INTER + INTRA:         -10.078
REMARK INTER:                  -9.074
REMARK INTRA:                  -1.005
REMARK UNBOUND:                -0.063
REMARK  Name = 
REMARK  7 active torsions:
REMARK  status: ('A' for Active; 'I' for Inactive)
REMARK    1  A    between atoms: C_1  and  C_2
REMARK    2  A    between atoms: C_2  and  N_3
REMARK    3  A    between atoms: C_2  and  C_16
REMARK    4  A    between atoms: C_4  and  C_6
REMARK    5  A    between atoms: C_19  and  O_20
REMARK    6  A    between atoms: O_20  and  C_21
REMARK    7  A    between atoms: C_21  and  C_22
REMARK                            x       y       z     vdW  Elec       q    Type
REMARK                         _______ _______ _______ _____ _____    ______ ____
ROOT
ATOM      1  C   UNL     1      48.556   9.145  15.632  0.00  0.00    +0.000 C 
ATOM      2  C   UNL     1      48.749   7.772  14.978  0.00  0.00    +0.000 C 
ENDROOT
BRANCH   2   3
ATOM      3  C   UNL     1      49.256   6.710  15.938  0.00  0.00    +0.000 A 
ATOM      4  C   UNL     1      48.376   5.724  16.415  0.00  0.00    +0.000 A 
ATOM      5  C   UNL     1      48.845   4.671  17.208  0.00  0.00    +0.000 A 
ATOM      6  C   UNL     1      50.198   4.588  17.531  0.00  0.00    +0.000 A 
ATOM      7  C   UNL     1      51.057   5.617  17.148  0.00  0.00    +0.000 A 
ATOM      8  C   UNL     1      50.590   6.668  16.359  0.00  0.00    +0.000 A 
BRANCH   6   9
ATOM      9  O   UNL     1      50.587   3.464  18.210  0.00  0.00    +0.000 OA
BRANCH   9  10
ATOM     10  C   UNL     1      51.031   2.390  17.372  0.00  0.00    +0.000 C 
BRANCH  10  11
ATOM     11  C   UNL     1      52.365   1.869  17.845  0.00  0.00    +0.000 A 
ATOM     12  C   UNL     1      53.212   2.689  18.569  0.00  0.00    +0.000 A 
ATOM     13  C   UNL     1      54.380   2.116  19.014  0.00  0.00    +0.000 A 
ATOM     14  N   UNL     1      54.711   0.833  18.785  0.00  0.00    +0.000 NA
ATOM     15  C   UNL     1      53.821   0.122  18.077  0.00  0.00    +0.000 A 
ATOM     16  N   UNL     1      52.652   0.571  17.597  0.00  0.00    +0.000 NA
ENDBRANCH  10  11
ENDBRANCH   9  10
ENDBRANCH   6   9
ENDBRANCH   2   3
BRANCH   2  17
ATOM     17  N   UNL     1      47.527   7.336  14.330  0.00  0.00    +0.000 N 
ATOM     18  C   UNL     1      47.574   6.614  13.164  0.00  0.00    +0.000 C 
ATOM     19  O   UNL     1      48.637   6.255  12.665  0.00  0.00    +0.000 OA
ATOM     20  H   UNL     1      46.656   7.767  14.623  0.00  0.00    +0.000 HD
BRANCH  18  21
ATOM     21  C   UNL     1      46.296   6.236  12.554  0.00  0.00    +0.000 A 
ATOM     22  C   UNL     1      45.510   7.222  11.973  0.00  0.00    +0.000 A 
ATOM     23  S   UNL     1      44.040   6.642  11.337  0.00  0.00    +0.000 S 
ATOM     24  C   UNL     1      44.388   5.054  11.851  0.00  0.00    +0.000 A 
ATOM     25  N   UNL     1      43.488   4.053  11.656  0.00  0.00    +0.000 NA
ATOM     26  C   UNL     1      43.859   2.911  12.131  0.00  0.00    +0.000 A 
ATOM     27  N   UNL     1      45.055   2.676  12.760  0.00  0.00    +0.000 N 
ATOM     28  C   UNL     1      46.014   3.650  12.932  0.00  0.00    +0.000 A 
ATOM     29  O   UNL     1      47.109   3.394  13.425  0.00  0.00    +0.000 OA
ATOM     30  C   UNL     1      45.626   4.964  12.461  0.00  0.00    +0.000 A 
ATOM     31  H   UNL     1      45.293   1.750  13.081  0.00  0.00    +0.000 HD
ENDBRANCH  18  21
ENDBRANCH   2  17
TORSDOF 6
ENDMDL
MODEL 7
REMARK VINA RESULT:    -7.226      1.846      2.743
REMARK INTER + INTRA:          -9.823
REMARK INTER:                  -9.617
REMARK INTRA:                  -0.206
REMARK UNBOUND:                -0.063
REMARK  Name = 
REMARK  7 active torsions:
REMARK  status: ('A' for Active; 'I' for Inactive)
REMARK    1  A    between atoms: C_1  and  C_2
REMARK    2  A    between atoms: C_2  and  N_3
REMARK    3  A    between atoms: C_2  and  C_16
REMARK    4  A    between atoms: C_4  and  C_6
REMARK    5  A    between atoms: C_19  and  O_20
REMARK    6  A    between atoms: O_20  and  C_21
REMARK    7  A    between atoms: C_21  and  C_22
REMARK                            x       y       z     vdW  Elec       q    Type
REMARK                         _______ _______ _______ _____ _____    ______ ____
ROOT
ATOM      1  C   UNL     1      48.035   7.997  12.767  0.00  0.00    +0.000 C 
ATOM      2  C   UNL     1      47.105   6.944  13.380  0.00  0.00    +0.000 C 
ENDROOT
BRANCH   2   3
ATOM      3  C   UNL     1      46.454   6.039  12.350  0.00  0.00    +0.000 A 
ATOM      4  C   UNL     1      45.879   4.823  12.753  0.00  0.00    +0.000 A 
ATOM      5  C   UNL     1      45.174   4.028  11.843  0.00  0.00    +0.000 A 
ATOM      6  C   UNL     1      45.031   4.440  10.520  0.00  0.00    +0.000 A 
ATOM      7  C   UNL     1      45.684   5.593  10.088  0.00  0.00    +0.000 A 
ATOM      8  C   UNL     1      46.389   6.385  10.995  0.00  0.00    +0.000 A 
BRANCH   6   9
ATOM      9  O   UNL     1      44.227   3.662   9.730  0.00  0.00    +0.000 OA
BRANCH   9  10
ATOM     10  C   UNL     1      44.738   2.347   9.480  0.00  0.00    +0.000 C 
BRANCH  10  11
ATOM     11  C   UNL     1      45.677   2.361   8.300  0.00  0.00    +0.000 A 
ATOM     12  C   UNL     1      46.473   1.260   8.036  0.00  0.00    +0.000 A 
ATOM     13  C   UNL     1      47.255   1.333   6.905  0.00  0.00    +0.000 A 
ATOM     14  N   UNL     1      47.265   2.392   6.077  0.00  0.00    +0.000 NA
ATOM     15  C   UNL     1      46.455   3.405   6.420  0.00  0.00    +0.000 A 
ATOM     16  N   UNL     1      45.649   3.445   7.491  0.00  0.00    +0.000 NA
ENDBRANCH  10  11
ENDBRANCH   9  10
ENDBRANCH   6   9
ENDBRANCH   2   3
BRANCH   2  17
ATOM     17  N   UNL     1      47.806   6.160  14.379  0.00  0.00    +0.000 N 
ATOM     18  C   UNL     1      48.444   6.775  15.428  0.00  0.00    +0.000 C 
ATOM     19  O   UNL     1      48.391   7.990  15.598  0.00  0.00    +0.000 OA
ATOM     20  H   UNL     1      48.010   5.189  14.163  0.00  0.00    +0.000 HD
BRANCH  18  21
ATOM     21  C   UNL     1      49.155   5.916  16.379  0.00  0.00    +0.000 A 
ATOM     22  C   UNL     1      48.433   4.994  17.124  0.00  0.00    +0.000 A 
ATOM     23  S   UNL     1      49.385   4.092  18.210  0.00  0.00    +0.000 S 
ATOM     24  C   UNL     1      50.795   4.931  17.747  0.00  0.00    +0.000 A 
ATOM     25  N   UNL     1      51.985   4.669  18.353  0.00  0.00    +0.000 NA
ATOM     26  C   UNL     1      52.961   5.404  17.937  0.00  0.00    +0.000 A 
ATOM     27  N   UNL     1      52.860   6.360  16.958  0.00  0.00    +0.000 N 
ATOM     28  C   UNL     1      51.686   6.620  16.285  0.00  0.00    +0.000 A 
ATOM     29  O   UNL     1      51.642   7.422  15.357  0.00  0.00    +0.000 OA
ATOM     30  C   UNL     1      50.547   5.856  16.749  0.00  0.00    +0.000 A 
ATOM     31  H   UNL     1      53.672   6.879  16.661  0.00  0.00    +0.000 HD
ENDBRANCH  18  21
ENDBRANCH   2  17
TORSDOF 6
ENDMDL
MODEL 8
REMARK VINA RESULT:    -7.164      4.437      7.416
REMARK INTER + INTRA:          -9.739
REMARK INTER:                  -8.694
REMARK INTRA:                  -1.045
REMARK UNBOUND:                -0.063
REMARK  Name = 
REMARK  7 active torsions:
REMARK  status: ('A' for Active; 'I' for Inactive)
REMARK    1  A    between atoms: C_1  and  C_2
REMARK    2  A    between atoms: C_2  and  N_3
REMARK    3  A    between atoms: C_2  and  C_16
REMARK    4  A    between atoms: C_4  and  C_6
REMARK    5  A    between atoms: C_19  and  O_20
REMARK    6  A    between atoms: O_20  and  C_21
REMARK    7  A    between atoms: C_21  and  C_22
REMARK                            x       y       z     vdW  Elec       q    Type
REMARK                         _______ _______ _______ _____ _____    ______ ____
ROOT
ATOM      1  C   UNL     1      46.883   8.719  13.962  0.00  0.00    +0.000 C 
ATOM      2  C   UNL     1      46.961   8.382  12.469  0.00  0.00    +0.000 C 
ENDROOT
BRANCH   2   3
ATOM      3  C   UNL     1      48.357   8.516  11.890  0.00  0.00    +0.000 A 
ATOM      4  C   UNL     1      48.824   9.776  11.479  0.00  0.00    +0.000 A 
ATOM      5  C   UNL     1      50.145   9.944  11.050  0.00  0.00    +0.000 A 
ATOM      6  C   UNL     1      51.017   8.857  11.029  0.00  0.00    +0.000 A 
ATOM      7  C   UNL     1      50.533   7.586  11.337  0.00  0.00    +0.000 A 
ATOM      8  C   UNL     1      49.216   7.418  11.763  0.00  0.00    +0.000 A 
BRANCH   6   9
ATOM      9  O   UNL     1      52.319   9.135  10.709  0.00  0.00    +0.000 OA
BRANCH   9  10
ATOM     10  C   UNL     1      53.122   7.980  10.439  0.00  0.00    +0.000 C 
BRANCH  10  11
ATOM     11  C   UNL     1      53.128   7.675   8.962  0.00  0.00    +0.000 A 
ATOM     12  C   UNL     1      53.110   6.362   8.526  0.00  0.00    +0.000 A 
ATOM     13  C   UNL     1      53.055   6.174   7.164  0.00  0.00    +0.000 A 
ATOM     14  N   UNL     1      53.011   7.183   6.277  0.00  0.00    +0.000 NA
ATOM     15  C   UNL     1      53.028   8.418   6.802  0.00  0.00    +0.000 A 
ATOM     16  N   UNL     1      53.077   8.722   8.107  0.00  0.00    +0.000 NA
ENDBRANCH  10  11
ENDBRANCH   9  10
ENDBRANCH   6   9
ENDBRANCH   2   3
BRANCH   2  17
ATOM     17  N   UNL     1      46.425   7.058  12.213  0.00  0.00    +0.000 N 
ATOM     18  C   UNL     1      45.192   6.903  11.630  0.00  0.00    +0.000 C 
ATOM     19  O   UNL     1      44.532   7.864  11.244  0.00  0.00    +0.000 OA
ATOM     20  H   UNL     1      46.866   6.270  12.679  0.00  0.00    +0.000 HD
BRANCH  18  21
ATOM     21  C   UNL     1      44.708   5.534  11.433  0.00  0.00    +0.000 A 
ATOM     22  C   UNL     1      43.937   4.943  12.424  0.00  0.00    +0.000 A 
ATOM     23  S   UNL     1      43.476   3.342  12.072  0.00  0.00    +0.000 S 
ATOM     24  C   UNL     1      44.325   3.370  10.594  0.00  0.00    +0.000 A 
ATOM     25  N   UNL     1      44.377   2.263   9.807  0.00  0.00    +0.000 NA
ATOM     26  C   UNL     1      45.087   2.408   8.739  0.00  0.00    +0.000 A 
ATOM     27  N   UNL     1      45.729   3.566   8.377  0.00  0.00    +0.000 N 
ATOM     28  C   UNL     1      45.660   4.723   9.120  0.00  0.00    +0.000 A 
ATOM     29  O   UNL     1      46.175   5.767   8.732  0.00  0.00    +0.000 OA
ATOM     30  C   UNL     1      44.915   4.599  10.356  0.00  0.00    +0.000 A 
ATOM     31  H   UNL     1      46.244   3.618   7.512  0.00  0.00    +0.000 HD
ENDBRANCH  18  21
ENDBRANCH   2  17
TORSDOF 6
ENDMDL
