MODEL 1
REMARK VINA RESULT:    -7.834      0.000      0.000
REMARK INTER + INTRA:         -12.604
REMARK INTER:                 -11.727
REMARK INTRA:                  -0.876
REMARK UNBOUND:                -0.876
REMARK  Name = 
REMARK  9 active torsions:
REMARK  status: ('A' for Active; 'I' for Inactive)
REMARK    1  A    between atoms: C_2  and  C_21
REMARK    2  A    between atoms: N_3  and  C_4
REMARK    3  A    between atoms: C_4  and  C_5
REMARK    4  A    between atoms: C_8  and  C_9
REMARK    5  A    between atoms: C_9  and  N_10
REMARK    6  A    between atoms: N_10  and  CA_11
REMARK    7  A    between atoms: CA_11  and  C_12
REMARK    8  A    between atoms: CA_11  and  C_14
REMARK    9  A    between atoms: C_12  and  O_13
REMARK                            x       y       z     vdW  Elec       q    Type
REMARK                         _______ _______ _______ _____ _____    ______ ____
ROOT
ATOM      1  C   UNL     1      46.270   7.920  12.928  0.00  0.00    +0.000 A 
ATOM      2  C   UNL     1      45.480   8.565  11.983  0.00  0.00    +0.000 A 
ATOM      3  C   UNL     1      44.441   7.862  11.379  0.00  0.00    +0.000 A 
ATOM      4  C   UNL     1      44.196   6.532  11.736  0.00  0.00    +0.000 A 
ATOM      5  C   UNL     1      45.025   5.977  12.704  0.00  0.00    +0.000 A 
ATOM      6  N   UNL     1      46.049   6.632  13.300  0.00  0.00    +0.000 NA
ENDROOT
BRANCH   1   7
ATOM      7  C   UNL     1      47.381   8.664  13.628  0.00  0.00    +0.000 C 
BRANCH   7  10
ATOM      8  O   UNL     1      49.417   6.757  13.955  0.00  0.00    +0.000 OA
ATOM      9  C   UNL     1      48.801   7.137  14.948  0.00  0.00    +0.000 C 
ATOM     10  N   UNL     1      47.757   8.019  14.867  0.00  0.00    +0.000 N 
ATOM     11  H   UNL     1      47.440   8.494  15.707  0.00  0.00    +0.000 HD
BRANCH   9  12
ATOM     12  C   UNL     1      49.116   6.623  16.286  0.00  0.00    +0.000 A 
ATOM     13  C   UNL     1      49.869   7.391  17.164  0.00  0.00    +0.000 A 
ATOM     14  S   UNL     1      50.165   6.628  18.661  0.00  0.00    +0.000 S 
ATOM     15  C   UNL     1      49.259   5.263  18.203  0.00  0.00    +0.000 A 
ATOM     16  N   UNL     1      49.088   4.218  19.062  0.00  0.00    +0.000 NA
ATOM     17  C   UNL     1      48.350   3.264  18.596  0.00  0.00    +0.000 A 
ATOM     18  N   UNL     1      47.776   3.256  17.353  0.00  0.00    +0.000 N 
ATOM     19  C   UNL     1      47.967   4.259  16.436  0.00  0.00    +0.000 A 
ATOM     20  O   UNL     1      47.523   4.175  15.298  0.00  0.00    +0.000 OA
ATOM     21  C   UNL     1      48.761   5.376  16.920  0.00  0.00    +0.000 A 
ATOM     22  H   UNL     1      47.230   2.469  17.039  0.00  0.00    +0.000 HD
ENDBRANCH   9  12
ENDBRANCH   7  10
ENDBRANCH   1   7
BRANCH   4  23
ATOM     23  C   UNL     1      43.045   5.754  11.156  0.00  0.00    +0.000 C 
BRANCH  23  24
ATOM     24  N   UNL     1      43.427   5.047   9.930  0.00  0.00    +0.000 NA
ATOM     25  H   UNL     1      43.900   5.717   9.318  0.00  0.00    +0.000 HD
BRANCH  24  26
ATOM     26  CA  UNL     1      44.397   3.936  10.169  0.00  0.00    +0.000 C 
BRANCH  26  27
ATOM     27  C   UNL     1      44.899   3.433   8.782  0.00  0.00    +0.000 C 
ATOM     28  C   UNL     1      45.717   2.150   8.830  0.00  0.00    +0.000 C 
ATOM     29  C   UNL     1      46.381   2.128   7.466  0.00  0.00    +0.000 C 
ATOM     30  C   UNL     1      46.538   3.595   7.093  0.00  0.00    +0.000 C 
ATOM     31  N   UNL     1      45.840   4.369   8.130  0.00  0.00    +0.000 NA
ATOM     32  H   UNL     1      45.324   5.134   7.697  0.00  0.00    +0.000 HD
ENDBRANCH  26  27
BRANCH  26  33
ATOM     33  C   UNL     1      43.758   2.779  10.967  0.00  0.00    +0.000 C 
BRANCH  33  34
ATOM     34  O   UNL     1      44.470   2.551  12.180  0.00  0.00    +0.000 OA
ATOM     35  H   UNL     1      43.995   1.819  12.623  0.00  0.00    +0.000 HD
ENDBRANCH  33  34
ENDBRANCH  26  33
ENDBRANCH  24  26
ENDBRANCH  23  24
ENDBRANCH   4  23
TORSDOF 9
ENDMDL
MODEL 2
REMARK VINA RESULT:    -7.785      3.037      4.074
REMARK INTER + INTRA:         -12.530
REMARK INTER:                 -11.418
REMARK INTRA:                  -1.112
REMARK UNBOUND:                -0.876
REMARK  Name = 
REMARK  9 active torsions:
REMARK  status: ('A' for Active; 'I' for Inactive)
REMARK    1  A    between atoms: C_2  and  C_21
REMARK    2  A    between atoms: N_3  and  C_4
REMARK    3  A    between atoms: C_4  and  C_5
REMARK    4  A    between atoms: C_8  and  C_9
REMARK    5  A    between atoms: C_9  and  N_10
REMARK    6  A    between atoms: N_10  and  CA_11
REMARK    7  A    between atoms: CA_11  and  C_12
REMARK    8  A    between atoms: CA_11  and  C_14
REMARK    9  A    between atoms: C_12  and  O_13
REMARK                            x       y       z     vdW  Elec       q    Type
REMARK                         _______ _______ _______ _____ _____    ______ ____
ROOT
ATOM      1  C   UNL     1      48.376   5.848  15.719  0.00  0.00    +0.000 A 
ATOM      2  C   UNL     1      47.667   4.736  16.161  0.00  0.00    +0.000 A 
ATOM      3  C   UNL     1      46.851   4.056  15.260  0.00  0.00    +0.000 A 
ATOM      4  C   UNL     1      46.765   4.485  13.932  0.00  0.00    +0.000 A 
ATOM      5  C   UNL     1      47.527   5.593  13.578  0.00  0.00    +0.000 A 
ATOM      6  N   UNL     1      48.319   6.281  14.432  0.00  0.00    +0.000 NA
ENDROOT
BRANCH   1   7
ATOM      7  C   UNL     1      49.298   6.587  16.659  0.00  0.00    +0.000 C 
BRANCH   7  10
ATOM      8  O   UNL     1      49.761   5.688  19.280  0.00  0.00    +0.000 OA
ATOM      9  C   UNL     1      50.517   5.313  18.387  0.00  0.00    +0.000 C 
ATOM     10  N   UNL     1      50.396   5.752  17.095  0.00  0.00    +0.000 N 
ATOM     11  H   UNL     1      50.867   5.245  16.352  0.00  0.00    +0.000 HD
BRANCH   9  12
ATOM     12  C   UNL     1      51.638   4.408  18.665  0.00  0.00    +0.000 A 
ATOM     13  C   UNL     1      52.673   4.821  19.492  0.00  0.00    +0.000 A 
ATOM     14  S   UNL     1      53.905   3.656  19.682  0.00  0.00    +0.000 S 
ATOM     15  C   UNL     1      53.075   2.543  18.700  0.00  0.00    +0.000 A 
ATOM     16  N   UNL     1      53.585   1.300  18.468  0.00  0.00    +0.000 NA
ATOM     17  C   UNL     1      52.834   0.547  17.733  0.00  0.00    +0.000 A 
ATOM     18  N   UNL     1      51.629   0.924  17.204  0.00  0.00    +0.000 N 
ATOM     19  C   UNL     1      51.103   2.183  17.365  0.00  0.00    +0.000 A 
ATOM     20  O   UNL     1      50.072   2.520  16.797  0.00  0.00    +0.000 OA
ATOM     21  C   UNL     1      51.890   3.060  18.214  0.00  0.00    +0.000 A 
ATOM     22  H   UNL     1      51.101   0.298  16.617  0.00  0.00    +0.000 HD
ENDBRANCH   9  12
ENDBRANCH   7  10
ENDBRANCH   1   7
BRANCH   4  23
ATOM     23  C   UNL     1      45.946   3.742  12.910  0.00  0.00    +0.000 C 
BRANCH  23  24
ATOM     24  N   UNL     1      44.530   3.682  13.286  0.00  0.00    +0.000 NA
ATOM     25  H   UNL     1      44.319   4.516  13.840  0.00  0.00    +0.000 HD
BRANCH  24  26
ATOM     26  CA  UNL     1      43.608   3.709  12.111  0.00  0.00    +0.000 C 
BRANCH  26  27
ATOM     27  C   UNL     1      44.464   3.506  10.825  0.00  0.00    +0.000 C 
ATOM     28  C   UNL     1      44.106   4.431   9.671  0.00  0.00    +0.000 C 
ATOM     29  C   UNL     1      44.782   3.764   8.488  0.00  0.00    +0.000 C 
ATOM     30  C   UNL     1      44.784   2.282   8.835  0.00  0.00    +0.000 C 
ATOM     31  N   UNL     1      44.285   2.172  10.213  0.00  0.00    +0.000 NA
ATOM     32  H   UNL     1      44.833   1.480  10.721  0.00  0.00    +0.000 HD
ENDBRANCH  26  27
BRANCH  26  33
ATOM     33  C   UNL     1      42.819   5.035  12.033  0.00  0.00    +0.000 C 
BRANCH  33  34
ATOM     34  O   UNL     1      42.692   5.623  13.324  0.00  0.00    +0.000 OA
ATOM     35  H   UNL     1      42.153   4.992  13.843  0.00  0.00    +0.000 HD
ENDBRANCH  33  34
ENDBRANCH  26  33
ENDBRANCH  24  26
ENDBRANCH  23  24
ENDBRANCH   4  23
TORSDOF 9
ENDMDL
MODEL 3
REMARK VINA RESULT:    -7.232      3.083      7.855
REMARK INTER + INTRA:         -11.702
REMARK INTER:                 -10.151
REMARK INTRA:                  -1.551
REMARK UNBOUND:                -0.876
REMARK  Name = 
REMARK  9 active torsions:
REMARK  status: ('A' for Active; 'I' for Inactive)
REMARK    1  A    between atoms: C_2  and  C_21
REMARK    2  A    between atoms: N_3  and  C_4
REMARK    3  A    between atoms: C_4  and  C_5
REMARK    4  A    between atoms: C_8  and  C_9
REMARK    5  A    between atoms: C_9  and  N_10
REMARK    6  A    between atoms: N_10  and  CA_11
REMARK    7  A    between atoms: CA_11  and  C_12
REMARK    8  A    between atoms: CA_11  and  C_14
REMARK    9  A    between atoms: C_12  and  O_13
REMARK                            x       y       z     vdW  Elec       q    Type
REMARK                         _______ _______ _______ _____ _____    ______ ____
ROOT
ATOM      1  C   UNL     1      48.478   8.078  13.436  0.00  0.00    +0.000 A 
ATOM      2  C   UNL     1      48.820   6.893  14.080  0.00  0.00    +0.000 A 
ATOM      3  C   UNL     1      48.899   6.880  15.470  0.00  0.00    +0.000 A 
ATOM      4  C   UNL     1      48.623   8.042  16.197  0.00  0.00    +0.000 A 
ATOM      5  C   UNL     1      48.269   9.172  15.469  0.00  0.00    +0.000 A 
ATOM      6  N   UNL     1      48.195   9.218  14.119  0.00  0.00    +0.000 NA
ENDROOT
BRANCH   1   7
ATOM      7  C   UNL     1      48.348   8.118  11.932  0.00  0.00    +0.000 C 
BRANCH   7  10
ATOM      8  O   UNL     1      45.554   7.855  11.810  0.00  0.00    +0.000 OA
ATOM      9  C   UNL     1      46.251   6.951  11.356  0.00  0.00    +0.000 C 
ATOM     10  N   UNL     1      47.618   6.975  11.430  0.00  0.00    +0.000 N 
ATOM     11  H   UNL     1      48.159   6.350  10.839  0.00  0.00    +0.000 HD
BRANCH   9  12
ATOM     12  C   UNL     1      45.653   5.755  10.750  0.00  0.00    +0.000 A 
ATOM     13  C   UNL     1      45.860   5.483   9.405  0.00  0.00    +0.000 A 
ATOM     14  S   UNL     1      45.068   4.072   8.862  0.00  0.00    +0.000 S 
ATOM     15  C   UNL     1      44.458   3.753  10.417  0.00  0.00    +0.000 A 
ATOM     16  N   UNL     1      43.698   2.648  10.656  0.00  0.00    +0.000 NA
ATOM     17  C   UNL     1      43.331   2.512  11.888  0.00  0.00    +0.000 A 
ATOM     18  N   UNL     1      43.646   3.383  12.898  0.00  0.00    +0.000 N 
ATOM     19  C   UNL     1      44.361   4.536  12.693  0.00  0.00    +0.000 A 
ATOM     20  O   UNL     1      44.540   5.343  13.596  0.00  0.00    +0.000 OA
ATOM     21  C   UNL     1      44.831   4.721  11.330  0.00  0.00    +0.000 A 
ATOM     22  H   UNL     1      43.308   3.234  13.835  0.00  0.00    +0.000 HD
ENDBRANCH   9  12
ENDBRANCH   7  10
ENDBRANCH   1   7
BRANCH   4  23
ATOM     23  C   UNL     1      48.633   8.056  17.703  0.00  0.00    +0.000 C 
BRANCH  23  24
ATOM     24  N   UNL     1      47.784   7.001  18.263  0.00  0.00    +0.000 NA
ATOM     25  H   UNL     1      47.508   6.382  17.496  0.00  0.00    +0.000 HD
BRANCH  24  26
ATOM     26  CA  UNL     1      48.491   6.145  19.263  0.00  0.00    +0.000 C 
BRANCH  26  27
ATOM     27  C   UNL     1      48.313   4.658  18.831  0.00  0.00    +0.000 C 
ATOM     28  C   UNL     1      49.340   4.163  17.822  0.00  0.00    +0.000 C 
ATOM     29  C   UNL     1      48.707   2.885  17.304  0.00  0.00    +0.000 C 
ATOM     30  C   UNL     1      47.208   3.128  17.417  0.00  0.00    +0.000 C 
ATOM     31  N   UNL     1      47.041   4.408  18.119  0.00  0.00    +0.000 NA
ATOM     32  H   UNL     1      46.277   4.334  18.789  0.00  0.00    +0.000 HD
ENDBRANCH  26  27
BRANCH  26  33
ATOM     33  C   UNL     1      47.946   6.363  20.692  0.00  0.00    +0.000 C 
BRANCH  33  34
ATOM     34  O   UNL     1      46.850   5.490  20.951  0.00  0.00    +0.000 OA
ATOM     35  H   UNL     1      46.460   5.298  20.075  0.00  0.00    +0.000 HD
ENDBRANCH  33  34
ENDBRANCH  26  33
ENDBRANCH  24  26
ENDBRANCH  23  24
ENDBRANCH   4  23
TORSDOF 9
ENDMDL
MODEL 4
REMARK VINA RESULT:    -7.013      4.685      9.316
REMARK INTER + INTRA:         -11.375
REMARK INTER:                 -10.409
REMARK INTRA:                  -0.966
REMARK UNBOUND:                -0.876
REMARK  Name = 
REMARK  9 active torsions:
REMARK  status: ('A' for Active; 'I' for Inactive)
REMARK    1  A    between atoms: C_2  and  C_21
REMARK    2  A    between atoms: N_3  and  C_4
REMARK    3  A    between atoms: C_4  and  C_5
REMARK    4  A    between atoms: C_8  and  C_9
REMARK    5  A    between atoms: C_9  and  N_10
REMARK    6  A    between atoms: N_10  and  CA_11
REMARK    7  A    between atoms: CA_11  and  C_12
REMARK    8  A    between atoms: CA_11  and  C_14
REMARK    9  A    between atoms: C_12  and  O_13
REMARK                            x       y       z     vdW  Elec       q    Type
REMARK                         _______ _______ _______ _____ _____    ______ ____
ROOT
ATOM      1  C   UNL     1      49.669   4.858  17.242  0.00  0.00    +0.000 A 
ATOM      2  C   UNL     1      51.048   4.818  17.417  0.00  0.00    +0.000 A 
ATOM      3  C   UNL     1      51.686   3.580  17.464  0.00  0.00    +0.000 A 
ATOM      4  C   UNL     1      50.942   2.404  17.322  0.00  0.00    +0.000 A 
ATOM      5  C   UNL     1      49.572   2.545  17.131  0.00  0.00    +0.000 A 
ATOM      6  N   UNL     1      48.923   3.732  17.093  0.00  0.00    +0.000 NA
ENDROOT
BRANCH   1   7
ATOM      7  C   UNL     1      48.951   6.183  17.151  0.00  0.00    +0.000 C 
BRANCH   7  10
ATOM      8  O   UNL     1      49.542   6.711  14.456  0.00  0.00    +0.000 OA
ATOM      9  C   UNL     1      48.388   6.417  14.760  0.00  0.00    +0.000 C 
ATOM     10  N   UNL     1      48.005   6.203  16.057  0.00  0.00    +0.000 N 
ATOM     11  H   UNL     1      47.127   5.730  16.245  0.00  0.00    +0.000 HD
BRANCH   9  12
ATOM     12  C   UNL     1      47.330   6.330  13.746  0.00  0.00    +0.000 A 
ATOM     13  C   UNL     1      46.894   7.478  13.099  0.00  0.00    +0.000 A 
ATOM     14  S   UNL     1      45.642   7.198  11.976  0.00  0.00    +0.000 S 
ATOM     15  C   UNL     1      45.669   5.526  12.283  0.00  0.00    +0.000 A 
ATOM     16  N   UNL     1      44.838   4.679  11.614  0.00  0.00    +0.000 NA
ATOM     17  C   UNL     1      44.989   3.433  11.922  0.00  0.00    +0.000 A 
ATOM     18  N   UNL     1      45.887   2.959  12.841  0.00  0.00    +0.000 N 
ATOM     19  C   UNL     1      46.704   3.779  13.578  0.00  0.00    +0.000 A 
ATOM     20  O   UNL     1      47.424   3.333  14.462  0.00  0.00    +0.000 OA
ATOM     21  C   UNL     1      46.601   5.190  13.246  0.00  0.00    +0.000 A 
ATOM     22  H   UNL     1      45.940   1.975  13.054  0.00  0.00    +0.000 HD
ENDBRANCH   9  12
ENDBRANCH   7  10
ENDBRANCH   1   7
BRANCH   4  23
ATOM     23  C   UNL     1      51.597   1.049  17.301  0.00  0.00    +0.000 C 
BRANCH  23  24
ATOM     24  N   UNL     1      52.463   0.845  18.467  0.00  0.00    +0.000 NA
ATOM     25  H   UNL     1      52.189  -0.037  18.908  0.00  0.00    +0.000 HD
BRANCH  24  26
ATOM     26  CA  UNL     1      53.907   0.710  18.111  0.00  0.00    +0.000 C 
BRANCH  26  27
ATOM     27  C   UNL     1      54.380  -0.706  18.560  0.00  0.00    +0.000 C 
ATOM     28  C   UNL     1      55.001  -1.548  17.454  0.00  0.00    +0.000 C 
ATOM     29  C   UNL     1      54.988  -2.942  18.052  0.00  0.00    +0.000 C 
ATOM     30  C   UNL     1      53.784  -2.949  18.983  0.00  0.00    +0.000 C 
ATOM     31  N   UNL     1      53.271  -1.572  19.016  0.00  0.00    +0.000 NA
ATOM     32  H   UNL     1      53.008  -1.327  19.969  0.00  0.00    +0.000 HD
ENDBRANCH  26  27
BRANCH  26  33
ATOM     33  C   UNL     1      54.767   1.805  18.779  0.00  0.00    +0.000 C 
BRANCH  33  34
ATOM     34  O   UNL     1      54.288   2.093  20.090  0.00  0.00    +0.000 OA
ATOM     35  H   UNL     1      55.071   2.018  20.672  0.00  0.00    +0.000 HD
ENDBRANCH  33  34
ENDBRANCH  26  33
ENDBRANCH  24  26
ENDBRANCH  23  24
ENDBRANCH   4  23
TORSDOF 9
ENDMDL
MODEL 5
REMARK VINA RESULT:    -6.932      2.853      8.156
REMARK INTER + INTRA:         -11.253
REMARK INTER:                  -9.769
REMARK INTRA:                  -1.484
REMARK UNBOUND:                -0.876
REMARK  Name = 
REMARK  9 active torsions:
REMARK  status: ('A' for Active; 'I' for Inactive)
REMARK    1  A    between atoms: C_2  and  C_21
REMARK    2  A    between atoms: N_3  and  C_4
REMARK    3  A    between atoms: C_4  and  C_5
REMARK    4  A    between atoms: C_8  and  C_9
REMARK    5  A    between atoms: C_9  and  N_10
REMARK    6  A    between atoms: N_10  and  CA_11
REMARK    7  A    between atoms: CA_11  and  C_12
REMARK    8  A    between atoms: CA_11  and  C_14
REMARK    9  A    between atoms: C_12  and  O_13
REMARK                            x       y       z     vdW  Elec       q    Type
REMARK                         _______ _______ _______ _____ _____    ______ ____
ROOT
ATOM      1  C   UNL     1      48.221   7.962  13.244  0.00  0.00    +0.000 A 
ATOM      2  C   UNL     1      49.400   7.255  13.453  0.00  0.00    +0.000 A 
ATOM      3  C   UNL     1      50.010   7.318  14.703  0.00  0.00    +0.000 A 
ATOM      4  C   UNL     1      49.430   8.072  15.728  0.00  0.00    +0.000 A 
ATOM      5  C   UNL     1      48.240   8.728  15.431  0.00  0.00    +0.000 A 
ATOM      6  N   UNL     1      47.630   8.695  14.224  0.00  0.00    +0.000 NA
ENDROOT
BRANCH   1   7
ATOM      7  C   UNL     1      47.513   7.887  11.911  0.00  0.00    +0.000 C 
BRANCH   7  10
ATOM      8  O   UNL     1      44.726   7.548  11.963  0.00  0.00    +0.000 OA
ATOM      9  C   UNL     1      45.434   6.569  11.740  0.00  0.00    +0.000 C 
ATOM     10  N   UNL     1      46.801   6.637  11.755  0.00  0.00    +0.000 N 
ATOM     11  H   UNL     1      47.342   5.889  11.332  0.00  0.00    +0.000 HD
BRANCH   9  12
ATOM     12  C   UNL     1      44.851   5.245  11.494  0.00  0.00    +0.000 A 
ATOM     13  C   UNL     1      44.093   4.628  12.479  0.00  0.00    +0.000 A 
ATOM     14  S   UNL     1      43.519   3.084  12.036  0.00  0.00    +0.000 S 
ATOM     15  C   UNL     1      44.228   3.206  10.494  0.00  0.00    +0.000 A 
ATOM     16  N   UNL     1      44.089   2.204   9.581  0.00  0.00    +0.000 NA
ATOM     17  C   UNL     1      44.649   2.444   8.441  0.00  0.00    +0.000 A 
ATOM     18  N   UNL     1      45.340   3.586   8.135  0.00  0.00    +0.000 N 
ATOM     19  C   UNL     1      45.552   4.596   9.041  0.00  0.00    +0.000 A 
ATOM     20  O   UNL     1      46.259   5.558   8.768  0.00  0.00    +0.000 OA
ATOM     21  C   UNL     1      44.912   4.394  10.330  0.00  0.00    +0.000 A 
ATOM     22  H   UNL     1      45.776   3.704   7.234  0.00  0.00    +0.000 HD
ENDBRANCH   9  12
ENDBRANCH   7  10
ENDBRANCH   1   7
BRANCH   4  23
ATOM     23  C   UNL     1      50.020   8.116  17.112  0.00  0.00    +0.000 C 
BRANCH  23  24
ATOM     24  N   UNL     1      49.312   7.222  18.035  0.00  0.00    +0.000 NA
ATOM     25  H   UNL     1      48.365   7.087  17.672  0.00  0.00    +0.000 HD
BRANCH  24  26
ATOM     26  CA  UNL     1      49.928   5.865  18.127  0.00  0.00    +0.000 C 
BRANCH  26  27
ATOM     27  C   UNL     1      49.008   4.868  17.359  0.00  0.00    +0.000 C 
ATOM     28  C   UNL     1      47.764   4.435  18.123  0.00  0.00    +0.000 C 
ATOM     29  C   UNL     1      47.302   3.219  17.342  0.00  0.00    +0.000 C 
ATOM     30  C   UNL     1      48.580   2.626  16.767  0.00  0.00    +0.000 C 
ATOM     31  N   UNL     1      49.661   3.571  17.080  0.00  0.00    +0.000 NA
ATOM     32  H   UNL     1      50.282   3.660  16.277  0.00  0.00    +0.000 HD
ENDBRANCH  26  27
BRANCH  26  33
ATOM     33  C   UNL     1      50.109   5.415  19.593  0.00  0.00    +0.000 C 
BRANCH  33  34
ATOM     34  O   UNL     1      51.001   4.307  19.674  0.00  0.00    +0.000 OA
ATOM     35  H   UNL     1      50.427   3.521  19.777  0.00  0.00    +0.000 HD
ENDBRANCH  33  34
ENDBRANCH  26  33
ENDBRANCH  24  26
ENDBRANCH  23  24
ENDBRANCH   4  23
TORSDOF 9
ENDMDL
MODEL 6
REMARK VINA RESULT:    -6.857      3.190      8.172
REMARK INTER + INTRA:         -11.141
REMARK INTER:                  -9.883
REMARK INTRA:                  -1.258
REMARK UNBOUND:                -0.876
REMARK  Name = 
REMARK  9 active torsions:
REMARK  status: ('A' for Active; 'I' for Inactive)
REMARK    1  A    between atoms: C_2  and  C_21
REMARK    2  A    between atoms: N_3  and  C_4
REMARK    3  A    between atoms: C_4  and  C_5
REMARK    4  A    between atoms: C_8  and  C_9
REMARK    5  A    between atoms: C_9  and  N_10
REMARK    6  A    between atoms: N_10  and  CA_11
REMARK    7  A    between atoms: CA_11  and  C_12
REMARK    8  A    between atoms: CA_11  and  C_14
REMARK    9  A    between atoms: C_12  and  O_13
REMARK                            x       y       z     vdW  Elec       q    Type
REMARK                         _______ _______ _______ _____ _____    ______ ____
ROOT
ATOM      1  C   UNL     1      48.403   7.743  13.994  0.00  0.00    +0.000 A 
ATOM      2  C   UNL     1      48.314   8.828  14.861  0.00  0.00    +0.000 A 
ATOM      3  C   UNL     1      48.526   8.622  16.222  0.00  0.00    +0.000 A 
ATOM      4  C   UNL     1      48.837   7.343  16.696  0.00  0.00    +0.000 A 
ATOM      5  C   UNL     1      48.925   6.326  15.752  0.00  0.00    +0.000 A 
ATOM      6  N   UNL     1      48.713   6.493  14.426  0.00  0.00    +0.000 NA
ENDROOT
BRANCH   1   7
ATOM      7  C   UNL     1      48.215   7.938  12.509  0.00  0.00    +0.000 C 
BRANCH   7  10
ATOM      8  O   UNL     1      45.512   7.935  11.746  0.00  0.00    +0.000 OA
ATOM      9  C   UNL     1      46.189   6.934  11.520  0.00  0.00    +0.000 C 
ATOM     10  N   UNL     1      47.496   6.833  11.913  0.00  0.00    +0.000 N 
ATOM     11  H   UNL     1      48.085   6.114  11.503  0.00  0.00    +0.000 HD
BRANCH   9  12
ATOM     12  C   UNL     1      45.614   5.757  10.859  0.00  0.00    +0.000 A 
ATOM     13  C   UNL     1      45.840   5.544   9.506  0.00  0.00    +0.000 A 
ATOM     14  S   UNL     1      45.075   4.146   8.896  0.00  0.00    +0.000 S 
ATOM     15  C   UNL     1      44.453   3.754  10.429  0.00  0.00    +0.000 A 
ATOM     16  N   UNL     1      43.706   2.629  10.613  0.00  0.00    +0.000 NA
ATOM     17  C   UNL     1      43.328   2.437  11.834  0.00  0.00    +0.000 A 
ATOM     18  N   UNL     1      43.619   3.268  12.882  0.00  0.00    +0.000 N 
ATOM     19  C   UNL     1      44.319   4.440  12.734  0.00  0.00    +0.000 A 
ATOM     20  O   UNL     1      44.477   5.211  13.672  0.00  0.00    +0.000 OA
ATOM     21  C   UNL     1      44.801   4.688  11.386  0.00  0.00    +0.000 A 
ATOM     22  H   UNL     1      43.273   3.076  13.809  0.00  0.00    +0.000 HD
ENDBRANCH   9  12
ENDBRANCH   7  10
ENDBRANCH   1   7
BRANCH   4  23
ATOM     23  C   UNL     1      49.137   7.088  18.149  0.00  0.00    +0.000 C 
BRANCH  23  24
ATOM     24  N   UNL     1      49.332   5.660  18.422  0.00  0.00    +0.000 NA
ATOM     25  H   UNL     1      49.049   5.142  17.586  0.00  0.00    +0.000 HD
BRANCH  24  26
ATOM     26  CA  UNL     1      50.758   5.299  18.681  0.00  0.00    +0.000 C 
BRANCH  26  27
ATOM     27  C   UNL     1      51.096   4.041  17.825  0.00  0.00    +0.000 C 
ATOM     28  C   UNL     1      49.899   3.163  17.486  0.00  0.00    +0.000 C 
ATOM     29  C   UNL     1      50.553   1.874  17.027  0.00  0.00    +0.000 C 
ATOM     30  C   UNL     1      51.860   1.810  17.803  0.00  0.00    +0.000 C 
ATOM     31  N   UNL     1      51.986   3.087  18.521  0.00  0.00    +0.000 NA
ATOM     32  H   UNL     1      52.950   3.413  18.473  0.00  0.00    +0.000 HD
ENDBRANCH  26  27
BRANCH  26  33
ATOM     33  C   UNL     1      51.017   5.021  20.178  0.00  0.00    +0.000 C 
BRANCH  33  34
ATOM     34  O   UNL     1      49.927   4.305  20.753  0.00  0.00    +0.000 OA
ATOM     35  H   UNL     1      49.469   4.951  21.327  0.00  0.00    +0.000 HD
ENDBRANCH  33  34
ENDBRANCH  26  33
ENDBRANCH  24  26
ENDBRANCH  23  24
ENDBRANCH   4  23
TORSDOF 9
ENDMDL
MODEL 7
REMARK VINA RESULT:    -6.807      4.349      9.128
REMARK INTER + INTRA:         -11.066
REMARK INTER:                  -9.686
REMARK INTRA:                  -1.380
REMARK UNBOUND:                -0.876
REMARK  Name = 
REMARK  9 active torsions:
REMARK  status: ('A' for Active; 'I' for Inactive)
REMARK    1  A    between atoms: C_2  and  C_21
REMARK    2  A    between atoms: N_3  and  C_4
REMARK    3  A    between atoms: C_4  and  C_5
REMARK    4  A    between atoms: C_8  and  C_9
REMARK    5  A    between atoms: C_9  and  N_10
REMARK    6  A    between atoms: N_10  and  CA_11
REMARK    7  A    between atoms: CA_11  and  C_12
REMARK    8  A    between atoms: CA_11  and  C_14
REMARK    9  A    between atoms: C_12  and  O_13
REMARK                            x       y       z     vdW  Elec       q    Type
REMARK                         _______ _______ _______ _____ _____    ______ ____
ROOT
ATOM      1  C   UNL     1      49.660   4.889  17.214  0.00  0.00    +0.000 A 
ATOM      2  C   UNL     1      51.038   4.831  17.393  0.00  0.00    +0.000 A 
ATOM      3  C   UNL     1      51.647   3.586  17.533  0.00  0.00    +0.000 A 
ATOM      4  C   UNL     1      50.877   2.420  17.478  0.00  0.00    +0.000 A 
ATOM      5  C   UNL     1      49.511   2.577  17.276  0.00  0.00    +0.000 A 
ATOM      6  N   UNL     1      48.889   3.772  17.149  0.00  0.00    +0.000 NA
ENDROOT
BRANCH   1   7
ATOM      7  C   UNL     1      48.972   6.220  17.023  0.00  0.00    +0.000 C 
BRANCH   7  10
ATOM      8  O   UNL     1      49.541   6.807  14.336  0.00  0.00    +0.000 OA
ATOM      9  C   UNL     1      48.408   6.432  14.630  0.00  0.00    +0.000 C 
ATOM     10  N   UNL     1      48.034   6.182  15.923  0.00  0.00    +0.000 N 
ATOM     11  H   UNL     1      47.189   5.647  16.102  0.00  0.00    +0.000 HD
BRANCH   9  12
ATOM     12  C   UNL     1      47.365   6.279  13.609  0.00  0.00    +0.000 A 
ATOM     13  C   UNL     1      46.941   7.383  12.882  0.00  0.00    +0.000 A 
ATOM     14  S   UNL     1      45.704   7.030  11.761  0.00  0.00    +0.000 S 
ATOM     15  C   UNL     1      45.725   5.381  12.178  0.00  0.00    +0.000 A 
ATOM     16  N   UNL     1      44.902   4.492  11.553  0.00  0.00    +0.000 NA
ATOM     17  C   UNL     1      45.048   3.269  11.944  0.00  0.00    +0.000 A 
ATOM     18  N   UNL     1      45.931   2.856  12.905  0.00  0.00    +0.000 N 
ATOM     19  C   UNL     1      46.739   3.722  13.599  0.00  0.00    +0.000 A 
ATOM     20  O   UNL     1      47.445   3.335  14.521  0.00  0.00    +0.000 OA
ATOM     21  C   UNL     1      46.642   5.109  13.174  0.00  0.00    +0.000 A 
ATOM     22  H   UNL     1      45.980   1.889  13.184  0.00  0.00    +0.000 HD
ENDBRANCH   9  12
ENDBRANCH   7  10
ENDBRANCH   1   7
BRANCH   4  23
ATOM     23  C   UNL     1      51.502   1.052  17.560  0.00  0.00    +0.000 C 
BRANCH  23  24
ATOM     24  N   UNL     1      52.869   1.046  17.031  0.00  0.00    +0.000 NA
ATOM     25  H   UNL     1      53.171   2.019  16.935  0.00  0.00    +0.000 HD
BRANCH  24  26
ATOM     26  CA  UNL     1      53.851   0.388  17.945  0.00  0.00    +0.000 C 
BRANCH  26  27
ATOM     27  C   UNL     1      54.878   1.467  18.402  0.00  0.00    +0.000 C 
ATOM     28  C   UNL     1      54.422   2.320  19.579  0.00  0.00    +0.000 C 
ATOM     29  C   UNL     1      55.391   3.486  19.538  0.00  0.00    +0.000 C 
ATOM     30  C   UNL     1      55.754   3.631  18.067  0.00  0.00    +0.000 C 
ATOM     31  N   UNL     1      55.142   2.491  17.369  0.00  0.00    +0.000 NA
ATOM     32  H   UNL     1      55.794   2.125  16.676  0.00  0.00    +0.000 HD
ENDBRANCH  26  27
BRANCH  26  33
ATOM     33  C   UNL     1      54.573  -0.791  17.258  0.00  0.00    +0.000 C 
BRANCH  33  34
ATOM     34  O   UNL     1      54.162  -0.910  15.898  0.00  0.00    +0.000 OA
ATOM     35  H   UNL     1      53.296  -0.458  15.851  0.00  0.00    +0.000 HD
ENDBRANCH  33  34
ENDBRANCH  26  33
ENDBRANCH  24  26
ENDBRANCH  23  24
ENDBRANCH   4  23
TORSDOF 9
ENDMDL
MODEL 8
REMARK VINA RESULT:    -6.579      3.031      7.982
REMARK INTER + INTRA:         -10.725
REMARK INTER:                  -9.065
REMARK INTRA:                  -1.660
REMARK UNBOUND:                -0.876
REMARK  Name = 
REMARK  9 active torsions:
REMARK  status: ('A' for Active; 'I' for Inactive)
REMARK    1  A    between atoms: C_2  and  C_21
REMARK    2  A    between atoms: N_3  and  C_4
REMARK    3  A    between atoms: C_4  and  C_5
REMARK    4  A    between atoms: C_8  and  C_9
REMARK    5  A    between atoms: C_9  and  N_10
REMARK    6  A    between atoms: N_10  and  CA_11
REMARK    7  A    between atoms: CA_11  and  C_12
REMARK    8  A    between atoms: CA_11  and  C_14
REMARK    9  A    between atoms: C_12  and  O_13
REMARK                            x       y       z     vdW  Elec       q    Type
REMARK                         _______ _______ _______ _____ _____    ______ ____
ROOT
ATOM      1  C   UNL     1      49.518   7.532  15.893  0.00  0.00    +0.000 A 
ATOM      2  C   UNL     1      50.831   7.234  15.545  0.00  0.00    +0.000 A 
ATOM      3  C   UNL     1      51.625   6.534  16.450  0.00  0.00    +0.000 A 
ATOM      4  C   UNL     1      51.095   6.130  17.679  0.00  0.00    +0.000 A 
ATOM      5  C   UNL     1      49.766   6.455  17.930  0.00  0.00    +0.000 A 
ATOM      6  N   UNL     1      48.974   7.144  17.076  0.00  0.00    +0.000 NA
ENDROOT
BRANCH   1   7
ATOM      7  C   UNL     1      48.618   8.258  14.921  0.00  0.00    +0.000 C 
BRANCH   7  10
ATOM      8  O   UNL     1      48.951   6.382  12.857  0.00  0.00    +0.000 OA
ATOM      9  C   UNL     1      47.857   6.459  13.413  0.00  0.00    +0.000 C 
ATOM     10  N   UNL     1      47.596   7.386  14.386  0.00  0.00    +0.000 N 
ATOM     11  H   UNL     1      46.785   7.263  14.985  0.00  0.00    +0.000 HD
BRANCH   9  12
ATOM     12  C   UNL     1      46.741   5.589  13.025  0.00  0.00    +0.000 A 
ATOM     13  C   UNL     1      46.799   4.228  13.288  0.00  0.00    +0.000 A 
ATOM     14  S   UNL     1      45.431   3.366  12.744  0.00  0.00    +0.000 S 
ATOM     15  C   UNL     1      44.694   4.790  12.177  0.00  0.00    +0.000 A 
ATOM     16  N   UNL     1      43.457   4.757  11.605  0.00  0.00    +0.000 NA
ATOM     17  C   UNL     1      43.005   5.915  11.252  0.00  0.00    +0.000 A 
ATOM     18  N   UNL     1      43.677   7.098  11.409  0.00  0.00    +0.000 N 
ATOM     19  C   UNL     1      44.946   7.172  11.928  0.00  0.00    +0.000 A 
ATOM     20  O   UNL     1      45.559   8.232  11.963  0.00  0.00    +0.000 OA
ATOM     21  C   UNL     1      45.490   5.902  12.376  0.00  0.00    +0.000 A 
ATOM     22  H   UNL     1      43.280   7.967  11.089  0.00  0.00    +0.000 HD
ENDBRANCH   9  12
ENDBRANCH   7  10
ENDBRANCH   1   7
BRANCH   4  23
ATOM     23  C   UNL     1      51.897   5.315  18.660  0.00  0.00    +0.000 C 
BRANCH  23  24
ATOM     24  N   UNL     1      51.282   4.009  18.913  0.00  0.00    +0.000 NA
ATOM     25  H   UNL     1      50.322   4.172  19.228  0.00  0.00    +0.000 HD
BRANCH  24  26
ATOM     26  CA  UNL     1      51.187   3.155  17.691  0.00  0.00    +0.000 C 
BRANCH  26  27
ATOM     27  C   UNL     1      49.701   2.713  17.530  0.00  0.00    +0.000 C 
ATOM     28  C   UNL     1      48.949   3.411  16.405  0.00  0.00    +0.000 C 
ATOM     29  C   UNL     1      47.500   3.103  16.733  0.00  0.00    +0.000 C 
ATOM     30  C   UNL     1      47.470   2.977  18.250  0.00  0.00    +0.000 C 
ATOM     31  N   UNL     1      48.866   3.045  18.705  0.00  0.00    +0.000 NA
ATOM     32  H   UNL     1      49.019   2.360  19.444  0.00  0.00    +0.000 HD
ENDBRANCH  26  27
BRANCH  26  33
ATOM     33  C   UNL     1      52.112   1.922  17.779  0.00  0.00    +0.000 C 
BRANCH  33  34
ATOM     34  O   UNL     1      51.541   0.814  17.089  0.00  0.00    +0.000 OA
ATOM     35  H   UNL     1      51.827   0.914  16.159  0.00  0.00    +0.000 HD
ENDBRANCH  33  34
ENDBRANCH  26  33
ENDBRANCH  24  26
ENDBRANCH  23  24
ENDBRANCH   4  23
TORSDOF 9
ENDMDL
MODEL 9
REMARK VINA RESULT:    -6.563      2.105      2.688
REMARK INTER + INTRA:         -10.700
REMARK INTER:                  -9.783
REMARK INTRA:                  -0.917
REMARK UNBOUND:                -0.876
REMARK  Name = 
REMARK  9 active torsions:
REMARK  status: ('A' for Active; 'I' for Inactive)
REMARK    1  A    between atoms: C_2  and  C_21
REMARK    2  A    between atoms: N_3  and  C_4
REMARK    3  A    between atoms: C_4  and  C_5
REMARK    4  A    between atoms: C_8  and  C_9
REMARK    5  A    between atoms: C_9  and  N_10
REMARK    6  A    between atoms: N_10  and  CA_11
REMARK    7  A    between atoms: CA_11  and  C_12
REMARK    8  A    between atoms: CA_11  and  C_14
REMARK    9  A    between atoms: C_12  and  O_13
REMARK                            x       y       z     vdW  Elec       q    Type
REMARK                         _______ _______ _______ _____ _____    ______ ____
ROOT
ATOM      1  C   UNL     1      48.599   7.755  13.341  0.00  0.00    +0.000 A 
ATOM      2  C   UNL     1      48.359   6.984  12.209  0.00  0.00    +0.000 A 
ATOM      3  C   UNL     1      47.075   6.957  11.671  0.00  0.00    +0.000 A 
ATOM      4  C   UNL     1      46.054   7.710  12.261  0.00  0.00    +0.000 A 
ATOM      5  C   UNL     1      46.394   8.467  13.377  0.00  0.00    +0.000 A 
ATOM      6  N   UNL     1      47.629   8.503  13.928  0.00  0.00    +0.000 NA
ENDROOT
BRANCH   1   7
ATOM      7  C   UNL     1      49.988   7.835  13.928  0.00  0.00    +0.000 C 
BRANCH   7  10
ATOM      8  O   UNL     1      52.255   7.632  15.574  0.00  0.00    +0.000 OA
ATOM      9  C   UNL     1      51.247   7.000  15.880  0.00  0.00    +0.000 C 
ATOM     10  N   UNL     1      50.121   6.998  15.099  0.00  0.00    +0.000 N 
ATOM     11  H   UNL     1      49.243   6.675  15.494  0.00  0.00    +0.000 HD
BRANCH   9  12
ATOM     12  C   UNL     1      51.208   6.157  17.081  0.00  0.00    +0.000 A 
ATOM     13  C   UNL     1      52.257   5.292  17.354  0.00  0.00    +0.000 A 
ATOM     14  S   UNL     1      52.033   4.370  18.772  0.00  0.00    +0.000 S 
ATOM     15  C   UNL     1      50.545   5.129  19.093  0.00  0.00    +0.000 A 
ATOM     16  N   UNL     1      49.824   4.809  20.204  0.00  0.00    +0.000 NA
ATOM     17  C   UNL     1      48.731   5.487  20.340  0.00  0.00    +0.000 A 
ATOM     18  N   UNL     1      48.292   6.444  19.465  0.00  0.00    +0.000 N 
ATOM     19  C   UNL     1      48.957   6.759  18.306  0.00  0.00    +0.000 A 
ATOM     20  O   UNL     1      48.487   7.548  17.496  0.00  0.00    +0.000 OA
ATOM     21  C   UNL     1      50.213   6.052  18.121  0.00  0.00    +0.000 A 
ATOM     22  H   UNL     1      47.417   6.921  19.615  0.00  0.00    +0.000 HD
ENDBRANCH   9  12
ENDBRANCH   7  10
ENDBRANCH   1   7
BRANCH   4  23
ATOM     23  C   UNL     1      44.668   7.762  11.676  0.00  0.00    +0.000 C 
BRANCH  23  24
ATOM     24  N   UNL     1      44.467   6.727  10.657  0.00  0.00    +0.000 NA
ATOM     25  H   UNL     1      45.372   6.545  10.215  0.00  0.00    +0.000 HD
BRANCH  24  26
ATOM     26  CA  UNL     1      44.006   5.424  11.225  0.00  0.00    +0.000 C 
BRANCH  26  27
ATOM     27  C   UNL     1      43.959   4.386  10.063  0.00  0.00    +0.000 C 
ATOM     28  C   UNL     1      44.555   3.027  10.402  0.00  0.00    +0.000 C 
ATOM     29  C   UNL     1      44.737   2.394   9.035  0.00  0.00    +0.000 C 
ATOM     30  C   UNL     1      44.976   3.569   8.098  0.00  0.00    +0.000 C 
ATOM     31  N   UNL     1      44.766   4.789   8.891  0.00  0.00    +0.000 NA
ATOM     32  H   UNL     1      44.255   5.474   8.337  0.00  0.00    +0.000 HD
ENDBRANCH  26  27
BRANCH  26  33
ATOM     33  C   UNL     1      42.620   5.550  11.896  0.00  0.00    +0.000 C 
BRANCH  33  34
ATOM     34  O   UNL     1      42.742   5.504  13.315  0.00  0.00    +0.000 OA
ATOM     35  H   UNL     1      42.007   4.933  13.618  0.00  0.00    +0.000 HD
ENDBRANCH  33  34
ENDBRANCH  26  33
ENDBRANCH  24  26
ENDBRANCH  23  24
ENDBRANCH   4  23
TORSDOF 9
ENDMDL
