MODEL 1
REMARK VINA RESULT:    -6.584      0.000      0.000
REMARK INTER + INTRA:         -11.354
REMARK INTER:                  -9.663
REMARK INTRA:                  -1.690
REMARK UNBOUND:                -1.690
REMARK  Name = 
REMARK  9 active torsions:
REMARK  status: ('A' for Active; 'I' for Inactive)
REMARK    1  A    between atoms: C_2  and  C_21
REMARK    2  A    between atoms: N_3  and  C_4
REMARK    3  A    between atoms: C_4  and  C_5
REMARK    4  A    between atoms: C_8  and  C_9
REMARK    5  A    between atoms: C_9  and  C_10
REMARK    6  A    between atoms: C_10  and  O_11
REMARK    7  A    between atoms: C_10  and  C_12
REMARK    8  A    between atoms: C_12  and  N_13
REMARK    9  A    between atoms: C_16  and  O_17
REMARK                            x       y       z     vdW  Elec       q    Type
REMARK                         _______ _______ _______ _____ _____    ______ ____
ROOT
ATOM      1  C   UNL     1      47.383   8.277  13.424  0.00  0.00    +0.000 A 
ATOM      2  C   UNL     1      47.946   7.356  12.536  0.00  0.00    +0.000 A 
ATOM      3  C   UNL     1      47.176   6.768  11.530  0.00  0.00    +0.000 A 
ATOM      4  C   UNL     1      45.823   7.100  11.385  0.00  0.00    +0.000 A 
ATOM      5  C   UNL     1      45.270   8.065  12.237  0.00  0.00    +0.000 A 
ATOM      6  C   UNL     1      46.043   8.656  13.242  0.00  0.00    +0.000 A 
ENDROOT
BRANCH   1   7
ATOM      7  C   UNL     1      48.215   8.873  14.520  0.00  0.00    +0.000 C 
BRANCH   7  10
ATOM      8  O   UNL     1      50.602   7.475  15.169  0.00  0.00    +0.000 OA
ATOM      9  C   UNL     1      49.574   7.250  15.796  0.00  0.00    +0.000 C 
ATOM     10  N   UNL     1      48.406   7.934  15.590  0.00  0.00    +0.000 N 
ATOM     11  H   UNL     1      47.570   7.656  16.085  0.00  0.00    +0.000 HD
BRANCH   9  12
ATOM     12  C   UNL     1      49.531   6.251  16.869  0.00  0.00    +0.000 A 
ATOM     13  C   UNL     1      50.360   6.370  17.975  0.00  0.00    +0.000 A 
ATOM     14  S   UNL     1      50.130   5.140  19.131  0.00  0.00    +0.000 S 
ATOM     15  C   UNL     1      48.945   4.377  18.170  0.00  0.00    +0.000 A 
ATOM     16  N   UNL     1      48.334   3.239  18.585  0.00  0.00    +0.000 NA
ATOM     17  C   UNL     1      47.482   2.753  17.746  0.00  0.00    +0.000 A 
ATOM     18  N   UNL     1      47.195   3.298  16.521  0.00  0.00    +0.000 N 
ATOM     19  C   UNL     1      47.763   4.467  16.073  0.00  0.00    +0.000 A 
ATOM     20  O   UNL     1      47.428   4.962  15.002  0.00  0.00    +0.000 OA
ATOM     21  C   UNL     1      48.730   5.054  16.984  0.00  0.00    +0.000 A 
ATOM     22  H   UNL     1      46.512   2.873  15.911  0.00  0.00    +0.000 HD
ENDBRANCH   9  12
ENDBRANCH   7  10
ENDBRANCH   1   7
BRANCH   4  23
ATOM     23  C   UNL     1      44.980   6.450  10.317  0.00  0.00    +0.000 C 
BRANCH  23  24
ATOM     24  C   UNL     1      45.465   5.069   9.839  0.00  0.00    +0.000 C 
BRANCH  24  25
ATOM     25  O   UNL     1      45.906   5.240   8.481  0.00  0.00    +0.000 OA
ATOM     26  H   UNL     1      45.229   5.778   8.030  0.00  0.00    +0.000 HD
ENDBRANCH  24  25
BRANCH  24  27
ATOM     27  C   UNL     1      44.351   3.985   9.915  0.00  0.00    +0.000 C 
BRANCH  27  28
ATOM     28  N   UNL     1      44.377   3.184  11.161  0.00  0.00    +0.000 NA
ATOM     29  C   UNL     1      45.366   3.685  12.140  0.00  0.00    +0.000 C 
ATOM     30  C   UNL     1      44.625   4.192  13.377  0.00  0.00    +0.000 C 
ATOM     31  C   UNL     1      43.169   4.243  12.970  0.00  0.00    +0.000 C 
ATOM     32  C   UNL     1      43.074   3.193  11.863  0.00  0.00    +0.000 C 
BRANCH  31  33
ATOM     33  O   UNL     1      42.839   5.559  12.533  0.00  0.00    +0.000 OA
ATOM     34  H   UNL     1      43.198   5.693  11.641  0.00  0.00    +0.000 HD
ENDBRANCH  31  33
ENDBRANCH  27  28
ENDBRANCH  24  27
ENDBRANCH  23  24
ENDBRANCH   4  23
TORSDOF 9
ENDMDL
MODEL 2
REMARK VINA RESULT:    -6.565      2.598      7.265
REMARK INTER + INTRA:         -11.325
REMARK INTER:                 -10.096
REMARK INTRA:                  -1.229
REMARK UNBOUND:                -1.690
REMARK  Name = 
REMARK  9 active torsions:
REMARK  status: ('A' for Active; 'I' for Inactive)
REMARK    1  A    between atoms: C_2  and  C_21
REMARK    2  A    between atoms: N_3  and  C_4
REMARK    3  A    between atoms: C_4  and  C_5
REMARK    4  A    between atoms: C_8  and  C_9
REMARK    5  A    between atoms: C_9  and  C_10
REMARK    6  A    between atoms: C_10  and  O_11
REMARK    7  A    between atoms: C_10  and  C_12
REMARK    8  A    between atoms: C_12  and  N_13
REMARK    9  A    between atoms: C_16  and  O_17
REMARK                            x       y       z     vdW  Elec       q    Type
REMARK                         _______ _______ _______ _____ _____    ______ ____
ROOT
ATOM      1  C   UNL     1      48.350   7.987  13.066  0.00  0.00    +0.000 A 
ATOM      2  C   UNL     1      47.696   8.628  14.121  0.00  0.00    +0.000 A 
ATOM      3  C   UNL     1      48.241   8.631  15.407  0.00  0.00    +0.000 A 
ATOM      4  C   UNL     1      49.464   7.997  15.661  0.00  0.00    +0.000 A 
ATOM      5  C   UNL     1      50.150   7.402  14.595  0.00  0.00    +0.000 A 
ATOM      6  C   UNL     1      49.605   7.403  13.306  0.00  0.00    +0.000 A 
ENDROOT
BRANCH   1   7
ATOM      7  C   UNL     1      47.734   7.964  11.699  0.00  0.00    +0.000 C 
BRANCH   7  10
ATOM      8  O   UNL     1      44.900   7.777  11.743  0.00  0.00    +0.000 OA
ATOM      9  C   UNL     1      45.576   6.763  11.614  0.00  0.00    +0.000 C 
ATOM     10  N   UNL     1      46.941   6.782  11.511  0.00  0.00    +0.000 N 
ATOM     11  H   UNL     1      47.452   5.911  11.480  0.00  0.00    +0.000 HD
BRANCH   9  12
ATOM     12  C   UNL     1      44.960   5.437  11.503  0.00  0.00    +0.000 A 
ATOM     13  C   UNL     1      44.265   4.892  12.573  0.00  0.00    +0.000 A 
ATOM     14  S   UNL     1      43.586   3.366  12.233  0.00  0.00    +0.000 S 
ATOM     15  C   UNL     1      44.240   3.359  10.658  0.00  0.00    +0.000 A 
ATOM     16  N   UNL     1      44.034   2.313   9.820  0.00  0.00    +0.000 NA
ATOM     17  C   UNL     1      44.613   2.426   8.671  0.00  0.00    +0.000 A 
ATOM     18  N   UNL     1      45.390   3.490   8.291  0.00  0.00    +0.000 N 
ATOM     19  C   UNL     1      45.598   4.587   9.092  0.00  0.00    +0.000 A 
ATOM     20  O   UNL     1      46.240   5.551   8.689  0.00  0.00    +0.000 OA
ATOM     21  C   UNL     1      44.965   4.507  10.397  0.00  0.00    +0.000 A 
ATOM     22  H   UNL     1      45.811   3.523   7.374  0.00  0.00    +0.000 HD
ENDBRANCH   9  12
ENDBRANCH   7  10
ENDBRANCH   1   7
BRANCH   4  23
ATOM     23  C   UNL     1      50.046   7.973  17.052  0.00  0.00    +0.000 C 
BRANCH  23  24
ATOM     24  C   UNL     1      49.360   7.012  18.041  0.00  0.00    +0.000 C 
BRANCH  24  25
ATOM     25  O   UNL     1      49.474   7.616  19.341  0.00  0.00    +0.000 OA
ATOM     26  H   UNL     1      50.424   7.769  19.500  0.00  0.00    +0.000 HD
ENDBRANCH  24  25
BRANCH  24  27
ATOM     27  C   UNL     1      50.005   5.596  18.042  0.00  0.00    +0.000 C 
BRANCH  27  28
ATOM     28  N   UNL     1      49.479   4.696  16.990  0.00  0.00    +0.000 NA
ATOM     29  C   UNL     1      49.402   3.287  17.431  0.00  0.00    +0.000 C 
ATOM     30  C   UNL     1      47.935   2.859  17.471  0.00  0.00    +0.000 C 
ATOM     31  C   UNL     1      47.148   4.142  17.324  0.00  0.00    +0.000 C 
ATOM     32  C   UNL     1      48.108   5.062  16.571  0.00  0.00    +0.000 C 
BRANCH  31  33
ATOM     33  O   UNL     1      46.786   4.632  18.613  0.00  0.00    +0.000 OA
ATOM     34  H   UNL     1      47.405   4.275  19.269  0.00  0.00    +0.000 HD
ENDBRANCH  31  33
ENDBRANCH  27  28
ENDBRANCH  24  27
ENDBRANCH  23  24
ENDBRANCH   4  23
TORSDOF 9
ENDMDL
MODEL 3
REMARK VINA RESULT:    -6.476      2.010      3.321
REMARK INTER + INTRA:         -11.194
REMARK INTER:                 -10.468
REMARK INTRA:                  -0.726
REMARK UNBOUND:                -1.690
REMARK  Name = 
REMARK  9 active torsions:
REMARK  status: ('A' for Active; 'I' for Inactive)
REMARK    1  A    between atoms: C_2  and  C_21
REMARK    2  A    between atoms: N_3  and  C_4
REMARK    3  A    between atoms: C_4  and  C_5
REMARK    4  A    between atoms: C_8  and  C_9
REMARK    5  A    between atoms: C_9  and  C_10
REMARK    6  A    between atoms: C_10  and  O_11
REMARK    7  A    between atoms: C_10  and  C_12
REMARK    8  A    between atoms: C_12  and  N_13
REMARK    9  A    between atoms: C_16  and  O_17
REMARK                            x       y       z     vdW  Elec       q    Type
REMARK                         _______ _______ _______ _____ _____    ______ ____
ROOT
ATOM      1  C   UNL     1      46.957   6.297  13.353  0.00  0.00    +0.000 A 
ATOM      2  C   UNL     1      46.695   4.971  13.711  0.00  0.00    +0.000 A 
ATOM      3  C   UNL     1      45.505   4.348  13.331  0.00  0.00    +0.000 A 
ATOM      4  C   UNL     1      44.553   5.038  12.569  0.00  0.00    +0.000 A 
ATOM      5  C   UNL     1      44.837   6.347  12.160  0.00  0.00    +0.000 A 
ATOM      6  C   UNL     1      46.031   6.970  12.539  0.00  0.00    +0.000 A 
ENDROOT
BRANCH   1   7
ATOM      7  C   UNL     1      48.224   6.962  13.800  0.00  0.00    +0.000 C 
BRANCH   7  10
ATOM      8  O   UNL     1      50.485   6.643  15.490  0.00  0.00    +0.000 OA
ATOM      9  C   UNL     1      49.382   6.854  15.980  0.00  0.00    +0.000 C 
ATOM     10  N   UNL     1      48.262   7.091  15.229  0.00  0.00    +0.000 N 
ATOM     11  H   UNL     1      47.366   7.187  15.685  0.00  0.00    +0.000 HD
BRANCH   9  12
ATOM     12  C   UNL     1      49.186   6.927  17.432  0.00  0.00    +0.000 A 
ATOM     13  C   UNL     1      49.106   8.155  18.071  0.00  0.00    +0.000 A 
ATOM     14  S   UNL     1      48.833   8.030  19.749  0.00  0.00    +0.000 S 
ATOM     15  C   UNL     1      48.859   6.326  19.686  0.00  0.00    +0.000 A 
ATOM     16  N   UNL     1      48.688   5.583  20.808  0.00  0.00    +0.000 NA
ATOM     17  C   UNL     1      48.762   4.307  20.620  0.00  0.00    +0.000 A 
ATOM     18  N   UNL     1      49.005   3.710  19.410  0.00  0.00    +0.000 N 
ATOM     19  C   UNL     1      49.150   4.420  18.242  0.00  0.00    +0.000 A 
ATOM     20  O   UNL     1      49.295   3.846  17.168  0.00  0.00    +0.000 OA
ATOM     21  C   UNL     1      49.073   5.862  18.402  0.00  0.00    +0.000 A 
ATOM     22  H   UNL     1      49.045   2.704  19.327  0.00  0.00    +0.000 HD
ENDBRANCH   9  12
ENDBRANCH   7  10
ENDBRANCH   1   7
BRANCH   4  23
ATOM     23  C   UNL     1      43.255   4.380  12.176  0.00  0.00    +0.000 C 
BRANCH  23  24
ATOM     24  C   UNL     1      43.387   3.144  11.266  0.00  0.00    +0.000 C 
BRANCH  24  25
ATOM     25  O   UNL     1      43.366   1.996  12.133  0.00  0.00    +0.000 OA
ATOM     26  H   UNL     1      44.257   1.919  12.523  0.00  0.00    +0.000 HD
ENDBRANCH  24  25
BRANCH  24  27
ATOM     27  C   UNL     1      44.694   3.161  10.422  0.00  0.00    +0.000 C 
BRANCH  27  28
ATOM     28  N   UNL     1      44.588   3.942   9.167  0.00  0.00    +0.000 NA
ATOM     29  C   UNL     1      45.757   4.818   8.940  0.00  0.00    +0.000 C 
ATOM     30  C   UNL     1      46.499   4.341   7.692  0.00  0.00    +0.000 C 
ATOM     31  C   UNL     1      45.899   2.991   7.370  0.00  0.00    +0.000 C 
ATOM     32  C   UNL     1      44.497   3.074   7.971  0.00  0.00    +0.000 C 
BRANCH  31  33
ATOM     33  O   UNL     1      46.702   1.961   7.943  0.00  0.00    +0.000 OA
ATOM     34  H   UNL     1      47.141   1.472   7.229  0.00  0.00    +0.000 HD
ENDBRANCH  31  33
ENDBRANCH  27  28
ENDBRANCH  24  27
ENDBRANCH  23  24
ENDBRANCH   4  23
TORSDOF 9
ENDMDL
MODEL 4
REMARK VINA RESULT:    -6.246      2.211      3.492
REMARK INTER + INTRA:         -10.858
REMARK INTER:                  -9.838
REMARK INTRA:                  -1.020
REMARK UNBOUND:                -1.690
REMARK  Name = 
REMARK  9 active torsions:
REMARK  status: ('A' for Active; 'I' for Inactive)
REMARK    1  A    between atoms: C_2  and  C_21
REMARK    2  A    between atoms: N_3  and  C_4
REMARK    3  A    between atoms: C_4  and  C_5
REMARK    4  A    between atoms: C_8  and  C_9
REMARK    5  A    between atoms: C_9  and  C_10
REMARK    6  A    between atoms: C_10  and  O_11
REMARK    7  A    between atoms: C_10  and  C_12
REMARK    8  A    between atoms: C_12  and  N_13
REMARK    9  A    between atoms: C_16  and  O_17
REMARK                            x       y       z     vdW  Elec       q    Type
REMARK                         _______ _______ _______ _____ _____    ______ ____
ROOT
ATOM      1  C   UNL     1      46.093   7.195  12.359  0.00  0.00    +0.000 A 
ATOM      2  C   UNL     1      44.829   6.715  12.711  0.00  0.00    +0.000 A 
ATOM      3  C   UNL     1      44.157   5.799  11.898  0.00  0.00    +0.000 A 
ATOM      4  C   UNL     1      44.746   5.334  10.715  0.00  0.00    +0.000 A 
ATOM      5  C   UNL     1      46.037   5.769  10.388  0.00  0.00    +0.000 A 
ATOM      6  C   UNL     1      46.710   6.684  11.204  0.00  0.00    +0.000 A 
ENDROOT
BRANCH   1   7
ATOM      7  C   UNL     1      46.785   8.205  13.225  0.00  0.00    +0.000 C 
BRANCH   7  10
ATOM      8  O   UNL     1      49.464   7.320  13.552  0.00  0.00    +0.000 OA
ATOM      9  C   UNL     1      48.644   7.122  14.440  0.00  0.00    +0.000 C 
ATOM     10  N   UNL     1      47.355   7.583  14.386  0.00  0.00    +0.000 N 
ATOM     11  H   UNL     1      46.703   7.328  15.113  0.00  0.00    +0.000 HD
BRANCH   9  12
ATOM     12  C   UNL     1      49.001   6.414  15.674  0.00  0.00    +0.000 A 
ATOM     13  C   UNL     1      50.058   6.855  16.458  0.00  0.00    +0.000 A 
ATOM     14  S   UNL     1      50.287   5.928  17.870  0.00  0.00    +0.000 S 
ATOM     15  C   UNL     1      49.009   4.876  17.458  0.00  0.00    +0.000 A 
ATOM     16  N   UNL     1      48.676   3.834  18.260  0.00  0.00    +0.000 NA
ATOM     17  C   UNL     1      47.712   3.101  17.811  0.00  0.00    +0.000 A 
ATOM     18  N   UNL     1      47.060   3.312  16.624  0.00  0.00    +0.000 N 
ATOM     19  C   UNL     1      47.339   4.373  15.796  0.00  0.00    +0.000 A 
ATOM     20  O   UNL     1      46.686   4.569  14.778  0.00  0.00    +0.000 OA
ATOM     21  C   UNL     1      48.418   5.229  16.259  0.00  0.00    +0.000 A 
ATOM     22  H   UNL     1      46.307   2.705  16.331  0.00  0.00    +0.000 HD
ENDBRANCH   9  12
ENDBRANCH   7  10
ENDBRANCH   1   7
BRANCH   4  23
ATOM     23  C   UNL     1      44.017   4.365   9.820  0.00  0.00    +0.000 C 
BRANCH  23  24
ATOM     24  C   UNL     1      44.331   2.876  10.059  0.00  0.00    +0.000 C 
BRANCH  24  25
ATOM     25  O   UNL     1      44.891   2.785  11.381  0.00  0.00    +0.000 OA
ATOM     26  H   UNL     1      44.838   1.848  11.647  0.00  0.00    +0.000 HD
ENDBRANCH  24  25
BRANCH  24  27
ATOM     27  C   UNL     1      45.324   2.299   9.009  0.00  0.00    +0.000 C 
BRANCH  27  28
ATOM     28  N   UNL     1      45.554   3.190   7.848  0.00  0.00    +0.000 NA
ATOM     29  C   UNL     1      46.891   3.822   7.872  0.00  0.00    +0.000 C 
ATOM     30  C   UNL     1      47.702   3.312   6.681  0.00  0.00    +0.000 C 
ATOM     31  C   UNL     1      46.907   2.147   6.134  0.00  0.00    +0.000 C 
ATOM     32  C   UNL     1      45.474   2.466   6.559  0.00  0.00    +0.000 C 
BRANCH  31  33
ATOM     33  O   UNL     1      47.404   0.929   6.682  0.00  0.00    +0.000 OA
ATOM     34  H   UNL     1      48.330   1.056   6.940  0.00  0.00    +0.000 HD
ENDBRANCH  31  33
ENDBRANCH  27  28
ENDBRANCH  24  27
ENDBRANCH  23  24
ENDBRANCH   4  23
TORSDOF 9
ENDMDL
MODEL 5
REMARK VINA RESULT:    -5.913      2.786      6.968
REMARK INTER + INTRA:         -10.369
REMARK INTER:                  -8.309
REMARK INTRA:                  -2.060
REMARK UNBOUND:                -1.690
REMARK  Name = 
REMARK  9 active torsions:
REMARK  status: ('A' for Active; 'I' for Inactive)
REMARK    1  A    between atoms: C_2  and  C_21
REMARK    2  A    between atoms: N_3  and  C_4
REMARK    3  A    between atoms: C_4  and  C_5
REMARK    4  A    between atoms: C_8  and  C_9
REMARK    5  A    between atoms: C_9  and  C_10
REMARK    6  A    between atoms: C_10  and  O_11
REMARK    7  A    between atoms: C_10  and  C_12
REMARK    8  A    between atoms: C_12  and  N_13
REMARK    9  A    between atoms: C_16  and  O_17
REMARK                            x       y       z     vdW  Elec       q    Type
REMARK                         _______ _______ _______ _____ _____    ______ ____
ROOT
ATOM      1  C   UNL     1      49.248   8.328  15.919  0.00  0.00    +0.000 A 
ATOM      2  C   UNL     1      49.230   8.538  17.301  0.00  0.00    +0.000 A 
ATOM      3  C   UNL     1      50.073   7.814  18.146  0.00  0.00    +0.000 A 
ATOM      4  C   UNL     1      50.964   6.868  17.622  0.00  0.00    +0.000 A 
ATOM      5  C   UNL     1      51.024   6.696  16.233  0.00  0.00    +0.000 A 
ATOM      6  C   UNL     1      50.182   7.424  15.387  0.00  0.00    +0.000 A 
ENDROOT
BRANCH   1   7
ATOM      7  C   UNL     1      48.311   9.089  15.029  0.00  0.00    +0.000 C 
BRANCH   7  10
ATOM      8  O   UNL     1      47.978   8.741  12.230  0.00  0.00    +0.000 OA
ATOM      9  C   UNL     1      47.246   8.143  13.010  0.00  0.00    +0.000 C 
ATOM     10  N   UNL     1      47.393   8.203  14.370  0.00  0.00    +0.000 N 
ATOM     11  H   UNL     1      46.717   7.748  14.966  0.00  0.00    +0.000 HD
BRANCH   9  12
ATOM     12  C   UNL     1      46.176   7.259  12.537  0.00  0.00    +0.000 A 
ATOM     13  C   UNL     1      45.088   7.777  11.848  0.00  0.00    +0.000 A 
ATOM     14  S   UNL     1      43.977   6.587  11.344  0.00  0.00    +0.000 S 
ATOM     15  C   UNL     1      44.889   5.342  12.071  0.00  0.00    +0.000 A 
ATOM     16  N   UNL     1      44.479   4.051  12.013  0.00  0.00    +0.000 NA
ATOM     17  C   UNL     1      45.247   3.218  12.632  0.00  0.00    +0.000 A 
ATOM     18  N   UNL     1      46.384   3.565  13.316  0.00  0.00    +0.000 N 
ATOM     19  C   UNL     1      46.856   4.854  13.373  0.00  0.00    +0.000 A 
ATOM     20  O   UNL     1      47.914   5.115  13.934  0.00  0.00    +0.000 OA
ATOM     21  C   UNL     1      46.025   5.830  12.689  0.00  0.00    +0.000 A 
ATOM     22  H   UNL     1      46.947   2.864  13.775  0.00  0.00    +0.000 HD
ENDBRANCH   9  12
ENDBRANCH   7  10
ENDBRANCH   1   7
BRANCH   4  23
ATOM     23  C   UNL     1      51.859   6.064  18.531  0.00  0.00    +0.000 C 
BRANCH  23  24
ATOM     24  C   UNL     1      51.193   4.858  19.219  0.00  0.00    +0.000 C 
BRANCH  24  25
ATOM     25  O   UNL     1      52.258   4.065  19.772  0.00  0.00    +0.000 OA
ATOM     26  H   UNL     1      51.880   3.565  20.519  0.00  0.00    +0.000 HD
ENDBRANCH  24  25
BRANCH  24  27
ATOM     27  C   UNL     1      50.337   4.007  18.237  0.00  0.00    +0.000 C 
BRANCH  27  28
ATOM     28  N   UNL     1      48.915   3.881  18.634  0.00  0.00    +0.000 NA
ATOM     29  C   UNL     1      48.063   4.937  18.044  0.00  0.00    +0.000 C 
ATOM     30  C   UNL     1      47.068   4.290  17.082  0.00  0.00    +0.000 C 
ATOM     31  C   UNL     1      47.557   2.870  16.906  0.00  0.00    +0.000 C 
ATOM     32  C   UNL     1      48.322   2.596  18.200  0.00  0.00    +0.000 C 
BRANCH  31  33
ATOM     33  O   UNL     1      48.369   2.784  15.737  0.00  0.00    +0.000 OA
ATOM     34  H   UNL     1      49.195   2.326  15.962  0.00  0.00    +0.000 HD
ENDBRANCH  31  33
ENDBRANCH  27  28
ENDBRANCH  24  27
ENDBRANCH  23  24
ENDBRANCH   4  23
TORSDOF 9
ENDMDL
MODEL 6
REMARK VINA RESULT:    -5.894      5.727      7.324
REMARK INTER + INTRA:         -10.341
REMARK INTER:                  -9.495
REMARK INTRA:                  -0.846
REMARK UNBOUND:                -1.690
REMARK  Name = 
REMARK  9 active torsions:
REMARK  status: ('A' for Active; 'I' for Inactive)
REMARK    1  A    between atoms: C_2  and  C_21
REMARK    2  A    between atoms: N_3  and  C_4
REMARK    3  A    between atoms: C_4  and  C_5
REMARK    4  A    between atoms: C_8  and  C_9
REMARK    5  A    between atoms: C_9  and  C_10
REMARK    6  A    between atoms: C_10  and  O_11
REMARK    7  A    between atoms: C_10  and  C_12
REMARK    8  A    between atoms: C_12  and  N_13
REMARK    9  A    between atoms: C_16  and  O_17
REMARK                            x       y       z     vdW  Elec       q    Type
REMARK                         _______ _______ _______ _____ _____    ______ ____
ROOT
ATOM      1  C   UNL     1      49.940   8.949  11.786  0.00  0.00    +0.000 A 
ATOM      2  C   UNL     1      49.008   9.982  11.924  0.00  0.00    +0.000 A 
ATOM      3  C   UNL     1      47.660   9.704  12.162  0.00  0.00    +0.000 A 
ATOM      4  C   UNL     1      47.218   8.380  12.279  0.00  0.00    +0.000 A 
ATOM      5  C   UNL     1      48.158   7.345  12.198  0.00  0.00    +0.000 A 
ATOM      6  C   UNL     1      49.509   7.624  11.963  0.00  0.00    +0.000 A 
ENDROOT
BRANCH   1   7
ATOM      7  C   UNL     1      51.377   9.265  11.495  0.00  0.00    +0.000 C 
BRANCH   7  10
ATOM      8  O   UNL     1      53.864   9.637  10.173  0.00  0.00    +0.000 OA
ATOM      9  C   UNL     1      52.983   8.972   9.641  0.00  0.00    +0.000 C 
ATOM     10  N   UNL     1      51.789   8.688  10.247  0.00  0.00    +0.000 N 
ATOM     11  H   UNL     1      51.072   8.197   9.732  0.00  0.00    +0.000 HD
BRANCH   9  12
ATOM     12  C   UNL     1      53.168   8.372   8.314  0.00  0.00    +0.000 A 
ATOM     13  C   UNL     1      53.099   9.156   7.172  0.00  0.00    +0.000 A 
ATOM     14  S   UNL     1      53.384   8.286   5.735  0.00  0.00    +0.000 S 
ATOM     15  C   UNL     1      53.562   6.820   6.588  0.00  0.00    +0.000 A 
ATOM     16  N   UNL     1      53.820   5.659   5.935  0.00  0.00    +0.000 NA
ATOM     17  C   UNL     1      53.899   4.622   6.701  0.00  0.00    +0.000 A 
ATOM     18  N   UNL     1      53.730   4.642   8.061  0.00  0.00    +0.000 N 
ATOM     19  C   UNL     1      53.503   5.798   8.768  0.00  0.00    +0.000 A 
ATOM     20  O   UNL     1      53.428   5.786   9.992  0.00  0.00    +0.000 OA
ATOM     21  C   UNL     1      53.406   6.995   7.950  0.00  0.00    +0.000 A 
ATOM     22  H   UNL     1      53.811   3.796   8.606  0.00  0.00    +0.000 HD
ENDBRANCH   9  12
ENDBRANCH   7  10
ENDBRANCH   1   7
BRANCH   4  23
ATOM     23  C   UNL     1      45.761   8.071  12.511  0.00  0.00    +0.000 C 
BRANCH  23  24
ATOM     24  C   UNL     1      45.051   7.325  11.365  0.00  0.00    +0.000 C 
BRANCH  24  25
ATOM     25  O   UNL     1      43.742   7.909  11.248  0.00  0.00    +0.000 OA
ATOM     26  H   UNL     1      43.681   8.289  10.351  0.00  0.00    +0.000 HD
ENDBRANCH  24  25
BRANCH  24  27
ATOM     27  C   UNL     1      44.941   5.795  11.627  0.00  0.00    +0.000 C 
BRANCH  27  28
ATOM     28  N   UNL     1      43.950   5.108  10.765  0.00  0.00    +0.000 NA
ATOM     29  C   UNL     1      44.577   4.149   9.830  0.00  0.00    +0.000 C 
ATOM     30  C   UNL     1      44.120   2.736  10.189  0.00  0.00    +0.000 C 
ATOM     31  C   UNL     1      43.446   2.871  11.536  0.00  0.00    +0.000 C 
ATOM     32  C   UNL     1      42.971   4.324  11.550  0.00  0.00    +0.000 C 
BRANCH  31  33
ATOM     33  O   UNL     1      44.378   2.569  12.571  0.00  0.00    +0.000 OA
ATOM     34  H   UNL     1      45.061   1.979  12.215  0.00  0.00    +0.000 HD
ENDBRANCH  31  33
ENDBRANCH  27  28
ENDBRANCH  24  27
ENDBRANCH  23  24
ENDBRANCH   4  23
TORSDOF 9
ENDMDL
MODEL 7
REMARK VINA RESULT:    -5.673      3.253      7.870
REMARK INTER + INTRA:         -10.016
REMARK INTER:                  -8.965
REMARK INTRA:                  -1.050
REMARK UNBOUND:                -1.690
REMARK  Name = 
REMARK  9 active torsions:
REMARK  status: ('A' for Active; 'I' for Inactive)
REMARK    1  A    between atoms: C_2  and  C_21
REMARK    2  A    between atoms: N_3  and  C_4
REMARK    3  A    between atoms: C_4  and  C_5
REMARK    4  A    between atoms: C_8  and  C_9
REMARK    5  A    between atoms: C_9  and  C_10
REMARK    6  A    between atoms: C_10  and  O_11
REMARK    7  A    between atoms: C_10  and  C_12
REMARK    8  A    between atoms: C_12  and  N_13
REMARK    9  A    between atoms: C_16  and  O_17
REMARK                            x       y       z     vdW  Elec       q    Type
REMARK                         _______ _______ _______ _____ _____    ______ ____
ROOT
ATOM      1  C   UNL     1      48.122   7.675  13.902  0.00  0.00    +0.000 A 
ATOM      2  C   UNL     1      48.024   6.332  14.275  0.00  0.00    +0.000 A 
ATOM      3  C   UNL     1      48.292   5.929  15.585  0.00  0.00    +0.000 A 
ATOM      4  C   UNL     1      48.656   6.870  16.556  0.00  0.00    +0.000 A 
ATOM      5  C   UNL     1      48.701   8.224  16.201  0.00  0.00    +0.000 A 
ATOM      6  C   UNL     1      48.429   8.627  14.890  0.00  0.00    +0.000 A 
ENDROOT
BRANCH   1   7
ATOM      7  C   UNL     1      47.865   8.085  12.484  0.00  0.00    +0.000 C 
BRANCH   7  10
ATOM      8  O   UNL     1      45.165   7.953  11.610  0.00  0.00    +0.000 OA
ATOM      9  C   UNL     1      45.916   7.004  11.418  0.00  0.00    +0.000 C 
ATOM     10  N   UNL     1      47.245   7.022  11.744  0.00  0.00    +0.000 N 
ATOM     11  H   UNL     1      47.799   6.185  11.630  0.00  0.00    +0.000 HD
BRANCH   9  12
ATOM     12  C   UNL     1      45.451   5.776  10.763  0.00  0.00    +0.000 A 
ATOM     13  C   UNL     1      45.708   5.556   9.418  0.00  0.00    +0.000 A 
ATOM     14  S   UNL     1      45.128   4.056   8.854  0.00  0.00    +0.000 S 
ATOM     15  C   UNL     1      44.470   3.669  10.380  0.00  0.00    +0.000 A 
ATOM     16  N   UNL     1      43.816   2.499  10.582  0.00  0.00    +0.000 NA
ATOM     17  C   UNL     1      43.343   2.350  11.775  0.00  0.00    +0.000 A 
ATOM     18  N   UNL     1      43.457   3.276  12.779  0.00  0.00    +0.000 N 
ATOM     19  C   UNL     1      44.140   4.459  12.631  0.00  0.00    +0.000 A 
ATOM     20  O   UNL     1      44.281   5.230  13.574  0.00  0.00    +0.000 OA
ATOM     21  C   UNL     1      44.692   4.672  11.304  0.00  0.00    +0.000 A 
ATOM     22  H   UNL     1      43.070   3.097  13.695  0.00  0.00    +0.000 HD
ENDBRANCH   9  12
ENDBRANCH   7  10
ENDBRANCH   1   7
BRANCH   4  23
ATOM     23  C   UNL     1      48.973   6.439  17.966  0.00  0.00    +0.000 C 
BRANCH  23  24
ATOM     24  C   UNL     1      48.842   4.929  18.243  0.00  0.00    +0.000 C 
BRANCH  24  25
ATOM     25  O   UNL     1      47.853   4.789  19.277  0.00  0.00    +0.000 OA
ATOM     26  H   UNL     1      47.206   5.508  19.149  0.00  0.00    +0.000 HD
ENDBRANCH  24  25
BRANCH  24  27
ATOM     27  C   UNL     1      50.187   4.285  18.688  0.00  0.00    +0.000 C 
BRANCH  27  28
ATOM     28  N   UNL     1      51.100   3.966  17.565  0.00  0.00    +0.000 NA
ATOM     29  C   UNL     1      52.244   4.899  17.479  0.00  0.00    +0.000 C 
ATOM     30  C   UNL     1      53.535   4.128  17.754  0.00  0.00    +0.000 C 
ATOM     31  C   UNL     1      53.085   2.788  18.292  0.00  0.00    +0.000 C 
ATOM     32  C   UNL     1      51.691   2.614  17.689  0.00  0.00    +0.000 C 
BRANCH  31  33
ATOM     33  O   UNL     1      53.086   2.818  19.717  0.00  0.00    +0.000 OA
ATOM     34  H   UNL     1      53.703   3.505  20.016  0.00  0.00    +0.000 HD
ENDBRANCH  31  33
ENDBRANCH  27  28
ENDBRANCH  24  27
ENDBRANCH  23  24
ENDBRANCH   4  23
TORSDOF 9
ENDMDL
MODEL 8
REMARK VINA RESULT:    -5.650      2.664      3.860
REMARK INTER + INTRA:          -9.982
REMARK INTER:                  -8.841
REMARK INTRA:                  -1.142
REMARK UNBOUND:                -1.690
REMARK  Name = 
REMARK  9 active torsions:
REMARK  status: ('A' for Active; 'I' for Inactive)
REMARK    1  A    between atoms: C_2  and  C_21
REMARK    2  A    between atoms: N_3  and  C_4
REMARK    3  A    between atoms: C_4  and  C_5
REMARK    4  A    between atoms: C_8  and  C_9
REMARK    5  A    between atoms: C_9  and  C_10
REMARK    6  A    between atoms: C_10  and  O_11
REMARK    7  A    between atoms: C_10  and  C_12
REMARK    8  A    between atoms: C_12  and  N_13
REMARK    9  A    between atoms: C_16  and  O_17
REMARK                            x       y       z     vdW  Elec       q    Type
REMARK                         _______ _______ _______ _____ _____    ______ ____
ROOT
ATOM      1  C   UNL     1      47.898   8.140  12.355  0.00  0.00    +0.000 A 
ATOM      2  C   UNL     1      46.681   8.828  12.352  0.00  0.00    +0.000 A 
ATOM      3  C   UNL     1      45.469   8.142  12.458  0.00  0.00    +0.000 A 
ATOM      4  C   UNL     1      45.452   6.747  12.581  0.00  0.00    +0.000 A 
ATOM      5  C   UNL     1      46.670   6.059  12.641  0.00  0.00    +0.000 A 
ATOM      6  C   UNL     1      47.884   6.748  12.539  0.00  0.00    +0.000 A 
ENDROOT
BRANCH   1   7
ATOM      7  C   UNL     1      49.188   8.890  12.205  0.00  0.00    +0.000 C 
BRANCH   7  10
ATOM      8  O   UNL     1      50.792  10.281  14.092  0.00  0.00    +0.000 OA
ATOM      9  C   UNL     1      50.985   9.088  13.889  0.00  0.00    +0.000 C 
ATOM     10  N   UNL     1      50.207   8.336  13.051  0.00  0.00    +0.000 N 
ATOM     11  H   UNL     1      50.457   7.375  12.866  0.00  0.00    +0.000 HD
BRANCH   9  12
ATOM     12  C   UNL     1      52.047   8.352  14.583  0.00  0.00    +0.000 A 
ATOM     13  C   UNL     1      53.381   8.621  14.314  0.00  0.00    +0.000 A 
ATOM     14  S   UNL     1      54.462   7.695  15.252  0.00  0.00    +0.000 S 
ATOM     15  C   UNL     1      53.181   6.868  16.017  0.00  0.00    +0.000 A 
ATOM     16  N   UNL     1      53.425   5.913  16.949  0.00  0.00    +0.000 NA
ATOM     17  C   UNL     1      52.366   5.346  17.423  0.00  0.00    +0.000 A 
ATOM     18  N   UNL     1      51.084   5.643  17.038  0.00  0.00    +0.000 N 
ATOM     19  C   UNL     1      50.787   6.626  16.124  0.00  0.00    +0.000 A 
ATOM     20  O   UNL     1      49.625   6.911  15.858  0.00  0.00    +0.000 OA
ATOM     21  C   UNL     1      51.948   7.294  15.561  0.00  0.00    +0.000 A 
ATOM     22  H   UNL     1      50.295   5.168  17.452  0.00  0.00    +0.000 HD
ENDBRANCH   9  12
ENDBRANCH   7  10
ENDBRANCH   1   7
BRANCH   4  23
ATOM     23  C   UNL     1      44.146   5.997  12.670  0.00  0.00    +0.000 C 
BRANCH  23  24
ATOM     24  C   UNL     1      43.301   5.984  11.382  0.00  0.00    +0.000 C 
BRANCH  24  25
ATOM     25  O   UNL     1      41.952   6.286  11.778  0.00  0.00    +0.000 OA
ATOM     26  H   UNL     1      41.745   7.172  11.426  0.00  0.00    +0.000 HD
ENDBRANCH  24  25
BRANCH  24  27
ATOM     27  C   UNL     1      43.356   4.614  10.646  0.00  0.00    +0.000 C 
BRANCH  27  28
ATOM     28  N   UNL     1      44.723   4.060  10.511  0.00  0.00    +0.000 NA
ATOM     29  C   UNL     1      44.730   2.588  10.368  0.00  0.00    +0.000 C 
ATOM     30  C   UNL     1      45.262   2.227   8.981  0.00  0.00    +0.000 C 
ATOM     31  C   UNL     1      45.286   3.533   8.218  0.00  0.00    +0.000 C 
ATOM     32  C   UNL     1      45.427   4.584   9.318  0.00  0.00    +0.000 C 
BRANCH  31  33
ATOM     33  O   UNL     1      44.089   3.665   7.456  0.00  0.00    +0.000 OA
ATOM     34  H   UNL     1      44.031   4.572   7.117  0.00  0.00    +0.000 HD
ENDBRANCH  31  33
ENDBRANCH  27  28
ENDBRANCH  24  27
ENDBRANCH  23  24
ENDBRANCH   4  23
TORSDOF 9
ENDMDL
MODEL 9
REMARK VINA RESULT:    -5.401      2.513      3.354
REMARK INTER + INTRA:          -9.617
REMARK INTER:                  -8.608
REMARK INTRA:                  -1.009
REMARK UNBOUND:                -1.690
REMARK  Name = 
REMARK  9 active torsions:
REMARK  status: ('A' for Active; 'I' for Inactive)
REMARK    1  A    between atoms: C_2  and  C_21
REMARK    2  A    between atoms: N_3  and  C_4
REMARK    3  A    between atoms: C_4  and  C_5
REMARK    4  A    between atoms: C_8  and  C_9
REMARK    5  A    between atoms: C_9  and  C_10
REMARK    6  A    between atoms: C_10  and  O_11
REMARK    7  A    between atoms: C_10  and  C_12
REMARK    8  A    between atoms: C_12  and  N_13
REMARK    9  A    between atoms: C_16  and  O_17
REMARK                            x       y       z     vdW  Elec       q    Type
REMARK                         _______ _______ _______ _____ _____    ______ ____
ROOT
ATOM      1  C   UNL     1      49.808   8.415  13.179  0.00  0.00    +0.000 A 
ATOM      2  C   UNL     1      48.894   8.688  14.200  0.00  0.00    +0.000 A 
ATOM      3  C   UNL     1      47.523   8.510  14.001  0.00  0.00    +0.000 A 
ATOM      4  C   UNL     1      47.038   8.041  12.774  0.00  0.00    +0.000 A 
ATOM      5  C   UNL     1      47.955   7.712  11.768  0.00  0.00    +0.000 A 
ATOM      6  C   UNL     1      49.328   7.888  11.968  0.00  0.00    +0.000 A 
ENDROOT
BRANCH   1   7
ATOM      7  C   UNL     1      51.274   8.646  13.397  0.00  0.00    +0.000 C 
BRANCH   7  10
ATOM      8  O   UNL     1      52.263   9.183  16.005  0.00  0.00    +0.000 OA
ATOM      9  C   UNL     1      52.331   8.048  15.548  0.00  0.00    +0.000 C 
ATOM     10  N   UNL     1      51.811   7.697  14.332  0.00  0.00    +0.000 N 
ATOM     11  H   UNL     1      51.960   6.765  13.974  0.00  0.00    +0.000 HD
BRANCH   9  12
ATOM     12  C   UNL     1      52.936   6.948  16.308  0.00  0.00    +0.000 A 
ATOM     13  C   UNL     1      54.308   6.901  16.508  0.00  0.00    +0.000 A 
ATOM     14  S   UNL     1      54.811   5.574  17.451  0.00  0.00    +0.000 S 
ATOM     15  C   UNL     1      53.214   4.989  17.585  0.00  0.00    +0.000 A 
ATOM     16  N   UNL     1      52.942   3.854  18.276  0.00  0.00    +0.000 NA
ATOM     17  C   UNL     1      51.697   3.510  18.270  0.00  0.00    +0.000 A 
ATOM     18  N   UNL     1      50.702   4.195  17.623  0.00  0.00    +0.000 N 
ATOM     19  C   UNL     1      50.924   5.367  16.940  0.00  0.00    +0.000 A 
ATOM     20  O   UNL     1      49.997   5.990  16.434  0.00  0.00    +0.000 OA
ATOM     21  C   UNL     1      52.312   5.797  16.919  0.00  0.00    +0.000 A 
ATOM     22  H   UNL     1      49.744   3.878  17.661  0.00  0.00    +0.000 HD
ENDBRANCH   9  12
ENDBRANCH   7  10
ENDBRANCH   1   7
BRANCH   4  23
ATOM     23  C   UNL     1      45.558   7.871  12.544  0.00  0.00    +0.000 C 
BRANCH  23  24
ATOM     24  C   UNL     1      45.052   6.416  12.536  0.00  0.00    +0.000 C 
BRANCH  24  25
ATOM     25  O   UNL     1      45.656   5.768  13.668  0.00  0.00    +0.000 OA
ATOM     26  H   UNL     1      45.220   4.900  13.763  0.00  0.00    +0.000 HD
ENDBRANCH  24  25
BRANCH  24  27
ATOM     27  C   UNL     1      45.416   5.664  11.223  0.00  0.00    +0.000 C 
BRANCH  27  28
ATOM     28  N   UNL     1      44.255   5.046  10.543  0.00  0.00    +0.000 NA
ATOM     29  C   UNL     1      44.643   3.927   9.657  0.00  0.00    +0.000 C 
ATOM     30  C   UNL     1      44.051   2.630  10.209  0.00  0.00    +0.000 C 
ATOM     31  C   UNL     1      43.558   2.981  11.595  0.00  0.00    +0.000 C 
ATOM     32  C   UNL     1      43.278   4.480  11.501  0.00  0.00    +0.000 C 
BRANCH  31  33
ATOM     33  O   UNL     1      44.555   2.649  12.557  0.00  0.00    +0.000 OA
ATOM     34  H   UNL     1      45.272   3.301  12.504  0.00  0.00    +0.000 HD
ENDBRANCH  31  33
ENDBRANCH  27  28
ENDBRANCH  24  27
ENDBRANCH  23  24
ENDBRANCH   4  23
TORSDOF 9
ENDMDL
