MODEL 1
REMARK VINA RESULT:    -8.334      0.000      0.000
REMARK INTER + INTRA:         -11.246
REMARK INTER:                 -10.526
REMARK INTRA:                  -0.719
REMARK UNBOUND:                -0.719
REMARK  Name = 
REMARK  5 active torsions:
REMARK  status: ('A' for Active; 'I' for Inactive)
REMARK    1  A    between atoms: C_2  and  C_4
REMARK    2  A    between atoms: C_7  and  N_8
REMARK    3  A    between atoms: N_8  and  C_9
REMARK    4  A    between atoms: C_9  and  C_10
REMARK    5  A    between atoms: C_14  and  O_15
REMARK                            x       y       z     vdW  Elec       q    Type
REMARK                         _______ _______ _______ _____ _____    ______ ____
ROOT
ATOM      1  C   UNL     1      46.232   2.115   7.954  0.00  0.00    +0.000 A 
ATOM      2  C   UNL     1      45.241   1.659   8.827  0.00  0.00    +0.000 A 
ATOM      3  C   UNL     1      44.404   2.575   9.472  0.00  0.00    +0.000 A 
ATOM      4  C   UNL     1      44.553   3.948   9.260  0.00  0.00    +0.000 A 
ATOM      5  C   UNL     1      45.479   4.381   8.303  0.00  0.00    +0.000 A 
ATOM      6  C   UNL     1      46.332   3.476   7.667  0.00  0.00    +0.000 A 
ENDROOT
BRANCH   1   8
ATOM      7  N   UNL     1      47.047  -0.121   7.586  0.00  0.00    +0.000 NA
ATOM      8  C   UNL     1      47.197   1.144   7.367  0.00  0.00    +0.000 C 
ATOM      9  N   UNL     1      48.257   1.594   6.634  0.00  0.00    +0.000 N 
ATOM     10  H   UNL     1      47.772  -0.644   7.095  0.00  0.00    +0.000 HD
ATOM     11  H   UNL     1      49.048   0.962   6.587  0.00  0.00    +0.000 HD
ATOM     12  H   UNL     1      48.559   2.540   6.848  0.00  0.00    +0.000 HD
ENDBRANCH   1   8
BRANCH   4  13
ATOM     13  N   UNL     1      43.789   4.921   9.903  0.00  0.00    +0.000 N 
ATOM     14  H   UNL     1      42.916   5.096   9.408  0.00  0.00    +0.000 HD
BRANCH  13  15
ATOM     15  C   UNL     1      43.580   4.800  11.343  0.00  0.00    +0.000 C 
BRANCH  15  16
ATOM     16  C   UNL     1      44.901   5.028  12.036  0.00  0.00    +0.000 A 
ATOM     17  C   UNL     1      45.535   6.280  11.946  0.00  0.00    +0.000 A 
ATOM     18  C   UNL     1      46.750   6.514  12.592  0.00  0.00    +0.000 A 
ATOM     19  C   UNL     1      47.346   5.498  13.337  0.00  0.00    +0.000 A 
ATOM     20  C   UNL     1      46.723   4.255  13.421  0.00  0.00    +0.000 A 
ATOM     21  C   UNL     1      45.517   4.010  12.772  0.00  0.00    +0.000 A 
BRANCH  20  22
ATOM     22  O   UNL     1      47.266   3.239  14.150  0.00  0.00    +0.000 OA
ATOM     23  H   UNL     1      47.644   3.613  14.962  0.00  0.00    +0.000 HD
ENDBRANCH  20  22
ENDBRANCH  15  16
ENDBRANCH  13  15
ENDBRANCH   4  13
TORSDOF 5
ENDMDL
MODEL 2
REMARK VINA RESULT:    -7.958      2.895      5.970
REMARK INTER + INTRA:         -10.770
REMARK INTER:                 -10.207
REMARK INTRA:                  -0.563
REMARK UNBOUND:                -0.719
REMARK  Name = 
REMARK  5 active torsions:
REMARK  status: ('A' for Active; 'I' for Inactive)
REMARK    1  A    between atoms: C_2  and  C_4
REMARK    2  A    between atoms: C_7  and  N_8
REMARK    3  A    between atoms: N_8  and  C_9
REMARK    4  A    between atoms: C_9  and  C_10
REMARK    5  A    between atoms: C_14  and  O_15
REMARK                            x       y       z     vdW  Elec       q    Type
REMARK                         _______ _______ _______ _____ _____    ______ ____
ROOT
ATOM      1  C   UNL     1      46.444   4.838  13.287  0.00  0.00    +0.000 A 
ATOM      2  C   UNL     1      46.598   5.961  12.471  0.00  0.00    +0.000 A 
ATOM      3  C   UNL     1      46.020   5.983  11.197  0.00  0.00    +0.000 A 
ATOM      4  C   UNL     1      45.294   4.886  10.725  0.00  0.00    +0.000 A 
ATOM      5  C   UNL     1      45.060   3.814  11.596  0.00  0.00    +0.000 A 
ATOM      6  C   UNL     1      45.647   3.774  12.863  0.00  0.00    +0.000 A 
ENDROOT
BRANCH   1   8
ATOM      7  N   UNL     1      47.320   3.633  15.180  0.00  0.00    +0.000 NA
ATOM      8  C   UNL     1      47.163   4.773  14.590  0.00  0.00    +0.000 C 
ATOM      9  N   UNL     1      47.616   5.920  15.177  0.00  0.00    +0.000 N 
ATOM     10  H   UNL     1      47.851   3.762  16.041  0.00  0.00    +0.000 HD
ATOM     11  H   UNL     1      47.745   5.868  16.181  0.00  0.00    +0.000 HD
ATOM     12  H   UNL     1      47.116   6.764  14.917  0.00  0.00    +0.000 HD
ENDBRANCH   1   8
BRANCH   4  13
ATOM     13  N   UNL     1      44.732   4.816   9.452  0.00  0.00    +0.000 N 
ATOM     14  H   UNL     1      45.301   5.311   8.767  0.00  0.00    +0.000 HD
BRANCH  13  15
ATOM     15  C   UNL     1      44.296   3.514   8.956  0.00  0.00    +0.000 C 
BRANCH  15  16
ATOM     16  C   UNL     1      45.440   2.886   8.200  0.00  0.00    +0.000 A 
ATOM     17  C   UNL     1      46.198   3.659   7.302  0.00  0.00    +0.000 A 
ATOM     18  C   UNL     1      47.269   3.098   6.604  0.00  0.00    +0.000 A 
ATOM     19  C   UNL     1      47.596   1.757   6.795  0.00  0.00    +0.000 A 
ATOM     20  C   UNL     1      46.841   0.989   7.678  0.00  0.00    +0.000 A 
ATOM     21  C   UNL     1      45.766   1.536   8.371  0.00  0.00    +0.000 A 
BRANCH  20  22
ATOM     22  O   UNL     1      47.136  -0.323   7.905  0.00  0.00    +0.000 OA
ATOM     23  H   UNL     1      46.305  -0.802   8.057  0.00  0.00    +0.000 HD
ENDBRANCH  20  22
ENDBRANCH  15  16
ENDBRANCH  13  15
ENDBRANCH   4  13
TORSDOF 5
ENDMDL
MODEL 3
REMARK VINA RESULT:    -7.648      3.137      6.272
REMARK INTER + INTRA:         -10.380
REMARK INTER:                  -9.848
REMARK INTRA:                  -0.532
REMARK UNBOUND:                -0.719
REMARK  Name = 
REMARK  5 active torsions:
REMARK  status: ('A' for Active; 'I' for Inactive)
REMARK    1  A    between atoms: C_2  and  C_4
REMARK    2  A    between atoms: C_7  and  N_8
REMARK    3  A    between atoms: N_8  and  C_9
REMARK    4  A    between atoms: C_9  and  C_10
REMARK    5  A    between atoms: C_14  and  O_15
REMARK                            x       y       z     vdW  Elec       q    Type
REMARK                         _______ _______ _______ _____ _____    ______ ____
ROOT
ATOM      1  C   UNL     1      46.521   5.091  13.207  0.00  0.00    +0.000 A 
ATOM      2  C   UNL     1      46.870   6.181  12.406  0.00  0.00    +0.000 A 
ATOM      3  C   UNL     1      46.413   6.254  11.087  0.00  0.00    +0.000 A 
ATOM      4  C   UNL     1      45.614   5.239  10.552  0.00  0.00    +0.000 A 
ATOM      5  C   UNL     1      45.186   4.209  11.399  0.00  0.00    +0.000 A 
ATOM      6  C   UNL     1      45.652   4.118  12.713  0.00  0.00    +0.000 A 
ENDROOT
BRANCH   1   8
ATOM      7  N   UNL     1      47.984   5.823  14.974  0.00  0.00    +0.000 NA
ATOM      8  C   UNL     1      47.110   4.961  14.568  0.00  0.00    +0.000 C 
ATOM      9  N   UNL     1      46.758   3.910  15.366  0.00  0.00    +0.000 N 
ATOM     10  H   UNL     1      48.264   5.605  15.930  0.00  0.00    +0.000 HD
ATOM     11  H   UNL     1      47.433   3.667  16.082  0.00  0.00    +0.000 HD
ATOM     12  H   UNL     1      46.436   3.082  14.873  0.00  0.00    +0.000 HD
ENDBRANCH   1   8
BRANCH   4  13
ATOM     13  N   UNL     1      45.162   5.219   9.234  0.00  0.00    +0.000 N 
ATOM     14  H   UNL     1      45.893   5.510   8.586  0.00  0.00    +0.000 HD
BRANCH  13  15
ATOM     15  C   UNL     1      44.458   4.032   8.760  0.00  0.00    +0.000 C 
BRANCH  15  16
ATOM     16  C   UNL     1      45.461   3.110   8.113  0.00  0.00    +0.000 A 
ATOM     17  C   UNL     1      45.603   1.789   8.575  0.00  0.00    +0.000 A 
ATOM     18  C   UNL     1      46.516   0.917   7.979  0.00  0.00    +0.000 A 
ATOM     19  C   UNL     1      47.299   1.356   6.913  0.00  0.00    +0.000 A 
ATOM     20  C   UNL     1      47.166   2.666   6.460  0.00  0.00    +0.000 A 
ATOM     21  C   UNL     1      46.265   3.545   7.054  0.00  0.00    +0.000 A 
BRANCH  20  22
ATOM     22  O   UNL     1      47.902   3.131   5.411  0.00  0.00    +0.000 OA
ATOM     23  H   UNL     1      47.625   2.659   4.609  0.00  0.00    +0.000 HD
ENDBRANCH  20  22
ENDBRANCH  15  16
ENDBRANCH  13  15
ENDBRANCH   4  13
TORSDOF 5
ENDMDL
MODEL 4
REMARK VINA RESULT:    -7.632      2.822      6.455
REMARK INTER + INTRA:         -10.359
REMARK INTER:                  -9.923
REMARK INTRA:                  -0.436
REMARK UNBOUND:                -0.719
REMARK  Name = 
REMARK  5 active torsions:
REMARK  status: ('A' for Active; 'I' for Inactive)
REMARK    1  A    between atoms: C_2  and  C_4
REMARK    2  A    between atoms: C_7  and  N_8
REMARK    3  A    between atoms: N_8  and  C_9
REMARK    4  A    between atoms: C_9  and  C_10
REMARK    5  A    between atoms: C_14  and  O_15
REMARK                            x       y       z     vdW  Elec       q    Type
REMARK                         _______ _______ _______ _____ _____    ______ ____
ROOT
ATOM      1  C   UNL     1      45.510   7.225  12.399  0.00  0.00    +0.000 A 
ATOM      2  C   UNL     1      44.652   6.262  12.935  0.00  0.00    +0.000 A 
ATOM      3  C   UNL     1      44.409   5.076  12.235  0.00  0.00    +0.000 A 
ATOM      4  C   UNL     1      45.010   4.845  10.994  0.00  0.00    +0.000 A 
ATOM      5  C   UNL     1      45.948   5.772  10.522  0.00  0.00    +0.000 A 
ATOM      6  C   UNL     1      46.185   6.967  11.206  0.00  0.00    +0.000 A 
ENDROOT
BRANCH   1   8
ATOM      7  N   UNL     1      44.847   9.499  12.834  0.00  0.00    +0.000 NA
ATOM      8  C   UNL     1      45.668   8.534  13.091  0.00  0.00    +0.000 C 
ATOM      9  N   UNL     1      46.702   8.725  13.963  0.00  0.00    +0.000 N 
ATOM     10  H   UNL     1      45.078  10.310  13.407  0.00  0.00    +0.000 HD
ATOM     11  H   UNL     1      46.975   9.691  14.102  0.00  0.00    +0.000 HD
ATOM     12  H   UNL     1      47.513   8.135  13.805  0.00  0.00    +0.000 HD
ENDBRANCH   1   8
BRANCH   4  13
ATOM     13  N   UNL     1      44.778   3.712  10.217  0.00  0.00    +0.000 N 
ATOM     14  H   UNL     1      44.050   3.125  10.623  0.00  0.00    +0.000 HD
BRANCH  13  15
ATOM     15  C   UNL     1      44.600   3.881   8.778  0.00  0.00    +0.000 C 
BRANCH  15  16
ATOM     16  C   UNL     1      45.627   3.033   8.069  0.00  0.00    +0.000 A 
ATOM     17  C   UNL     1      46.474   3.614   7.108  0.00  0.00    +0.000 A 
ATOM     18  C   UNL     1      47.440   2.850   6.451  0.00  0.00    +0.000 A 
ATOM     19  C   UNL     1      47.571   1.494   6.748  0.00  0.00    +0.000 A 
ATOM     20  C   UNL     1      46.727   0.916   7.694  0.00  0.00    +0.000 A 
ATOM     21  C   UNL     1      45.755   1.668   8.346  0.00  0.00    +0.000 A 
BRANCH  20  22
ATOM     22  O   UNL     1      46.831  -0.403   8.023  0.00  0.00    +0.000 OA
ATOM     23  H   UNL     1      46.094  -0.630   8.613  0.00  0.00    +0.000 HD
ENDBRANCH  20  22
ENDBRANCH  15  16
ENDBRANCH  13  15
ENDBRANCH   4  13
TORSDOF 5
ENDMDL
MODEL 5
REMARK VINA RESULT:    -7.598      1.319      2.211
REMARK INTER + INTRA:         -10.316
REMARK INTER:                  -9.658
REMARK INTRA:                  -0.658
REMARK UNBOUND:                -0.719
REMARK  Name = 
REMARK  5 active torsions:
REMARK  status: ('A' for Active; 'I' for Inactive)
REMARK    1  A    between atoms: C_2  and  C_4
REMARK    2  A    between atoms: C_7  and  N_8
REMARK    3  A    between atoms: N_8  and  C_9
REMARK    4  A    between atoms: C_9  and  C_10
REMARK    5  A    between atoms: C_14  and  O_15
REMARK                            x       y       z     vdW  Elec       q    Type
REMARK                         _______ _______ _______ _____ _____    ______ ____
ROOT
ATOM      1  C   UNL     1      46.227   2.061   8.030  0.00  0.00    +0.000 A 
ATOM      2  C   UNL     1      46.458   3.400   7.706  0.00  0.00    +0.000 A 
ATOM      3  C   UNL     1      45.654   4.402   8.259  0.00  0.00    +0.000 A 
ATOM      4  C   UNL     1      44.610   4.077   9.130  0.00  0.00    +0.000 A 
ATOM      5  C   UNL     1      44.460   2.742   9.527  0.00  0.00    +0.000 A 
ATOM      6  C   UNL     1      45.247   1.733   8.967  0.00  0.00    +0.000 A 
ENDROOT
BRANCH   1   8
ATOM      7  N   UNL     1      47.905   1.316   6.471  0.00  0.00    +0.000 NA
ATOM      8  C   UNL     1      47.008   0.994   7.345  0.00  0.00    +0.000 C 
ATOM      9  N   UNL     1      46.746  -0.320   7.609  0.00  0.00    +0.000 N 
ATOM     10  H   UNL     1      48.360   0.475   6.119  0.00  0.00    +0.000 HD
ATOM     11  H   UNL     1      47.016  -0.969   6.879  0.00  0.00    +0.000 HD
ATOM     12  H   UNL     1      45.805  -0.514   7.939  0.00  0.00    +0.000 HD
ENDBRANCH   1   8
BRANCH   4  13
ATOM     13  N   UNL     1      43.738   5.014   9.681  0.00  0.00    +0.000 N 
ATOM     14  H   UNL     1      42.882   5.093   9.133  0.00  0.00    +0.000 HD
BRANCH  13  15
ATOM     15  C   UNL     1      43.461   4.948  11.112  0.00  0.00    +0.000 C 
BRANCH  15  16
ATOM     16  C   UNL     1      44.708   5.358  11.857  0.00  0.00    +0.000 A 
ATOM     17  C   UNL     1      45.279   4.488  12.803  0.00  0.00    +0.000 A 
ATOM     18  C   UNL     1      46.440   4.844  13.492  0.00  0.00    +0.000 A 
ATOM     19  C   UNL     1      47.043   6.076  13.243  0.00  0.00    +0.000 A 
ATOM     20  C   UNL     1      46.474   6.941  12.313  0.00  0.00    +0.000 A 
ATOM     21  C   UNL     1      45.312   6.599  11.629  0.00  0.00    +0.000 A 
BRANCH  20  22
ATOM     22  O   UNL     1      47.040   8.149  12.030  0.00  0.00    +0.000 OA
ATOM     23  H   UNL     1      47.104   8.658  12.855  0.00  0.00    +0.000 HD
ENDBRANCH  20  22
ENDBRANCH  15  16
ENDBRANCH  13  15
ENDBRANCH   4  13
TORSDOF 5
ENDMDL
MODEL 6
REMARK VINA RESULT:    -6.770      3.158      6.146
REMARK INTER + INTRA:          -9.271
REMARK INTER:                  -8.706
REMARK INTRA:                  -0.565
REMARK UNBOUND:                -0.719
REMARK  Name = 
REMARK  5 active torsions:
REMARK  status: ('A' for Active; 'I' for Inactive)
REMARK    1  A    between atoms: C_2  and  C_4
REMARK    2  A    between atoms: C_7  and  N_8
REMARK    3  A    between atoms: N_8  and  C_9
REMARK    4  A    between atoms: C_9  and  C_10
REMARK    5  A    between atoms: C_14  and  O_15
REMARK                            x       y       z     vdW  Elec       q    Type
REMARK                         _______ _______ _______ _____ _____    ______ ____
ROOT
ATOM      1  C   UNL     1      47.251   5.683  13.556  0.00  0.00    +0.000 A 
ATOM      2  C   UNL     1      46.994   4.334  13.812  0.00  0.00    +0.000 A 
ATOM      3  C   UNL     1      45.988   3.667  13.106  0.00  0.00    +0.000 A 
ATOM      4  C   UNL     1      45.225   4.341  12.148  0.00  0.00    +0.000 A 
ATOM      5  C   UNL     1      45.565   5.661  11.828  0.00  0.00    +0.000 A 
ATOM      6  C   UNL     1      46.557   6.341  12.539  0.00  0.00    +0.000 A 
ENDROOT
BRANCH   1   8
ATOM      7  N   UNL     1      48.132   6.388  15.683  0.00  0.00    +0.000 NA
ATOM      8  C   UNL     1      48.239   6.415  14.395  0.00  0.00    +0.000 C 
ATOM      9  N   UNL     1      49.229   7.146  13.803  0.00  0.00    +0.000 N 
ATOM     10  H   UNL     1      48.897   6.915  16.104  0.00  0.00    +0.000 HD
ATOM     11  H   UNL     1      49.614   7.891  14.372  0.00  0.00    +0.000 HD
ATOM     12  H   UNL     1      49.019   7.475  12.865  0.00  0.00    +0.000 HD
ENDBRANCH   1   8
BRANCH   4  13
ATOM     13  N   UNL     1      44.175   3.757  11.441  0.00  0.00    +0.000 N 
ATOM     14  H   UNL     1      43.327   3.712  12.004  0.00  0.00    +0.000 HD
BRANCH  13  15
ATOM     15  C   UNL     1      43.903   4.229  10.087  0.00  0.00    +0.000 C 
BRANCH  15  16
ATOM     16  C   UNL     1      44.830   3.511   9.137  0.00  0.00    +0.000 A 
ATOM     17  C   UNL     1      45.043   2.128   9.275  0.00  0.00    +0.000 A 
ATOM     18  C   UNL     1      45.886   1.444   8.397  0.00  0.00    +0.000 A 
ATOM     19  C   UNL     1      46.526   2.136   7.370  0.00  0.00    +0.000 A 
ATOM     20  C   UNL     1      46.321   3.507   7.237  0.00  0.00    +0.000 A 
ATOM     21  C   UNL     1      45.491   4.199   8.113  0.00  0.00    +0.000 A 
BRANCH  20  22
ATOM     22  O   UNL     1      46.917   4.218   6.239  0.00  0.00    +0.000 OA
ATOM     23  H   UNL     1      47.247   5.053   6.611  0.00  0.00    +0.000 HD
ENDBRANCH  20  22
ENDBRANCH  15  16
ENDBRANCH  13  15
ENDBRANCH   4  13
TORSDOF 5
ENDMDL
MODEL 7
REMARK VINA RESULT:    -6.167      3.531      6.509
REMARK INTER + INTRA:          -8.509
REMARK INTER:                  -8.017
REMARK INTRA:                  -0.492
REMARK UNBOUND:                -0.719
REMARK  Name = 
REMARK  5 active torsions:
REMARK  status: ('A' for Active; 'I' for Inactive)
REMARK    1  A    between atoms: C_2  and  C_4
REMARK    2  A    between atoms: C_7  and  N_8
REMARK    3  A    between atoms: N_8  and  C_9
REMARK    4  A    between atoms: C_9  and  C_10
REMARK    5  A    between atoms: C_14  and  O_15
REMARK                            x       y       z     vdW  Elec       q    Type
REMARK                         _______ _______ _______ _____ _____    ______ ____
ROOT
ATOM      1  C   UNL     1      47.240   4.827  14.975  0.00  0.00    +0.000 A 
ATOM      2  C   UNL     1      46.351   3.970  14.322  0.00  0.00    +0.000 A 
ATOM      3  C   UNL     1      45.871   4.298  13.050  0.00  0.00    +0.000 A 
ATOM      4  C   UNL     1      46.264   5.484  12.424  0.00  0.00    +0.000 A 
ATOM      5  C   UNL     1      47.236   6.278  13.045  0.00  0.00    +0.000 A 
ATOM      6  C   UNL     1      47.709   5.969  14.323  0.00  0.00    +0.000 A 
ENDROOT
BRANCH   1   8
ATOM      7  N   UNL     1      48.545   5.267  16.950  0.00  0.00    +0.000 NA
ATOM      8  C   UNL     1      47.651   4.532  16.375  0.00  0.00    +0.000 C 
ATOM      9  N   UNL     1      47.112   3.463  17.033  0.00  0.00    +0.000 N 
ATOM     10  H   UNL     1      48.691   4.948  17.907  0.00  0.00    +0.000 HD
ATOM     11  H   UNL     1      47.674   3.098  17.794  0.00  0.00    +0.000 HD
ATOM     12  H   UNL     1      46.777   2.713  16.436  0.00  0.00    +0.000 HD
ENDBRANCH   1   8
BRANCH   4  13
ATOM     13  N   UNL     1      45.791   5.900  11.181  0.00  0.00    +0.000 N 
ATOM     14  H   UNL     1      46.549   5.992  10.506  0.00  0.00    +0.000 HD
BRANCH  13  15
ATOM     15  C   UNL     1      44.638   5.211  10.611  0.00  0.00    +0.000 C 
BRANCH  15  16
ATOM     16  C   UNL     1      45.133   4.222   9.585  0.00  0.00    +0.000 A 
ATOM     17  C   UNL     1      44.897   2.847   9.762  0.00  0.00    +0.000 A 
ATOM     18  C   UNL     1      45.336   1.919   8.817  0.00  0.00    +0.000 A 
ATOM     19  C   UNL     1      46.017   2.354   7.681  0.00  0.00    +0.000 A 
ATOM     20  C   UNL     1      46.258   3.715   7.509  0.00  0.00    +0.000 A 
ATOM     21  C   UNL     1      45.834   4.647   8.450  0.00  0.00    +0.000 A 
BRANCH  20  22
ATOM     22  O   UNL     1      46.909   4.184   6.406  0.00  0.00    +0.000 OA
ATOM     23  H   UNL     1      47.614   3.556   6.176  0.00  0.00    +0.000 HD
ENDBRANCH  20  22
ENDBRANCH  15  16
ENDBRANCH  13  15
ENDBRANCH   4  13
TORSDOF 5
ENDMDL
MODEL 8
REMARK VINA RESULT:    -5.803      5.232      8.134
REMARK INTER + INTRA:          -8.050
REMARK INTER:                  -7.661
REMARK INTRA:                  -0.389
REMARK UNBOUND:                -0.719
REMARK  Name = 
REMARK  5 active torsions:
REMARK  status: ('A' for Active; 'I' for Inactive)
REMARK    1  A    between atoms: C_2  and  C_4
REMARK    2  A    between atoms: C_7  and  N_8
REMARK    3  A    between atoms: N_8  and  C_9
REMARK    4  A    between atoms: C_9  and  C_10
REMARK    5  A    between atoms: C_14  and  O_15
REMARK                            x       y       z     vdW  Elec       q    Type
REMARK                         _______ _______ _______ _____ _____    ______ ____
ROOT
ATOM      1  C   UNL     1      48.530   4.349  18.405  0.00  0.00    +0.000 A 
ATOM      2  C   UNL     1      48.288   3.031  18.012  0.00  0.00    +0.000 A 
ATOM      3  C   UNL     1      47.787   2.764  16.733  0.00  0.00    +0.000 A 
ATOM      4  C   UNL     1      47.515   3.807  15.843  0.00  0.00    +0.000 A 
ATOM      5  C   UNL     1      47.862   5.112  16.214  0.00  0.00    +0.000 A 
ATOM      6  C   UNL     1      48.346   5.391  17.495  0.00  0.00    +0.000 A 
ENDROOT
BRANCH   1   8
ATOM      7  N   UNL     1      48.482   3.910  20.772  0.00  0.00    +0.000 NA
ATOM      8  C   UNL     1      48.946   4.633  19.806  0.00  0.00    +0.000 C 
ATOM      9  N   UNL     1      49.783   5.679  20.071  0.00  0.00    +0.000 N 
ATOM     10  H   UNL     1      48.884   4.218  21.657  0.00  0.00    +0.000 HD
ATOM     11  H   UNL     1      49.730   6.045  21.015  0.00  0.00    +0.000 HD
ATOM     12  H   UNL     1      49.764   6.430  19.387  0.00  0.00    +0.000 HD
ENDBRANCH   1   8
BRANCH   4  13
ATOM     13  N   UNL     1      46.971   3.622  14.573  0.00  0.00    +0.000 N 
ATOM     14  H   UNL     1      46.140   3.032  14.607  0.00  0.00    +0.000 HD
BRANCH  13  15
ATOM     15  C   UNL     1      46.770   4.794  13.727  0.00  0.00    +0.000 C 
BRANCH  15  16
ATOM     16  C   UNL     1      45.432   4.661  13.041  0.00  0.00    +0.000 A 
ATOM     17  C   UNL     1      44.584   5.778  12.934  0.00  0.00    +0.000 A 
ATOM     18  C   UNL     1      43.349   5.678  12.290  0.00  0.00    +0.000 A 
ATOM     19  C   UNL     1      42.948   4.460  11.746  0.00  0.00    +0.000 A 
ATOM     20  C   UNL     1      43.783   3.352  11.858  0.00  0.00    +0.000 A 
ATOM     21  C   UNL     1      45.011   3.439  12.506  0.00  0.00    +0.000 A 
BRANCH  20  22
ATOM     22  O   UNL     1      43.434   2.145  11.327  0.00  0.00    +0.000 OA
ATOM     23  H   UNL     1      43.168   1.557  12.053  0.00  0.00    +0.000 HD
ENDBRANCH  20  22
ENDBRANCH  15  16
ENDBRANCH  13  15
ENDBRANCH   4  13
TORSDOF 5
ENDMDL
MODEL 9
REMARK VINA RESULT:    -5.655      3.198      4.995
REMARK INTER + INTRA:          -7.862
REMARK INTER:                  -7.467
REMARK INTRA:                  -0.396
REMARK UNBOUND:                -0.719
REMARK  Name = 
REMARK  5 active torsions:
REMARK  status: ('A' for Active; 'I' for Inactive)
REMARK    1  A    between atoms: C_2  and  C_4
REMARK    2  A    between atoms: C_7  and  N_8
REMARK    3  A    between atoms: N_8  and  C_9
REMARK    4  A    between atoms: C_9  and  C_10
REMARK    5  A    between atoms: C_14  and  O_15
REMARK                            x       y       z     vdW  Elec       q    Type
REMARK                         _______ _______ _______ _____ _____    ______ ____
ROOT
ATOM      1  C   UNL     1      44.718   3.948  11.459  0.00  0.00    +0.000 A 
ATOM      2  C   UNL     1      44.680   5.159  10.763  0.00  0.00    +0.000 A 
ATOM      3  C   UNL     1      45.221   6.312  11.339  0.00  0.00    +0.000 A 
ATOM      4  C   UNL     1      45.795   6.271  12.613  0.00  0.00    +0.000 A 
ATOM      5  C   UNL     1      45.920   5.031  13.251  0.00  0.00    +0.000 A 
ATOM      6  C   UNL     1      45.367   3.876  12.693  0.00  0.00    +0.000 A 
ENDROOT
BRANCH   1   8
ATOM      7  N   UNL     1      43.000   2.260  11.497  0.00  0.00    +0.000 NA
ATOM      8  C   UNL     1      44.032   2.754  10.894  0.00  0.00    +0.000 C 
ATOM      9  N   UNL     1      44.518   2.159   9.764  0.00  0.00    +0.000 N 
ATOM     10  H   UNL     1      42.639   1.467  10.968  0.00  0.00    +0.000 HD
ATOM     11  H   UNL     1      44.264   1.185   9.647  0.00  0.00    +0.000 HD
ATOM     12  H   UNL     1      45.509   2.301   9.595  0.00  0.00    +0.000 HD
ENDBRANCH   1   8
BRANCH   4  13
ATOM     13  N   UNL     1      46.310   7.388  13.269  0.00  0.00    +0.000 N 
ATOM     14  H   UNL     1      47.223   7.191  13.678  0.00  0.00    +0.000 HD
BRANCH  13  15
ATOM     15  C   UNL     1      46.293   8.671  12.574  0.00  0.00    +0.000 C 
BRANCH  15  16
ATOM     16  C   UNL     1      47.696   8.982  12.114  0.00  0.00    +0.000 A 
ATOM     17  C   UNL     1      48.037  10.294  11.738  0.00  0.00    +0.000 A 
ATOM     18  C   UNL     1      49.334  10.603  11.323  0.00  0.00    +0.000 A 
ATOM     19  C   UNL     1      50.305   9.605  11.279  0.00  0.00    +0.000 A 
ATOM     20  C   UNL     1      49.965   8.304  11.643  0.00  0.00    +0.000 A 
ATOM     21  C   UNL     1      48.674   7.984  12.049  0.00  0.00    +0.000 A 
BRANCH  20  22
ATOM     22  O   UNL     1      50.889   7.301  11.627  0.00  0.00    +0.000 OA
ATOM     23  H   UNL     1      51.719   7.643  11.997  0.00  0.00    +0.000 HD
ENDBRANCH  20  22
ENDBRANCH  15  16
ENDBRANCH  13  15
ENDBRANCH   4  13
TORSDOF 5
ENDMDL
