MODEL 1
REMARK VINA RESULT:    -7.069      0.000      0.000
REMARK INTER + INTRA:         -10.208
REMARK INTER:                  -9.549
REMARK INTRA:                  -0.659
REMARK UNBOUND:                -0.659
REMARK  Name = 
REMARK  8 active torsions:
REMARK  status: ('A' for Active; 'I' for Inactive)
REMARK    1  A    between atoms: C_1  and  C_2
REMARK    2  A    between atoms: C_7  and  C_8
REMARK    3  A    between atoms: C_13  and  C_14
REMARK    4  A    between atoms: C_14  and  C_15
REMARK    5  A    between atoms: C_15  and  N_16
REMARK    6  A    between atoms: N_16  and  C_17
REMARK    7  A    between atoms: C_21  and  C_22
REMARK    8  A    between atoms: C_27  and  C_28
REMARK                            x       y       z     vdW  Elec       q    Type
REMARK                         _______ _______ _______ _____ _____    ______ ____
ROOT
ATOM      1  C   UNL     1      47.912   3.296  18.159  0.00  0.00    +0.000 C 
ATOM      2  C   UNL     1      48.296   4.588  18.871  0.00  0.00    +0.000 C 
ATOM      3  C   UNL     1      47.911   5.863  18.100  0.00  0.00    +0.000 C 
ATOM      4  N   UNL     1      48.916   6.249  17.118  0.00  0.00    +0.000 N 
ATOM      5  C   UNL     1      48.631   6.218  15.767  0.00  0.00    +0.000 A 
ATOM      6  C   UNL     1      49.286   7.123  14.938  0.00  0.00    +0.000 A 
ATOM      7  C   UNL     1      49.015   7.147  13.576  0.00  0.00    +0.000 A 
ATOM      8  C   UNL     1      48.070   6.263  13.075  0.00  0.00    +0.000 A 
ATOM      9  C   UNL     1      47.432   5.367  13.932  0.00  0.00    +0.000 A 
ATOM     10  N   UNL     1      47.713   5.353  15.264  0.00  0.00    +0.000 NA
ATOM     11  C   UNL     1      50.306   6.234  17.584  0.00  0.00    +0.000 C 
ATOM     12  C   UNL     1      50.642   4.922  18.317  0.00  0.00    +0.000 C 
ATOM     13  C   UNL     1      50.941   3.768  17.368  0.00  0.00    +0.000 C 
ATOM     14  O   UNL     1      49.665   4.575  19.312  0.00  0.00    +0.000 OA
ENDROOT
BRANCH   7  15
ATOM     15  C   UNL     1      49.747   8.065  12.641  0.00  0.00    +0.000 C 
ATOM     16  F   UNL     1      50.606   8.903  13.278  0.00  0.00    +0.000 F 
ATOM     17  F   UNL     1      50.494   7.375  11.735  0.00  0.00    +0.000 F 
ATOM     18  F   UNL     1      48.912   8.854  11.911  0.00  0.00    +0.000 F 
ENDBRANCH   7  15
BRANCH   9  19
ATOM     19  C   UNL     1      46.379   4.396  13.414  0.00  0.00    +0.000 C 
BRANCH  19  20
ATOM     20  C   UNL     1      44.970   4.993  13.274  0.00  0.00    +0.000 C 
BRANCH  20  21
ATOM     21  N   UNL     1      44.674   5.504  11.930  0.00  0.00    +0.000 N 
ATOM     22  H   UNL     1      45.296   6.266  11.656  0.00  0.00    +0.000 HD
BRANCH  21  23
ATOM     23  C   UNL     1      44.604   4.513  10.926  0.00  0.00    +0.000 A 
ATOM     24  C   UNL     1      43.923   3.308  11.134  0.00  0.00    +0.000 A 
ATOM     25  N   UNL     1      43.841   2.294  10.236  0.00  0.00    +0.000 NA
ATOM     26  C   UNL     1      44.507   2.460   9.072  0.00  0.00    +0.000 A 
ATOM     27  C   UNL     1      45.240   3.594   8.764  0.00  0.00    +0.000 A 
ATOM     28  C   UNL     1      45.295   4.618   9.712  0.00  0.00    +0.000 A 
BRANCH  27  29
ATOM     29  C   UNL     1      45.932   3.699   7.510  0.00  0.00    +0.000 C 
ATOM     30  N   UNL     1      46.487   3.778   6.505  0.00  0.00    +0.000 NA
ENDBRANCH  27  29
ENDBRANCH  21  23
ENDBRANCH  20  21
ENDBRANCH  19  20
ENDBRANCH   9  19
TORSDOF 6
ENDMDL
MODEL 2
REMARK VINA RESULT:    -7.031      3.286      4.389
REMARK INTER + INTRA:         -10.157
REMARK INTER:                  -9.752
REMARK INTRA:                  -0.405
REMARK UNBOUND:                -0.659
REMARK  Name = 
REMARK  8 active torsions:
REMARK  status: ('A' for Active; 'I' for Inactive)
REMARK    1  A    between atoms: C_1  and  C_2
REMARK    2  A    between atoms: C_7  and  C_8
REMARK    3  A    between atoms: C_13  and  C_14
REMARK    4  A    between atoms: C_14  and  C_15
REMARK    5  A    between atoms: C_15  and  N_16
REMARK    6  A    between atoms: N_16  and  C_17
REMARK    7  A    between atoms: C_21  and  C_22
REMARK    8  A    between atoms: C_27  and  C_28
REMARK                            x       y       z     vdW  Elec       q    Type
REMARK                         _______ _______ _______ _____ _____    ______ ____
ROOT
ATOM      1  C   UNL     1      48.710   9.729  14.146  0.00  0.00    +0.000 C 
ATOM      2  C   UNL     1      50.035   9.531  14.872  0.00  0.00    +0.000 C 
ATOM      3  C   UNL     1      50.490   8.063  14.953  0.00  0.00    +0.000 C 
ATOM      4  N   UNL     1      49.905   7.356  16.084  0.00  0.00    +0.000 N 
ATOM      5  C   UNL     1      49.021   6.313  15.882  0.00  0.00    +0.000 A 
ATOM      6  C   UNL     1      48.974   5.301  16.835  0.00  0.00    +0.000 A 
ATOM      7  C   UNL     1      48.120   4.219  16.665  0.00  0.00    +0.000 A 
ATOM      8  C   UNL     1      47.335   4.171  15.521  0.00  0.00    +0.000 A 
ATOM      9  C   UNL     1      47.404   5.202  14.586  0.00  0.00    +0.000 A 
ATOM     10  N   UNL     1      48.243   6.258  14.771  0.00  0.00    +0.000 NA
ATOM     11  C   UNL     1      49.941   8.059  17.369  0.00  0.00    +0.000 C 
ATOM     12  C   UNL     1      49.443   9.510  17.233  0.00  0.00    +0.000 C 
ATOM     13  C   UNL     1      47.924   9.620  17.210  0.00  0.00    +0.000 C 
ATOM     14  O   UNL     1      50.061  10.210  16.140  0.00  0.00    +0.000 OA
ENDROOT
BRANCH   7  15
ATOM     15  C   UNL     1      47.995   3.140  17.702  0.00  0.00    +0.000 C 
ATOM     16  F   UNL     1      46.760   2.577  17.741  0.00  0.00    +0.000 F 
ATOM     17  F   UNL     1      48.869   2.119  17.477  0.00  0.00    +0.000 F 
ATOM     18  F   UNL     1      48.256   3.582  18.962  0.00  0.00    +0.000 F 
ENDBRANCH   7  15
BRANCH   9  19
ATOM     19  C   UNL     1      46.567   5.168  13.313  0.00  0.00    +0.000 C 
BRANCH  19  20
ATOM     20  C   UNL     1      45.756   6.445  13.046  0.00  0.00    +0.000 C 
BRANCH  20  21
ATOM     21  N   UNL     1      44.392   6.191  12.568  0.00  0.00    +0.000 N 
ATOM     22  H   UNL     1      43.925   7.042  12.251  0.00  0.00    +0.000 HD
BRANCH  21  23
ATOM     23  C   UNL     1      44.286   5.160  11.609  0.00  0.00    +0.000 A 
ATOM     24  C   UNL     1      43.530   4.007  11.855  0.00  0.00    +0.000 A 
ATOM     25  N   UNL     1      43.409   2.959  11.002  0.00  0.00    +0.000 NA
ATOM     26  C   UNL     1      44.110   3.031   9.849  0.00  0.00    +0.000 A 
ATOM     27  C   UNL     1      44.916   4.104   9.508  0.00  0.00    +0.000 A 
ATOM     28  C   UNL     1      45.010   5.167  10.410  0.00  0.00    +0.000 A 
BRANCH  27  29
ATOM     29  C   UNL     1      45.641   4.109   8.269  0.00  0.00    +0.000 C 
ATOM     30  N   UNL     1      46.221   4.116   7.276  0.00  0.00    +0.000 NA
ENDBRANCH  27  29
ENDBRANCH  21  23
ENDBRANCH  20  21
ENDBRANCH  19  20
ENDBRANCH   9  19
TORSDOF 6
ENDMDL
MODEL 3
REMARK VINA RESULT:    -6.893      3.380      4.919
REMARK INTER + INTRA:          -9.970
REMARK INTER:                  -9.377
REMARK INTRA:                  -0.593
REMARK UNBOUND:                -0.659
REMARK  Name = 
REMARK  8 active torsions:
REMARK  status: ('A' for Active; 'I' for Inactive)
REMARK    1  A    between atoms: C_1  and  C_2
REMARK    2  A    between atoms: C_7  and  C_8
REMARK    3  A    between atoms: C_13  and  C_14
REMARK    4  A    between atoms: C_14  and  C_15
REMARK    5  A    between atoms: C_15  and  N_16
REMARK    6  A    between atoms: N_16  and  C_17
REMARK    7  A    between atoms: C_21  and  C_22
REMARK    8  A    between atoms: C_27  and  C_28
REMARK                            x       y       z     vdW  Elec       q    Type
REMARK                         _______ _______ _______ _____ _____    ______ ____
ROOT
ATOM      1  C   UNL     1      48.748  10.294  11.308  0.00  0.00    +0.000 C 
ATOM      2  C   UNL     1      50.130   9.830  11.752  0.00  0.00    +0.000 C 
ATOM      3  C   UNL     1      50.260   8.303  11.897  0.00  0.00    +0.000 C 
ATOM      4  N   UNL     1      49.816   7.824  13.199  0.00  0.00    +0.000 N 
ATOM      5  C   UNL     1      48.704   7.012  13.310  0.00  0.00    +0.000 A 
ATOM      6  C   UNL     1      48.662   6.099  14.359  0.00  0.00    +0.000 A 
ATOM      7  C   UNL     1      47.576   5.244  14.499  0.00  0.00    +0.000 A 
ATOM      8  C   UNL     1      46.554   5.316  13.562  0.00  0.00    +0.000 A 
ATOM      9  C   UNL     1      46.626   6.243  12.524  0.00  0.00    +0.000 A 
ATOM     10  N   UNL     1      47.694   7.078  12.404  0.00  0.00    +0.000 NA
ATOM     11  C   UNL     1      50.306   8.574  14.360  0.00  0.00    +0.000 C 
ATOM     12  C   UNL     1      50.119  10.091  14.171  0.00  0.00    +0.000 C 
ATOM     13  C   UNL     1      48.698  10.559  14.462  0.00  0.00    +0.000 C 
ATOM     14  O   UNL     1      50.600  10.558  12.900  0.00  0.00    +0.000 OA
ENDROOT
BRANCH   7  15
ATOM     15  C   UNL     1      47.465   4.289  15.652  0.00  0.00    +0.000 C 
ATOM     16  F   UNL     1      48.377   4.525  16.631  0.00  0.00    +0.000 F 
ATOM     17  F   UNL     1      46.243   4.356  16.249  0.00  0.00    +0.000 F 
ATOM     18  F   UNL     1      47.628   2.990  15.282  0.00  0.00    +0.000 F 
ENDBRANCH   7  15
BRANCH   9  19
ATOM     19  C   UNL     1      45.527   6.334  11.472  0.00  0.00    +0.000 C 
BRANCH  19  20
ATOM     20  C   UNL     1      45.939   5.853  10.072  0.00  0.00    +0.000 C 
BRANCH  20  21
ATOM     21  N   UNL     1      44.862   5.181   9.335  0.00  0.00    +0.000 N 
ATOM     22  H   UNL     1      44.494   5.753   8.575  0.00  0.00    +0.000 HD
BRANCH  21  23
ATOM     23  C   UNL     1      45.178   3.878   8.891  0.00  0.00    +0.000 A 
ATOM     24  C   UNL     1      44.556   2.749   9.436  0.00  0.00    +0.000 A 
ATOM     25  N   UNL     1      44.829   1.465   9.090  0.00  0.00    +0.000 NA
ATOM     26  C   UNL     1      45.809   1.279   8.177  0.00  0.00    +0.000 A 
ATOM     27  C   UNL     1      46.517   2.315   7.591  0.00  0.00    +0.000 A 
ATOM     28  C   UNL     1      46.201   3.622   7.969  0.00  0.00    +0.000 A 
BRANCH  27  29
ATOM     29  C   UNL     1      47.552   2.042   6.635  0.00  0.00    +0.000 C 
ATOM     30  N   UNL     1      48.382   1.828   5.868  0.00  0.00    +0.000 NA
ENDBRANCH  27  29
ENDBRANCH  21  23
ENDBRANCH  20  21
ENDBRANCH  19  20
ENDBRANCH   9  19
TORSDOF 6
ENDMDL
MODEL 4
REMARK VINA RESULT:    -6.822      3.243      7.566
REMARK INTER + INTRA:          -9.874
REMARK INTER:                  -8.928
REMARK INTRA:                  -0.946
REMARK UNBOUND:                -0.659
REMARK  Name = 
REMARK  8 active torsions:
REMARK  status: ('A' for Active; 'I' for Inactive)
REMARK    1  A    between atoms: C_1  and  C_2
REMARK    2  A    between atoms: C_7  and  C_8
REMARK    3  A    between atoms: C_13  and  C_14
REMARK    4  A    between atoms: C_14  and  C_15
REMARK    5  A    between atoms: C_15  and  N_16
REMARK    6  A    between atoms: N_16  and  C_17
REMARK    7  A    between atoms: C_21  and  C_22
REMARK    8  A    between atoms: C_27  and  C_28
REMARK                            x       y       z     vdW  Elec       q    Type
REMARK                         _______ _______ _______ _____ _____    ______ ____
ROOT
ATOM      1  C   UNL     1      45.461   3.116  12.301  0.00  0.00    +0.000 C 
ATOM      2  C   UNL     1      44.604   3.372  11.067  0.00  0.00    +0.000 C 
ATOM      3  C   UNL     1      45.036   4.604  10.251  0.00  0.00    +0.000 C 
ATOM      4  N   UNL     1      44.461   5.843  10.759  0.00  0.00    +0.000 N 
ATOM      5  C   UNL     1      45.267   6.824  11.304  0.00  0.00    +0.000 A 
ATOM      6  C   UNL     1      44.854   8.147  11.194  0.00  0.00    +0.000 A 
ATOM      7  C   UNL     1      45.641   9.171  11.704  0.00  0.00    +0.000 A 
ATOM      8  C   UNL     1      46.847   8.839  12.306  0.00  0.00    +0.000 A 
ATOM      9  C   UNL     1      47.232   7.503  12.402  0.00  0.00    +0.000 A 
ATOM     10  N   UNL     1      46.446   6.511  11.901  0.00  0.00    +0.000 NA
ATOM     11  C   UNL     1      43.028   5.807  11.063  0.00  0.00    +0.000 C 
ATOM     12  C   UNL     1      42.661   4.573  11.909  0.00  0.00    +0.000 C 
ATOM     13  C   UNL     1      42.976   4.747  13.389  0.00  0.00    +0.000 C 
ATOM     14  O   UNL     1      43.199   3.352  11.373  0.00  0.00    +0.000 OA
ENDROOT
BRANCH   7  15
ATOM     15  C   UNL     1      45.200  10.605  11.660  0.00  0.00    +0.000 C 
ATOM     16  F   UNL     1      45.150  11.111  10.401  0.00  0.00    +0.000 F 
ATOM     17  F   UNL     1      43.952  10.767  12.183  0.00  0.00    +0.000 F 
ATOM     18  F   UNL     1      46.012  11.432  12.374  0.00  0.00    +0.000 F 
ENDBRANCH   7  15
BRANCH   9  19
ATOM     19  C   UNL     1      48.558   7.109  13.042  0.00  0.00    +0.000 C 
BRANCH  19  20
ATOM     20  C   UNL     1      48.469   6.759  14.535  0.00  0.00    +0.000 C 
BRANCH  20  21
ATOM     21  N   UNL     1      47.407   5.798  14.857  0.00  0.00    +0.000 N 
ATOM     22  H   UNL     1      47.092   5.275  14.039  0.00  0.00    +0.000 HD
BRANCH  21  23
ATOM     23  C   UNL     1      47.701   4.935  15.936  0.00  0.00    +0.000 A 
ATOM     24  C   UNL     1      46.877   3.848  16.248  0.00  0.00    +0.000 A 
ATOM     25  N   UNL     1      47.070   2.997  17.287  0.00  0.00    +0.000 NA
ATOM     26  C   UNL     1      48.121   3.257  18.096  0.00  0.00    +0.000 A 
ATOM     27  C   UNL     1      48.989   4.320  17.908  0.00  0.00    +0.000 A 
ATOM     28  C   UNL     1      48.759   5.170  16.823  0.00  0.00    +0.000 A 
BRANCH  27  29
ATOM     29  C   UNL     1      50.080   4.542  18.814  0.00  0.00    +0.000 C 
ATOM     30  N   UNL     1      50.953   4.724  19.540  0.00  0.00    +0.000 NA
ENDBRANCH  27  29
ENDBRANCH  21  23
ENDBRANCH  20  21
ENDBRANCH  19  20
ENDBRANCH   9  19
TORSDOF 6
ENDMDL
MODEL 5
REMARK VINA RESULT:    -6.490      3.661      7.441
REMARK INTER + INTRA:          -9.425
REMARK INTER:                  -8.708
REMARK INTRA:                  -0.717
REMARK UNBOUND:                -0.659
REMARK  Name = 
REMARK  8 active torsions:
REMARK  status: ('A' for Active; 'I' for Inactive)
REMARK    1  A    between atoms: C_1  and  C_2
REMARK    2  A    between atoms: C_7  and  C_8
REMARK    3  A    between atoms: C_13  and  C_14
REMARK    4  A    between atoms: C_14  and  C_15
REMARK    5  A    between atoms: C_15  and  N_16
REMARK    6  A    between atoms: N_16  and  C_17
REMARK    7  A    between atoms: C_21  and  C_22
REMARK    8  A    between atoms: C_27  and  C_28
REMARK                            x       y       z     vdW  Elec       q    Type
REMARK                         _______ _______ _______ _____ _____    ______ ____
ROOT
ATOM      1  C   UNL     1      50.004   7.705  14.579  0.00  0.00    +0.000 C 
ATOM      2  C   UNL     1      49.125   8.903  14.239  0.00  0.00    +0.000 C 
ATOM      3  C   UNL     1      47.618   8.588  14.226  0.00  0.00    +0.000 C 
ATOM      4  N   UNL     1      47.168   8.050  12.949  0.00  0.00    +0.000 N 
ATOM      5  C   UNL     1      46.701   6.753  12.856  0.00  0.00    +0.000 A 
ATOM      6  C   UNL     1      45.746   6.469  11.886  0.00  0.00    +0.000 A 
ATOM      7  C   UNL     1      45.228   5.186  11.769  0.00  0.00    +0.000 A 
ATOM      8  C   UNL     1      45.675   4.210  12.649  0.00  0.00    +0.000 A 
ATOM      9  C   UNL     1      46.635   4.527  13.608  0.00  0.00    +0.000 A 
ATOM     10  N   UNL     1      47.137   5.788  13.707  0.00  0.00    +0.000 NA
ATOM     11  C   UNL     1      47.636   8.758  11.754  0.00  0.00    +0.000 C 
ATOM     12  C   UNL     1      49.154   9.014  11.807  0.00  0.00    +0.000 C 
ATOM     13  C   UNL     1      49.979   7.795  11.415  0.00  0.00    +0.000 C 
ATOM     14  O   UNL     1      49.578   9.585  13.056  0.00  0.00    +0.000 OA
ENDROOT
BRANCH   7  15
ATOM     15  C   UNL     1      44.242   4.827  10.694  0.00  0.00    +0.000 C 
ATOM     16  F   UNL     1      43.167   5.656  10.657  0.00  0.00    +0.000 F 
ATOM     17  F   UNL     1      44.803   4.878   9.454  0.00  0.00    +0.000 F 
ATOM     18  F   UNL     1      43.749   3.565  10.828  0.00  0.00    +0.000 F 
ENDBRANCH   7  15
BRANCH   9  19
ATOM     19  C   UNL     1      47.133   3.481  14.598  0.00  0.00    +0.000 C 
BRANCH  19  20
ATOM     20  C   UNL     1      47.193   3.957  16.057  0.00  0.00    +0.000 C 
BRANCH  20  21
ATOM     21  N   UNL     1      47.785   2.978  16.977  0.00  0.00    +0.000 N 
ATOM     22  H   UNL     1      47.623   2.015  16.679  0.00  0.00    +0.000 HD
BRANCH  21  23
ATOM     23  C   UNL     1      49.148   3.200  17.275  0.00  0.00    +0.000 A 
ATOM     24  C   UNL     1      49.653   4.491  17.467  0.00  0.00    +0.000 A 
ATOM     25  N   UNL     1      50.952   4.791  17.720  0.00  0.00    +0.000 NA
ATOM     26  C   UNL     1      51.819   3.754  17.745  0.00  0.00    +0.000 A 
ATOM     27  C   UNL     1      51.444   2.437  17.539  0.00  0.00    +0.000 A 
ATOM     28  C   UNL     1      50.096   2.170  17.288  0.00  0.00    +0.000 A 
BRANCH  27  29
ATOM     29  C   UNL     1      52.421   1.386  17.571  0.00  0.00    +0.000 C 
ATOM     30  N   UNL     1      53.206   0.545  17.600  0.00  0.00    +0.000 NA
ENDBRANCH  27  29
ENDBRANCH  21  23
ENDBRANCH  20  21
ENDBRANCH  19  20
ENDBRANCH   9  19
TORSDOF 6
ENDMDL
MODEL 6
REMARK VINA RESULT:    -6.420      1.903      2.645
REMARK INTER + INTRA:          -9.331
REMARK INTER:                  -8.399
REMARK INTRA:                  -0.932
REMARK UNBOUND:                -0.659
REMARK  Name = 
REMARK  8 active torsions:
REMARK  status: ('A' for Active; 'I' for Inactive)
REMARK    1  A    between atoms: C_1  and  C_2
REMARK    2  A    between atoms: C_7  and  C_8
REMARK    3  A    between atoms: C_13  and  C_14
REMARK    4  A    between atoms: C_14  and  C_15
REMARK    5  A    between atoms: C_15  and  N_16
REMARK    6  A    between atoms: N_16  and  C_17
REMARK    7  A    between atoms: C_21  and  C_22
REMARK    8  A    between atoms: C_27  and  C_28
REMARK                            x       y       z     vdW  Elec       q    Type
REMARK                         _______ _______ _______ _____ _____    ______ ____
ROOT
ATOM      1  C   UNL     1      48.213   2.662  16.056  0.00  0.00    +0.000 C 
ATOM      2  C   UNL     1      47.715   3.168  17.404  0.00  0.00    +0.000 C 
ATOM      3  C   UNL     1      47.243   4.633  17.386  0.00  0.00    +0.000 C 
ATOM      4  N   UNL     1      48.337   5.577  17.573  0.00  0.00    +0.000 N 
ATOM      5  C   UNL     1      48.703   6.442  16.560  0.00  0.00    +0.000 A 
ATOM      6  C   UNL     1      49.245   7.673  16.914  0.00  0.00    +0.000 A 
ATOM      7  C   UNL     1      49.607   8.586  15.931  0.00  0.00    +0.000 A 
ATOM      8  C   UNL     1      49.398   8.244  14.603  0.00  0.00    +0.000 A 
ATOM      9  C   UNL     1      48.854   7.002  14.281  0.00  0.00    +0.000 A 
ATOM     10  N   UNL     1      48.510   6.115  15.256  0.00  0.00    +0.000 NA
ATOM     11  C   UNL     1      49.271   5.269  18.660  0.00  0.00    +0.000 C 
ATOM     12  C   UNL     1      49.735   3.801  18.606  0.00  0.00    +0.000 C 
ATOM     13  C   UNL     1      50.837   3.560  17.583  0.00  0.00    +0.000 C 
ATOM     14  O   UNL     1      48.642   2.878  18.465  0.00  0.00    +0.000 OA
ENDROOT
BRANCH   7  15
ATOM     15  C   UNL     1      50.253   9.899  16.271  0.00  0.00    +0.000 C 
ATOM     16  F   UNL     1      51.532   9.767  16.708  0.00  0.00    +0.000 F 
ATOM     17  F   UNL     1      50.304  10.731  15.195  0.00  0.00    +0.000 F 
ATOM     18  F   UNL     1      49.584  10.583  17.240  0.00  0.00    +0.000 F 
ENDBRANCH   7  15
BRANCH   9  19
ATOM     19  C   UNL     1      48.598   6.605  12.832  0.00  0.00    +0.000 C 
BRANCH  19  20
ATOM     20  C   UNL     1      47.176   6.895  12.330  0.00  0.00    +0.000 C 
BRANCH  20  21
ATOM     21  N   UNL     1      46.120   6.332  13.181  0.00  0.00    +0.000 N 
ATOM     22  H   UNL     1      45.633   7.047  13.722  0.00  0.00    +0.000 HD
BRANCH  21  23
ATOM     23  C   UNL     1      45.210   5.488  12.508  0.00  0.00    +0.000 A 
ATOM     24  C   UNL     1      44.197   4.809  13.195  0.00  0.00    +0.000 A 
ATOM     25  N   UNL     1      43.308   3.955  12.628  0.00  0.00    +0.000 NA
ATOM     26  C   UNL     1      43.452   3.721  11.304  0.00  0.00    +0.000 A 
ATOM     27  C   UNL     1      44.433   4.310  10.525  0.00  0.00    +0.000 A 
ATOM     28  C   UNL     1      45.325   5.188  11.144  0.00  0.00    +0.000 A 
BRANCH  27  29
ATOM     29  C   UNL     1      44.533   4.008   9.125  0.00  0.00    +0.000 C 
ATOM     30  N   UNL     1      44.616   3.765   8.003  0.00  0.00    +0.000 NA
ENDBRANCH  27  29
ENDBRANCH  21  23
ENDBRANCH  20  21
ENDBRANCH  19  20
ENDBRANCH   9  19
TORSDOF 6
ENDMDL
MODEL 7
REMARK VINA RESULT:    -6.261      3.406      4.575
REMARK INTER + INTRA:          -9.116
REMARK INTER:                  -8.617
REMARK INTRA:                  -0.499
REMARK UNBOUND:                -0.659
REMARK  Name = 
REMARK  8 active torsions:
REMARK  status: ('A' for Active; 'I' for Inactive)
REMARK    1  A    between atoms: C_1  and  C_2
REMARK    2  A    between atoms: C_7  and  C_8
REMARK    3  A    between atoms: C_13  and  C_14
REMARK    4  A    between atoms: C_14  and  C_15
REMARK    5  A    between atoms: C_15  and  N_16
REMARK    6  A    between atoms: N_16  and  C_17
REMARK    7  A    between atoms: C_21  and  C_22
REMARK    8  A    between atoms: C_27  and  C_28
REMARK                            x       y       z     vdW  Elec       q    Type
REMARK                         _______ _______ _______ _____ _____    ______ ____
ROOT
ATOM      1  C   UNL     1      49.146  10.642  17.647  0.00  0.00    +0.000 C 
ATOM      2  C   UNL     1      50.028  10.080  18.755  0.00  0.00    +0.000 C 
ATOM      3  C   UNL     1      50.634   8.701  18.433  0.00  0.00    +0.000 C 
ATOM      4  N   UNL     1      49.734   7.603  18.760  0.00  0.00    +0.000 N 
ATOM      5  C   UNL     1      49.212   6.799  17.765  0.00  0.00    +0.000 A 
ATOM      6  C   UNL     1      48.915   5.477  18.080  0.00  0.00    +0.000 A 
ATOM      7  C   UNL     1      48.411   4.623  17.108  0.00  0.00    +0.000 A 
ATOM      8  C   UNL     1      48.229   5.118  15.824  0.00  0.00    +0.000 A 
ATOM      9  C   UNL     1      48.534   6.448  15.542  0.00  0.00    +0.000 A 
ATOM     10  N   UNL     1      49.022   7.274  16.507  0.00  0.00    +0.000 NA
ATOM     11  C   UNL     1      49.086   7.674  20.074  0.00  0.00    +0.000 C 
ATOM     12  C   UNL     1      48.470   9.064  20.325  0.00  0.00    +0.000 C 
ATOM     13  C   UNL     1      47.121   9.251  19.644  0.00  0.00    +0.000 C 
ATOM     14  O   UNL     1      49.383  10.137  20.039  0.00  0.00    +0.000 OA
ENDROOT
BRANCH   7  15
ATOM     15  C   UNL     1      48.020   3.208  17.425  0.00  0.00    +0.000 C 
ATOM     16  F   UNL     1      46.676   3.031  17.508  0.00  0.00    +0.000 F 
ATOM     17  F   UNL     1      48.459   2.337  16.474  0.00  0.00    +0.000 F 
ATOM     18  F   UNL     1      48.539   2.766  18.603  0.00  0.00    +0.000 F 
ENDBRANCH   7  15
BRANCH   9  19
ATOM     19  C   UNL     1      48.360   7.015  14.138  0.00  0.00    +0.000 C 
BRANCH  19  20
ATOM     20  C   UNL     1      47.456   6.181  13.218  0.00  0.00    +0.000 C 
BRANCH  20  21
ATOM     21  N   UNL     1      46.036   6.218  13.590  0.00  0.00    +0.000 N 
ATOM     22  H   UNL     1      45.745   7.136  13.928  0.00  0.00    +0.000 HD
BRANCH  21  23
ATOM     23  C   UNL     1      45.155   5.732  12.599  0.00  0.00    +0.000 A 
ATOM     24  C   UNL     1      43.800   5.511  12.870  0.00  0.00    +0.000 A 
ATOM     25  N   UNL     1      42.900   5.013  11.985  0.00  0.00    +0.000 NA
ATOM     26  C   UNL     1      43.373   4.673  10.765  0.00  0.00    +0.000 A 
ATOM     27  C   UNL     1      44.698   4.816  10.390  0.00  0.00    +0.000 A 
ATOM     28  C   UNL     1      45.593   5.338  11.328  0.00  0.00    +0.000 A 
BRANCH  27  29
ATOM     29  C   UNL     1      45.133   4.424   9.080  0.00  0.00    +0.000 C 
ATOM     30  N   UNL     1      45.478   4.109   8.028  0.00  0.00    +0.000 NA
ENDBRANCH  27  29
ENDBRANCH  21  23
ENDBRANCH  20  21
ENDBRANCH  19  20
ENDBRANCH   9  19
TORSDOF 6
ENDMDL
MODEL 8
REMARK VINA RESULT:    -6.176      3.270      8.045
REMARK INTER + INTRA:          -9.001
REMARK INTER:                  -8.453
REMARK INTRA:                  -0.548
REMARK UNBOUND:                -0.659
REMARK  Name = 
REMARK  8 active torsions:
REMARK  status: ('A' for Active; 'I' for Inactive)
REMARK    1  A    between atoms: C_1  and  C_2
REMARK    2  A    between atoms: C_7  and  C_8
REMARK    3  A    between atoms: C_13  and  C_14
REMARK    4  A    between atoms: C_14  and  C_15
REMARK    5  A    between atoms: C_15  and  N_16
REMARK    6  A    between atoms: N_16  and  C_17
REMARK    7  A    between atoms: C_21  and  C_22
REMARK    8  A    between atoms: C_27  and  C_28
REMARK                            x       y       z     vdW  Elec       q    Type
REMARK                         _______ _______ _______ _____ _____    ______ ____
ROOT
ATOM      1  C   UNL     1      43.406   2.684  12.754  0.00  0.00    +0.000 C 
ATOM      2  C   UNL     1      43.886   3.037  11.351  0.00  0.00    +0.000 C 
ATOM      3  C   UNL     1      45.385   3.380  11.272  0.00  0.00    +0.000 C 
ATOM      4  N   UNL     1      45.657   4.777  11.585  0.00  0.00    +0.000 N 
ATOM      5  C   UNL     1      46.381   5.119  12.711  0.00  0.00    +0.000 A 
ATOM      6  C   UNL     1      47.140   6.283  12.672  0.00  0.00    +0.000 A 
ATOM      7  C   UNL     1      47.903   6.657  13.771  0.00  0.00    +0.000 A 
ATOM      8  C   UNL     1      47.898   5.835  14.889  0.00  0.00    +0.000 A 
ATOM      9  C   UNL     1      47.125   4.676  14.897  0.00  0.00    +0.000 A 
ATOM     10  N   UNL     1      46.377   4.326  13.814  0.00  0.00    +0.000 NA
ATOM     11  C   UNL     1      44.788   5.761  10.933  0.00  0.00    +0.000 C 
ATOM     12  C   UNL     1      43.302   5.383  11.074  0.00  0.00    +0.000 C 
ATOM     13  C   UNL     1      42.717   5.757  12.431  0.00  0.00    +0.000 C 
ATOM     14  O   UNL     1      43.040   4.015  10.722  0.00  0.00    +0.000 OA
ENDROOT
BRANCH   7  15
ATOM     15  C   UNL     1      48.686   7.938  13.790  0.00  0.00    +0.000 C 
ATOM     16  F   UNL     1      48.407   8.751  12.739  0.00  0.00    +0.000 F 
ATOM     17  F   UNL     1      48.434   8.669  14.912  0.00  0.00    +0.000 F 
ATOM     18  F   UNL     1      50.032   7.737  13.773  0.00  0.00    +0.000 F 
ENDBRANCH   7  15
BRANCH   9  19
ATOM     19  C   UNL     1      47.112   3.746  16.104  0.00  0.00    +0.000 C 
BRANCH  19  20
ATOM     20  C   UNL     1      48.406   3.751  16.931  0.00  0.00    +0.000 C 
BRANCH  20  21
ATOM     21  N   UNL     1      49.105   2.460  16.946  0.00  0.00    +0.000 N 
ATOM     22  H   UNL     1      49.035   1.968  16.055  0.00  0.00    +0.000 HD
BRANCH  21  23
ATOM     23  C   UNL     1      50.443   2.521  17.396  0.00  0.00    +0.000 A 
ATOM     24  C   UNL     1      51.033   3.732  17.774  0.00  0.00    +0.000 A 
ATOM     25  N   UNL     1      52.319   3.879  18.180  0.00  0.00    +0.000 NA
ATOM     26  C   UNL     1      53.087   2.767  18.176  0.00  0.00    +0.000 A 
ATOM     27  C   UNL     1      52.625   1.518  17.794  0.00  0.00    +0.000 A 
ATOM     28  C   UNL     1      51.294   1.408  17.387  0.00  0.00    +0.000 A 
BRANCH  27  29
ATOM     29  C   UNL     1      53.501   0.381  17.804  0.00  0.00    +0.000 C 
ATOM     30  N   UNL     1      54.203  -0.530  17.816  0.00  0.00    +0.000 NA
ENDBRANCH  27  29
ENDBRANCH  21  23
ENDBRANCH  20  21
ENDBRANCH  19  20
ENDBRANCH   9  19
TORSDOF 6
ENDMDL
MODEL 9
REMARK VINA RESULT:    -5.997      3.356      4.558
REMARK INTER + INTRA:          -8.759
REMARK INTER:                  -8.202
REMARK INTRA:                  -0.558
REMARK UNBOUND:                -0.659
REMARK  Name = 
REMARK  8 active torsions:
REMARK  status: ('A' for Active; 'I' for Inactive)
REMARK    1  A    between atoms: C_1  and  C_2
REMARK    2  A    between atoms: C_7  and  C_8
REMARK    3  A    between atoms: C_13  and  C_14
REMARK    4  A    between atoms: C_14  and  C_15
REMARK    5  A    between atoms: C_15  and  N_16
REMARK    6  A    between atoms: N_16  and  C_17
REMARK    7  A    between atoms: C_21  and  C_22
REMARK    8  A    between atoms: C_27  and  C_28
REMARK                            x       y       z     vdW  Elec       q    Type
REMARK                         _______ _______ _______ _____ _____    ______ ____
ROOT
ATOM      1  C   UNL     1      52.152   9.419  16.629  0.00  0.00    +0.000 C 
ATOM      2  C   UNL     1      53.162   8.361  17.057  0.00  0.00    +0.000 C 
ATOM      3  C   UNL     1      52.845   6.948  16.537  0.00  0.00    +0.000 C 
ATOM      4  N   UNL     1      51.913   6.230  17.396  0.00  0.00    +0.000 N 
ATOM      5  C   UNL     1      50.652   5.893  16.943  0.00  0.00    +0.000 A 
ATOM      6  C   UNL     1      50.056   4.747  17.459  0.00  0.00    +0.000 A 
ATOM      7  C   UNL     1      48.799   4.353  17.017  0.00  0.00    +0.000 A 
ATOM      8  C   UNL     1      48.171   5.120  16.045  0.00  0.00    +0.000 A 
ATOM      9  C   UNL     1      48.794   6.264  15.551  0.00  0.00    +0.000 A 
ATOM     10  N   UNL     1      50.024   6.639  15.998  0.00  0.00    +0.000 NA
ATOM     11  C   UNL     1      52.195   6.283  18.834  0.00  0.00    +0.000 C 
ATOM     12  C   UNL     1      52.471   7.724  19.302  0.00  0.00    +0.000 C 
ATOM     13  C   UNL     1      51.200   8.536  19.516  0.00  0.00    +0.000 C 
ATOM     14  O   UNL     1      53.424   8.406  18.471  0.00  0.00    +0.000 OA
ENDROOT
BRANCH   7  15
ATOM     15  C   UNL     1      48.097   3.158  17.594  0.00  0.00    +0.000 C 
ATOM     16  F   UNL     1      48.335   2.988  18.920  0.00  0.00    +0.000 F 
ATOM     17  F   UNL     1      46.744   3.253  17.462  0.00  0.00    +0.000 F 
ATOM     18  F   UNL     1      48.449   1.992  16.988  0.00  0.00    +0.000 F 
ENDBRANCH   7  15
BRANCH   9  19
ATOM     19  C   UNL     1      48.136   7.116  14.472  0.00  0.00    +0.000 C 
BRANCH  19  20
ATOM     20  C   UNL     1      47.301   6.326  13.453  0.00  0.00    +0.000 C 
BRANCH  20  21
ATOM     21  N   UNL     1      45.945   6.855  13.261  0.00  0.00    +0.000 N 
ATOM     22  H   UNL     1      45.946   7.828  12.950  0.00  0.00    +0.000 HD
BRANCH  21  23
ATOM     23  C   UNL     1      45.112   6.057  12.446  0.00  0.00    +0.000 A 
ATOM     24  C   UNL     1      43.913   5.522  12.929  0.00  0.00    +0.000 A 
ATOM     25  N   UNL     1      43.078   4.718  12.224  0.00  0.00    +0.000 NA
ATOM     26  C   UNL     1      43.469   4.386  10.974  0.00  0.00    +0.000 A 
ATOM     27  C   UNL     1      44.649   4.827  10.397  0.00  0.00    +0.000 A 
ATOM     28  C   UNL     1      45.478   5.658  11.154  0.00  0.00    +0.000 A 
BRANCH  27  29
ATOM     29  C   UNL     1      45.006   4.425   9.066  0.00  0.00    +0.000 C 
ATOM     30  N   UNL     1      45.289   4.102   7.999  0.00  0.00    +0.000 NA
ENDBRANCH  27  29
ENDBRANCH  21  23
ENDBRANCH  20  21
ENDBRANCH  19  20
ENDBRANCH   9  19
TORSDOF 6
ENDMDL
