MODEL 1
REMARK VINA RESULT:    -7.118      0.000      0.000
REMARK INTER + INTRA:         -10.872
REMARK INTER:                 -10.030
REMARK INTRA:                  -0.842
REMARK UNBOUND:                -0.842
REMARK  Name = 
REMARK  8 active torsions:
REMARK  status: ('A' for Active; 'I' for Inactive)
REMARK    1  A    between atoms: C_1  and  C_2
REMARK    2  A    between atoms: C_2  and  O_3
REMARK    3  A    between atoms: O_3  and  C_4
REMARK    4  A    between atoms: C_7  and  C_8
REMARK    5  A    between atoms: C_8  and  O_9
REMARK    6  A    between atoms: O_9  and  C_10
REMARK    7  A    between atoms: C_13  and  C_14
REMARK    8  A    between atoms: C_18  and  N_19
REMARK                            x       y       z     vdW  Elec       q    Type
REMARK                         _______ _______ _______ _____ _____    ______ ____
ROOT
ATOM      1  C   UNL     1      45.342   6.301  12.953  0.00  0.00    +0.000 A 
ATOM      2  N   UNL     1      45.402   7.514  12.348  0.00  0.00    +0.000 NA
ATOM      3  C   UNL     1      46.626   8.022  12.064  0.00  0.00    +0.000 A 
ATOM      4  C   UNL     1      47.823   7.385  12.363  0.00  0.00    +0.000 A 
ATOM      5  C   UNL     1      47.749   6.146  13.006  0.00  0.00    +0.000 A 
ATOM      6  C   UNL     1      46.490   5.607  13.291  0.00  0.00    +0.000 A 
ENDROOT
BRANCH   4   7
ATOM      7  C   UNL     1      49.149   7.949  12.022  0.00  0.00    +0.000 C 
ATOM      8  N   UNL     1      50.262   7.167  12.146  0.00  0.00    +0.000 N 
ATOM      9  O   UNL     1      49.251   9.110  11.644  0.00  0.00    +0.000 OA
ATOM     10  H   UNL     1      50.303   6.217  12.479  0.00  0.00    +0.000 HD
ATOM     11  H   UNL     1      51.147   7.608  11.921  0.00  0.00    +0.000 HD
ENDBRANCH   4   7
BRANCH   6  12
ATOM     12  N   UNL     1      46.407   4.315  13.919  0.00  0.00    +0.000 N 
ATOM     13  O   UNL     1      46.272   3.331  13.180  0.00  0.00    +0.000 OA
ATOM     14  O   UNL     1      46.544   4.282  15.149  0.00  0.00    +0.000 OA
ENDBRANCH   6  12
BRANCH   1  15
ATOM     15  O   UNL     1      44.097   5.791  13.250  0.00  0.00    +0.000 OA
BRANCH  15  16
ATOM     16  C   UNL     1      43.266   5.679  12.091  0.00  0.00    +0.000 C 
BRANCH  16  20
ATOM     17  C   UNL     1      44.569   2.501   9.610  0.00  0.00    +0.000 A 
ATOM     18  C   UNL     1      45.035   3.773   9.319  0.00  0.00    +0.000 A 
ATOM     19  C   UNL     1      44.640   4.824  10.144  0.00  0.00    +0.000 A 
ATOM     20  C   UNL     1      43.767   4.576  11.206  0.00  0.00    +0.000 A 
ATOM     21  C   UNL     1      43.355   3.264  11.407  0.00  0.00    +0.000 A 
ATOM     22  N   UNL     1      43.733   2.225  10.631  0.00  0.00    +0.000 NA
BRANCH  17  23
ATOM     23  O   UNL     1      44.954   1.487   8.757  0.00  0.00    +0.000 OA
BRANCH  23  25
ATOM     24  C   UNL     1      46.807   0.465   7.645  0.00  0.00    +0.000 C 
ATOM     25  C   UNL     1      46.197   1.773   8.113  0.00  0.00    +0.000 C 
ENDBRANCH  23  25
ENDBRANCH  17  23
ENDBRANCH  16  20
ENDBRANCH  15  16
ENDBRANCH   1  15
TORSDOF 7
ENDMDL
MODEL 2
REMARK VINA RESULT:    -7.027      2.324      5.964
REMARK INTER + INTRA:         -10.745
REMARK INTER:                 -10.112
REMARK INTRA:                  -0.633
REMARK UNBOUND:                -0.842
REMARK  Name = 
REMARK  8 active torsions:
REMARK  status: ('A' for Active; 'I' for Inactive)
REMARK    1  A    between atoms: C_1  and  C_2
REMARK    2  A    between atoms: C_2  and  O_3
REMARK    3  A    between atoms: O_3  and  C_4
REMARK    4  A    between atoms: C_7  and  C_8
REMARK    5  A    between atoms: C_8  and  O_9
REMARK    6  A    between atoms: O_9  and  C_10
REMARK    7  A    between atoms: C_13  and  C_14
REMARK    8  A    between atoms: C_18  and  N_19
REMARK                            x       y       z     vdW  Elec       q    Type
REMARK                         _______ _______ _______ _____ _____    ______ ____
ROOT
ATOM      1  C   UNL     1      44.759   4.491   9.883  0.00  0.00    +0.000 A 
ATOM      2  N   UNL     1      45.407   4.871   8.753  0.00  0.00    +0.000 NA
ATOM      3  C   UNL     1      45.995   3.907   8.004  0.00  0.00    +0.000 A 
ATOM      4  C   UNL     1      45.987   2.556   8.326  0.00  0.00    +0.000 A 
ATOM      5  C   UNL     1      45.335   2.179   9.504  0.00  0.00    +0.000 A 
ATOM      6  C   UNL     1      44.714   3.165  10.277  0.00  0.00    +0.000 A 
ENDROOT
BRANCH   4   7
ATOM      7  C   UNL     1      46.617   1.517   7.479  0.00  0.00    +0.000 C 
ATOM      8  N   UNL     1      47.123   1.864   6.258  0.00  0.00    +0.000 N 
ATOM      9  O   UNL     1      46.673   0.355   7.860  0.00  0.00    +0.000 OA
ATOM     10  H   UNL     1      47.100   2.775   5.828  0.00  0.00    +0.000 HD
ATOM     11  H   UNL     1      47.523   1.111   5.708  0.00  0.00    +0.000 HD
ENDBRANCH   4   7
BRANCH   6  12
ATOM     12  N   UNL     1      44.009   2.779  11.470  0.00  0.00    +0.000 N 
ATOM     13  O   UNL     1      42.797   2.549  11.367  0.00  0.00    +0.000 OA
ATOM     14  O   UNL     1      44.686   2.642  12.498  0.00  0.00    +0.000 OA
ENDBRANCH   6  12
BRANCH   1  15
ATOM     15  O   UNL     1      44.171   5.474  10.649  0.00  0.00    +0.000 OA
BRANCH  15  16
ATOM     16  C   UNL     1      45.071   6.548  10.937  0.00  0.00    +0.000 C 
BRANCH  16  20
ATOM     17  C   UNL     1      47.423   5.442  14.284  0.00  0.00    +0.000 A 
ATOM     18  C   UNL     1      48.050   6.136  13.262  0.00  0.00    +0.000 A 
ATOM     19  C   UNL     1      47.283   6.533  12.169  0.00  0.00    +0.000 A 
ATOM     20  C   UNL     1      45.929   6.194  12.116  0.00  0.00    +0.000 A 
ATOM     21  C   UNL     1      45.401   5.490  13.192  0.00  0.00    +0.000 A 
ATOM     22  N   UNL     1      46.118   5.104  14.269  0.00  0.00    +0.000 NA
BRANCH  17  23
ATOM     23  O   UNL     1      48.216   5.036  15.338  0.00  0.00    +0.000 OA
BRANCH  23  25
ATOM     24  C   UNL     1      48.151   3.031  16.638  0.00  0.00    +0.000 C 
ATOM     25  C   UNL     1      47.463   4.350  16.340  0.00  0.00    +0.000 C 
ENDBRANCH  23  25
ENDBRANCH  17  23
ENDBRANCH  16  20
ENDBRANCH  15  16
ENDBRANCH   1  15
TORSDOF 7
ENDMDL
MODEL 3
REMARK VINA RESULT:    -6.847      1.483      1.822
REMARK INTER + INTRA:         -10.491
REMARK INTER:                 -10.001
REMARK INTRA:                  -0.490
REMARK UNBOUND:                -0.842
REMARK  Name = 
REMARK  8 active torsions:
REMARK  status: ('A' for Active; 'I' for Inactive)
REMARK    1  A    between atoms: C_1  and  C_2
REMARK    2  A    between atoms: C_2  and  O_3
REMARK    3  A    between atoms: O_3  and  C_4
REMARK    4  A    between atoms: C_7  and  C_8
REMARK    5  A    between atoms: C_8  and  O_9
REMARK    6  A    between atoms: O_9  and  C_10
REMARK    7  A    between atoms: C_13  and  C_14
REMARK    8  A    between atoms: C_18  and  N_19
REMARK                            x       y       z     vdW  Elec       q    Type
REMARK                         _______ _______ _______ _____ _____    ______ ____
ROOT
ATOM      1  C   UNL     1      44.864   5.715  12.364  0.00  0.00    +0.000 A 
ATOM      2  N   UNL     1      44.675   6.950  11.833  0.00  0.00    +0.000 NA
ATOM      3  C   UNL     1      45.635   7.884  12.040  0.00  0.00    +0.000 A 
ATOM      4  C   UNL     1      46.795   7.662  12.770  0.00  0.00    +0.000 A 
ATOM      5  C   UNL     1      46.969   6.393  13.330  0.00  0.00    +0.000 A 
ATOM      6  C   UNL     1      45.990   5.418  13.112  0.00  0.00    +0.000 A 
ENDROOT
BRANCH   4   7
ATOM      7  C   UNL     1      47.841   8.691  12.962  0.00  0.00    +0.000 C 
ATOM      8  N   UNL     1      47.659   9.666  13.902  0.00  0.00    +0.000 N 
ATOM      9  O   UNL     1      48.857   8.680  12.278  0.00  0.00    +0.000 OA
ATOM     10  H   UNL     1      46.853   9.795  14.494  0.00  0.00    +0.000 HD
ATOM     11  H   UNL     1      48.394  10.359  13.979  0.00  0.00    +0.000 HD
ENDBRANCH   4   7
BRANCH   6  12
ATOM     12  N   UNL     1      46.181   4.099  13.654  0.00  0.00    +0.000 N 
ATOM     13  O   UNL     1      46.412   4.010  14.867  0.00  0.00    +0.000 OA
ATOM     14  O   UNL     1      46.034   3.149  12.875  0.00  0.00    +0.000 OA
ENDBRANCH   6  12
BRANCH   1  15
ATOM     15  O   UNL     1      43.882   4.770  12.162  0.00  0.00    +0.000 OA
BRANCH  15  16
ATOM     16  C   UNL     1      43.383   4.786  10.822  0.00  0.00    +0.000 C 
BRANCH  16  20
ATOM     17  C   UNL     1      45.864   2.466   8.289  0.00  0.00    +0.000 A 
ATOM     18  C   UNL     1      45.966   3.844   8.198  0.00  0.00    +0.000 A 
ATOM     19  C   UNL     1      45.179   4.621   9.044  0.00  0.00    +0.000 A 
ATOM     20  C   UNL     1      44.293   3.997   9.927  0.00  0.00    +0.000 A 
ATOM     21  C   UNL     1      44.266   2.607   9.935  0.00  0.00    +0.000 A 
ATOM     22  N   UNL     1      45.027   1.831   9.134  0.00  0.00    +0.000 NA
BRANCH  17  23
ATOM     23  O   UNL     1      46.635   1.725   7.415  0.00  0.00    +0.000 OA
BRANCH  23  25
ATOM     24  C   UNL     1      47.467   2.536   5.326  0.00  0.00    +0.000 C 
ATOM     25  C   UNL     1      47.677   2.506   6.829  0.00  0.00    +0.000 C 
ENDBRANCH  23  25
ENDBRANCH  17  23
ENDBRANCH  16  20
ENDBRANCH  15  16
ENDBRANCH   1  15
TORSDOF 7
ENDMDL
MODEL 4
REMARK VINA RESULT:    -6.626      1.766      1.974
REMARK INTER + INTRA:         -10.179
REMARK INTER:                  -9.543
REMARK INTRA:                  -0.636
REMARK UNBOUND:                -0.842
REMARK  Name = 
REMARK  8 active torsions:
REMARK  status: ('A' for Active; 'I' for Inactive)
REMARK    1  A    between atoms: C_1  and  C_2
REMARK    2  A    between atoms: C_2  and  O_3
REMARK    3  A    between atoms: O_3  and  C_4
REMARK    4  A    between atoms: C_7  and  C_8
REMARK    5  A    between atoms: C_8  and  O_9
REMARK    6  A    between atoms: O_9  and  C_10
REMARK    7  A    between atoms: C_13  and  C_14
REMARK    8  A    between atoms: C_18  and  N_19
REMARK                            x       y       z     vdW  Elec       q    Type
REMARK                         _______ _______ _______ _____ _____    ______ ____
ROOT
ATOM      1  C   UNL     1      46.258   5.691  13.391  0.00  0.00    +0.000 A 
ATOM      2  N   UNL     1      46.361   6.928  12.844  0.00  0.00    +0.000 NA
ATOM      3  C   UNL     1      47.423   7.693  13.196  0.00  0.00    +0.000 A 
ATOM      4  C   UNL     1      48.408   7.294  14.090  0.00  0.00    +0.000 A 
ATOM      5  C   UNL     1      48.281   6.025  14.664  0.00  0.00    +0.000 A 
ATOM      6  C   UNL     1      47.195   5.224  14.297  0.00  0.00    +0.000 A 
ENDROOT
BRANCH   4   7
ATOM      7  C   UNL     1      49.574   8.137  14.441  0.00  0.00    +0.000 C 
ATOM      8  N   UNL     1      50.789   7.548  14.648  0.00  0.00    +0.000 N 
ATOM      9  O   UNL     1      49.450   9.350  14.559  0.00  0.00    +0.000 OA
ATOM     10  H   UNL     1      51.000   6.563  14.615  0.00  0.00    +0.000 HD
ATOM     11  H   UNL     1      51.549   8.168  14.909  0.00  0.00    +0.000 HD
ENDBRANCH   4   7
BRANCH   6  12
ATOM     12  N   UNL     1      47.078   3.903  14.855  0.00  0.00    +0.000 N 
ATOM     13  O   UNL     1      47.395   2.949  14.132  0.00  0.00    +0.000 OA
ATOM     14  O   UNL     1      46.732   3.827  16.041  0.00  0.00    +0.000 OA
ENDBRANCH   6  12
BRANCH   1  15
ATOM     15  O   UNL     1      45.172   4.920  13.040  0.00  0.00    +0.000 OA
BRANCH  15  16
ATOM     16  C   UNL     1      44.389   5.525  12.007  0.00  0.00    +0.000 C 
BRANCH  16  20
ATOM     17  C   UNL     1      45.389   3.768   8.282  0.00  0.00    +0.000 A 
ATOM     18  C   UNL     1      44.533   3.063   9.114  0.00  0.00    +0.000 A 
ATOM     19  C   UNL     1      44.172   3.641  10.328  0.00  0.00    +0.000 A 
ATOM     20  C   UNL     1      44.702   4.883  10.687  0.00  0.00    +0.000 A 
ATOM     21  C   UNL     1      45.556   5.502   9.781  0.00  0.00    +0.000 A 
ATOM     22  N   UNL     1      45.913   4.971   8.593  0.00  0.00    +0.000 NA
BRANCH  17  23
ATOM     23  O   UNL     1      45.752   3.155   7.100  0.00  0.00    +0.000 OA
BRANCH  23  25
ATOM     24  C   UNL     1      47.313   1.347   7.202  0.00  0.00    +0.000 C 
ATOM     25  C   UNL     1      47.147   2.849   7.064  0.00  0.00    +0.000 C 
ENDBRANCH  23  25
ENDBRANCH  17  23
ENDBRANCH  16  20
ENDBRANCH  15  16
ENDBRANCH   1  15
TORSDOF 7
ENDMDL
MODEL 5
REMARK VINA RESULT:    -6.212      3.110      4.434
REMARK INTER + INTRA:          -9.595
REMARK INTER:                  -8.912
REMARK INTRA:                  -0.683
REMARK UNBOUND:                -0.842
REMARK  Name = 
REMARK  8 active torsions:
REMARK  status: ('A' for Active; 'I' for Inactive)
REMARK    1  A    between atoms: C_1  and  C_2
REMARK    2  A    between atoms: C_2  and  O_3
REMARK    3  A    between atoms: O_3  and  C_4
REMARK    4  A    between atoms: C_7  and  C_8
REMARK    5  A    between atoms: C_8  and  O_9
REMARK    6  A    between atoms: O_9  and  C_10
REMARK    7  A    between atoms: C_13  and  C_14
REMARK    8  A    between atoms: C_18  and  N_19
REMARK                            x       y       z     vdW  Elec       q    Type
REMARK                         _______ _______ _______ _____ _____    ______ ____
ROOT
ATOM      1  C   UNL     1      47.354   5.128  14.735  0.00  0.00    +0.000 A 
ATOM      2  N   UNL     1      46.853   4.023  15.342  0.00  0.00    +0.000 NA
ATOM      3  C   UNL     1      47.229   3.775  16.620  0.00  0.00    +0.000 A 
ATOM      4  C   UNL     1      48.104   4.573  17.344  0.00  0.00    +0.000 A 
ATOM      5  C   UNL     1      48.632   5.697  16.701  0.00  0.00    +0.000 A 
ATOM      6  C   UNL     1      48.240   5.969  15.386  0.00  0.00    +0.000 A 
ENDROOT
BRANCH   4   7
ATOM      7  C   UNL     1      48.483   4.295  18.748  0.00  0.00    +0.000 C 
ATOM      8  N   UNL     1      48.337   3.030  19.244  0.00  0.00    +0.000 N 
ATOM      9  O   UNL     1      48.910   5.190  19.466  0.00  0.00    +0.000 OA
ATOM     10  H   UNL     1      47.964   2.228  18.760  0.00  0.00    +0.000 HD
ATOM     11  H   UNL     1      48.589   2.897  20.217  0.00  0.00    +0.000 HD
ENDBRANCH   4   7
BRANCH   6  12
ATOM     12  N   UNL     1      48.749   7.145  14.732  0.00  0.00    +0.000 N 
ATOM     13  O   UNL     1      49.778   7.019  14.055  0.00  0.00    +0.000 OA
ATOM     14  O   UNL     1      48.081   8.180  14.845  0.00  0.00    +0.000 OA
ENDBRANCH   6  12
BRANCH   1  15
ATOM     15  O   UNL     1      46.979   5.374  13.432  0.00  0.00    +0.000 OA
BRANCH  15  16
ATOM     16  C   UNL     1      45.581   5.159  13.222  0.00  0.00    +0.000 C 
BRANCH  16  20
ATOM     17  C   UNL     1      45.003   3.883   9.222  0.00  0.00    +0.000 A 
ATOM     18  C   UNL     1      44.709   2.981  10.231  0.00  0.00    +0.000 A 
ATOM     19  C   UNL     1      44.865   3.395  11.552  0.00  0.00    +0.000 A 
ATOM     20  C   UNL     1      45.342   4.681  11.819  0.00  0.00    +0.000 A 
ATOM     21  C   UNL     1      45.612   5.505  10.733  0.00  0.00    +0.000 A 
ATOM     22  N   UNL     1      45.458   5.134   9.444  0.00  0.00    +0.000 NA
BRANCH  17  23
ATOM     23  O   UNL     1      44.868   3.433   7.925  0.00  0.00    +0.000 OA
BRANCH  23  25
ATOM     24  C   UNL     1      46.751   2.116   7.265  0.00  0.00    +0.000 C 
ATOM     25  C   UNL     1      46.103   3.487   7.209  0.00  0.00    +0.000 C 
ENDBRANCH  23  25
ENDBRANCH  17  23
ENDBRANCH  16  20
ENDBRANCH  15  16
ENDBRANCH   1  15
TORSDOF 7
ENDMDL
MODEL 6
REMARK VINA RESULT:    -6.068      4.162      7.168
REMARK INTER + INTRA:          -9.392
REMARK INTER:                  -8.727
REMARK INTRA:                  -0.666
REMARK UNBOUND:                -0.842
REMARK  Name = 
REMARK  8 active torsions:
REMARK  status: ('A' for Active; 'I' for Inactive)
REMARK    1  A    between atoms: C_1  and  C_2
REMARK    2  A    between atoms: C_2  and  O_3
REMARK    3  A    between atoms: O_3  and  C_4
REMARK    4  A    between atoms: C_7  and  C_8
REMARK    5  A    between atoms: C_8  and  O_9
REMARK    6  A    between atoms: O_9  and  C_10
REMARK    7  A    between atoms: C_13  and  C_14
REMARK    8  A    between atoms: C_18  and  N_19
REMARK                            x       y       z     vdW  Elec       q    Type
REMARK                         _______ _______ _______ _____ _____    ______ ____
ROOT
ATOM      1  C   UNL     1      46.599   4.821  13.567  0.00  0.00    +0.000 A 
ATOM      2  N   UNL     1      46.151   3.544  13.474  0.00  0.00    +0.000 NA
ATOM      3  C   UNL     1      45.443   3.198  12.371  0.00  0.00    +0.000 A 
ATOM      4  C   UNL     1      45.139   4.070  11.335  0.00  0.00    +0.000 A 
ATOM      5  C   UNL     1      45.587   5.389  11.451  0.00  0.00    +0.000 A 
ATOM      6  C   UNL     1      46.329   5.753  12.580  0.00  0.00    +0.000 A 
ENDROOT
BRANCH   4   7
ATOM      7  C   UNL     1      44.384   3.663  10.127  0.00  0.00    +0.000 C 
ATOM      8  N   UNL     1      43.872   4.623   9.301  0.00  0.00    +0.000 N 
ATOM      9  O   UNL     1      44.208   2.477   9.875  0.00  0.00    +0.000 OA
ATOM     10  H   UNL     1      43.923   5.622   9.426  0.00  0.00    +0.000 HD
ATOM     11  H   UNL     1      43.345   4.291   8.501  0.00  0.00    +0.000 HD
ENDBRANCH   4   7
BRANCH   6  12
ATOM     12  N   UNL     1      46.826   7.099  12.688  0.00  0.00    +0.000 N 
ATOM     13  O   UNL     1      46.078   7.942  13.200  0.00  0.00    +0.000 OA
ATOM     14  O   UNL     1      47.991   7.295  12.318  0.00  0.00    +0.000 OA
ENDBRANCH   6  12
BRANCH   1  15
ATOM     15  O   UNL     1      47.309   5.174  14.694  0.00  0.00    +0.000 OA
BRANCH  15  16
ATOM     16  C   UNL     1      47.011   4.328  15.808  0.00  0.00    +0.000 C 
BRANCH  16  20
ATOM     17  C   UNL     1      50.616   2.799  17.428  0.00  0.00    +0.000 A 
ATOM     18  C   UNL     1      50.342   4.141  17.631  0.00  0.00    +0.000 A 
ATOM     19  C   UNL     1      49.146   4.652  17.131  0.00  0.00    +0.000 A 
ATOM     20  C   UNL     1      48.284   3.817  16.416  0.00  0.00    +0.000 A 
ATOM     21  C   UNL     1      48.658   2.486  16.265  0.00  0.00    +0.000 A 
ATOM     22  N   UNL     1      49.804   1.962  16.750  0.00  0.00    +0.000 NA
BRANCH  17  23
ATOM     23  O   UNL     1      51.822   2.330  17.909  0.00  0.00    +0.000 OA
BRANCH  23  25
ATOM     24  C   UNL     1      53.516   0.644  17.871  0.00  0.00    +0.000 C 
ATOM     25  C   UNL     1      52.109   1.012  17.438  0.00  0.00    +0.000 C 
ENDBRANCH  23  25
ENDBRANCH  17  23
ENDBRANCH  16  20
ENDBRANCH  15  16
ENDBRANCH   1  15
TORSDOF 7
ENDMDL
MODEL 7
REMARK VINA RESULT:    -5.977      3.527      4.315
REMARK INTER + INTRA:          -9.265
REMARK INTER:                  -8.711
REMARK INTRA:                  -0.553
REMARK UNBOUND:                -0.842
REMARK  Name = 
REMARK  8 active torsions:
REMARK  status: ('A' for Active; 'I' for Inactive)
REMARK    1  A    between atoms: C_1  and  C_2
REMARK    2  A    between atoms: C_2  and  O_3
REMARK    3  A    between atoms: O_3  and  C_4
REMARK    4  A    between atoms: C_7  and  C_8
REMARK    5  A    between atoms: C_8  and  O_9
REMARK    6  A    between atoms: O_9  and  C_10
REMARK    7  A    between atoms: C_13  and  C_14
REMARK    8  A    between atoms: C_18  and  N_19
REMARK                            x       y       z     vdW  Elec       q    Type
REMARK                         _______ _______ _______ _____ _____    ______ ____
ROOT
ATOM      1  C   UNL     1      48.284   5.779  15.432  0.00  0.00    +0.000 A 
ATOM      2  N   UNL     1      48.764   7.037  15.603  0.00  0.00    +0.000 NA
ATOM      3  C   UNL     1      49.065   7.435  16.864  0.00  0.00    +0.000 A 
ATOM      4  C   UNL     1      48.903   6.642  17.992  0.00  0.00    +0.000 A 
ATOM      5  C   UNL     1      48.386   5.356  17.805  0.00  0.00    +0.000 A 
ATOM      6  C   UNL     1      48.085   4.931  16.507  0.00  0.00    +0.000 A 
ENDROOT
BRANCH   4   7
ATOM      7  C   UNL     1      49.261   7.091  19.357  0.00  0.00    +0.000 C 
ATOM      8  N   UNL     1      48.436   6.785  20.401  0.00  0.00    +0.000 N 
ATOM      9  O   UNL     1      50.281   7.742  19.549  0.00  0.00    +0.000 OA
ATOM     10  H   UNL     1      47.558   6.290  20.357  0.00  0.00    +0.000 HD
ATOM     11  H   UNL     1      48.715   7.135  21.311  0.00  0.00    +0.000 HD
ENDBRANCH   4   7
BRANCH   6  12
ATOM     12  N   UNL     1      47.589   3.596  16.305  0.00  0.00    +0.000 N 
ATOM     13  O   UNL     1      48.238   2.854  15.556  0.00  0.00    +0.000 OA
ATOM     14  O   UNL     1      46.583   3.271  16.950  0.00  0.00    +0.000 OA
ENDBRANCH   6  12
BRANCH   1  15
ATOM     15  O   UNL     1      47.968   5.380  14.152  0.00  0.00    +0.000 OA
BRANCH  15  16
ATOM     16  C   UNL     1      46.921   6.168  13.581  0.00  0.00    +0.000 C 
BRANCH  16  20
ATOM     17  C   UNL     1      44.682   3.809  10.865  0.00  0.00    +0.000 A 
ATOM     18  C   UNL     1      45.090   5.063  10.439  0.00  0.00    +0.000 A 
ATOM     19  C   UNL     1      45.852   5.838  11.309  0.00  0.00    +0.000 A 
ATOM     20  C   UNL     1      46.151   5.352  12.584  0.00  0.00    +0.000 A 
ATOM     21  C   UNL     1      45.688   4.084  12.913  0.00  0.00    +0.000 A 
ATOM     22  N   UNL     1      44.958   3.306  12.085  0.00  0.00    +0.000 NA
BRANCH  17  23
ATOM     23  O   UNL     1      43.902   3.078   9.991  0.00  0.00    +0.000 OA
BRANCH  23  25
ATOM     24  C   UNL     1      45.508   1.779   8.788  0.00  0.00    +0.000 C 
ATOM     25  C   UNL     1      44.524   2.932   8.713  0.00  0.00    +0.000 C 
ENDBRANCH  23  25
ENDBRANCH  17  23
ENDBRANCH  16  20
ENDBRANCH  15  16
ENDBRANCH   1  15
TORSDOF 7
ENDMDL
MODEL 8
REMARK VINA RESULT:    -5.869      3.589      7.591
REMARK INTER + INTRA:          -9.113
REMARK INTER:                  -8.184
REMARK INTRA:                  -0.928
REMARK UNBOUND:                -0.842
REMARK  Name = 
REMARK  8 active torsions:
REMARK  status: ('A' for Active; 'I' for Inactive)
REMARK    1  A    between atoms: C_1  and  C_2
REMARK    2  A    between atoms: C_2  and  O_3
REMARK    3  A    between atoms: O_3  and  C_4
REMARK    4  A    between atoms: C_7  and  C_8
REMARK    5  A    between atoms: C_8  and  O_9
REMARK    6  A    between atoms: O_9  and  C_10
REMARK    7  A    between atoms: C_13  and  C_14
REMARK    8  A    between atoms: C_18  and  N_19
REMARK                            x       y       z     vdW  Elec       q    Type
REMARK                         _______ _______ _______ _____ _____    ______ ____
ROOT
ATOM      1  C   UNL     1      47.171   5.722  12.888  0.00  0.00    +0.000 A 
ATOM      2  N   UNL     1      46.670   6.484  11.884  0.00  0.00    +0.000 NA
ATOM      3  C   UNL     1      45.382   6.280  11.514  0.00  0.00    +0.000 A 
ATOM      4  C   UNL     1      44.547   5.332  12.089  0.00  0.00    +0.000 A 
ATOM      5  C   UNL     1      45.081   4.537  13.107  0.00  0.00    +0.000 A 
ATOM      6  C   UNL     1      46.404   4.749  13.505  0.00  0.00    +0.000 A 
ENDROOT
BRANCH   4   7
ATOM      7  C   UNL     1      43.135   5.143  11.683  0.00  0.00    +0.000 C 
ATOM      8  N   UNL     1      42.274   6.202  11.738  0.00  0.00    +0.000 N 
ATOM      9  O   UNL     1      42.736   4.045  11.314  0.00  0.00    +0.000 OA
ATOM     10  H   UNL     1      42.480   7.136  12.058  0.00  0.00    +0.000 HD
ATOM     11  H   UNL     1      41.314   6.014  11.472  0.00  0.00    +0.000 HD
ENDBRANCH   4   7
BRANCH   6  12
ATOM     12  N   UNL     1      46.948   3.960  14.579  0.00  0.00    +0.000 N 
ATOM     13  O   UNL     1      46.715   4.335  15.736  0.00  0.00    +0.000 OA
ATOM     14  O   UNL     1      47.553   2.928  14.261  0.00  0.00    +0.000 OA
ENDBRANCH   6  12
BRANCH   1  15
ATOM     15  O   UNL     1      48.483   5.923  13.256  0.00  0.00    +0.000 OA
BRANCH  15  16
ATOM     16  C   UNL     1      48.794   7.310  13.417  0.00  0.00    +0.000 C 
BRANCH  16  20
ATOM     17  C   UNL     1      48.471   8.447  17.486  0.00  0.00    +0.000 A 
ATOM     18  C   UNL     1      48.972   7.185  17.212  0.00  0.00    +0.000 A 
ATOM     19  C   UNL     1      49.112   6.808  15.878  0.00  0.00    +0.000 A 
ATOM     20  C   UNL     1      48.716   7.687  14.867  0.00  0.00    +0.000 A 
ATOM     21  C   UNL     1      48.222   8.928  15.252  0.00  0.00    +0.000 A 
ATOM     22  N   UNL     1      48.087   9.324  16.536  0.00  0.00    +0.000 NA
BRANCH  17  23
ATOM     23  O   UNL     1      48.316   8.779  18.817  0.00  0.00    +0.000 OA
BRANCH  23  25
ATOM     24  C   UNL     1      47.668   7.514  20.739  0.00  0.00    +0.000 C 
ATOM     25  C   UNL     1      48.738   7.725  19.684  0.00  0.00    +0.000 C 
ENDBRANCH  23  25
ENDBRANCH  17  23
ENDBRANCH  16  20
ENDBRANCH  15  16
ENDBRANCH   1  15
TORSDOF 7
ENDMDL
MODEL 9
REMARK VINA RESULT:    -5.646      4.149      6.583
REMARK INTER + INTRA:          -8.798
REMARK INTER:                  -8.130
REMARK INTRA:                  -0.668
REMARK UNBOUND:                -0.842
REMARK  Name = 
REMARK  8 active torsions:
REMARK  status: ('A' for Active; 'I' for Inactive)
REMARK    1  A    between atoms: C_1  and  C_2
REMARK    2  A    between atoms: C_2  and  O_3
REMARK    3  A    between atoms: O_3  and  C_4
REMARK    4  A    between atoms: C_7  and  C_8
REMARK    5  A    between atoms: C_8  and  O_9
REMARK    6  A    between atoms: O_9  and  C_10
REMARK    7  A    between atoms: C_13  and  C_14
REMARK    8  A    between atoms: C_18  and  N_19
REMARK                            x       y       z     vdW  Elec       q    Type
REMARK                         _______ _______ _______ _____ _____    ______ ____
ROOT
ATOM      1  C   UNL     1      46.465   5.158  13.490  0.00  0.00    +0.000 A 
ATOM      2  N   UNL     1      47.002   6.393  13.653  0.00  0.00    +0.000 NA
ATOM      3  C   UNL     1      46.408   7.432  13.018  0.00  0.00    +0.000 A 
ATOM      4  C   UNL     1      45.291   7.312  12.202  0.00  0.00    +0.000 A 
ATOM      5  C   UNL     1      44.760   6.031  12.024  0.00  0.00    +0.000 A 
ATOM      6  C   UNL     1      45.358   4.954  12.685  0.00  0.00    +0.000 A 
ENDROOT
BRANCH   4   7
ATOM      7  C   UNL     1      44.644   8.466  11.537  0.00  0.00    +0.000 C 
ATOM      8  N   UNL     1      43.422   8.303  10.949  0.00  0.00    +0.000 N 
ATOM      9  O   UNL     1      45.203   9.555  11.500  0.00  0.00    +0.000 OA
ATOM     10  H   UNL     1      42.888   7.450  10.885  0.00  0.00    +0.000 HD
ATOM     11  H   UNL     1      43.033   9.118  10.488  0.00  0.00    +0.000 HD
ENDBRANCH   4   7
BRANCH   6  12
ATOM     12  N   UNL     1      44.793   3.639  12.536  0.00  0.00    +0.000 N 
ATOM     13  O   UNL     1      45.292   2.898  11.679  0.00  0.00    +0.000 OA
ATOM     14  O   UNL     1      43.891   3.327  13.325  0.00  0.00    +0.000 OA
ENDBRANCH   6  12
BRANCH   1  15
ATOM     15  O   UNL     1      47.077   4.100  14.128  0.00  0.00    +0.000 OA
BRANCH  15  16
ATOM     16  C   UNL     1      46.905   4.151  15.547  0.00  0.00    +0.000 C 
BRANCH  16  20
ATOM     17  C   UNL     1      50.480   2.808  17.382  0.00  0.00    +0.000 A 
ATOM     18  C   UNL     1      50.111   4.127  17.588  0.00  0.00    +0.000 A 
ATOM     19  C   UNL     1      48.923   4.576  17.016  0.00  0.00    +0.000 A 
ATOM     20  C   UNL     1      48.163   3.704  16.231  0.00  0.00    +0.000 A 
ATOM     21  C   UNL     1      48.627   2.403  16.084  0.00  0.00    +0.000 A 
ATOM     22  N   UNL     1      49.768   1.938  16.637  0.00  0.00    +0.000 NA
BRANCH  17  23
ATOM     23  O   UNL     1      51.678   2.402  17.935  0.00  0.00    +0.000 OA
BRANCH  23  25
ATOM     24  C   UNL     1      53.534   0.931  17.610  0.00  0.00    +0.000 C 
ATOM     25  C   UNL     1      52.024   1.072  17.545  0.00  0.00    +0.000 C 
ENDBRANCH  23  25
ENDBRANCH  17  23
ENDBRANCH  16  20
ENDBRANCH  15  16
ENDBRANCH   1  15
TORSDOF 7
ENDMDL
