MODEL 1
REMARK VINA RESULT:    -7.880      0.000      0.000
REMARK INTER + INTRA:         -11.006
REMARK INTER:                 -10.183
REMARK INTRA:                  -0.823
REMARK UNBOUND:                -0.823
REMARK  Name = 
REMARK  5 active torsions:
REMARK  status: ('A' for Active; 'I' for Inactive)
REMARK    1  A    between atoms: C_2  and  C_5
REMARK    2  A    between atoms: C_7  and  O_8
REMARK    3  A    between atoms: O_8  and  C_9
REMARK    4  A    between atoms: C_9  and  C_10
REMARK    5  A    between atoms: C_17  and  C_18
REMARK                            x       y       z     vdW  Elec       q    Type
REMARK                         _______ _______ _______ _____ _____    ______ ____
ROOT
ATOM      1  C   UNL     1      44.288   5.321  11.767  0.00  0.00    +0.000 A 
ATOM      2  C   UNL     1      44.458   5.073  10.402  0.00  0.00    +0.000 A 
ATOM      3  C   UNL     1      45.659   5.428   9.819  0.00  0.00    +0.000 A 
ATOM      4  N   UNL     1      46.664   6.030  10.486  0.00  0.00    +0.000 NA
ATOM      5  C   UNL     1      46.505   6.280  11.805  0.00  0.00    +0.000 A 
ATOM      6  C   UNL     1      45.331   5.940  12.472  0.00  0.00    +0.000 A 
ENDROOT
BRANCH   5   7
ATOM      7  C   UNL     1      47.655   6.916  12.470  0.00  0.00    +0.000 A 
ATOM      8  C   UNL     1      48.480   7.813  11.774  0.00  0.00    +0.000 A 
ATOM      9  C   UNL     1      49.567   8.378  12.421  0.00  0.00    +0.000 A 
ATOM     10  N   UNL     1      49.895   8.118  13.702  0.00  0.00    +0.000 NA
ATOM     11  C   UNL     1      49.104   7.250  14.362  0.00  0.00    +0.000 A 
ATOM     12  C   UNL     1      47.994   6.637  13.801  0.00  0.00    +0.000 A 
ENDBRANCH   5   7
BRANCH   1  14
ATOM     13  F   UNL     1      41.893   5.151  11.780  0.00  0.00    +0.000 F 
ATOM     14  C   UNL     1      43.030   4.926  12.491  0.00  0.00    +0.000 C 
ATOM     15  F   UNL     1      42.879   5.592  13.668  0.00  0.00    +0.000 F 
ATOM     16  F   UNL     1      43.019   3.602  12.809  0.00  0.00    +0.000 F 
ENDBRANCH   1  14
BRANCH   3  17
ATOM     17  O   UNL     1      45.807   5.166   8.472  0.00  0.00    +0.000 OA
BRANCH  17  18
ATOM     18  C   UNL     1      45.073   4.006   8.073  0.00  0.00    +0.000 C 
BRANCH  18  19
ATOM     19  C   UNL     1      46.027   2.964   7.545  0.00  0.00    +0.000 A 
ATOM     20  C   UNL     1      46.881   3.261   6.479  0.00  0.00    +0.000 A 
ATOM     21  C   UNL     1      47.782   2.297   6.058  0.00  0.00    +0.000 A 
ATOM     22  N   UNL     1      47.888   1.073   6.617  0.00  0.00    +0.000 NA
ATOM     23  C   UNL     1      47.050   0.802   7.639  0.00  0.00    +0.000 A 
ATOM     24  C   UNL     1      46.115   1.700   8.134  0.00  0.00    +0.000 A 
ENDBRANCH  18  19
ENDBRANCH  17  18
ENDBRANCH   3  17
TORSDOF 5
ENDMDL
MODEL 2
REMARK VINA RESULT:    -7.225      2.950      3.668
REMARK INTER + INTRA:         -10.159
REMARK INTER:                  -9.324
REMARK INTRA:                  -0.836
REMARK UNBOUND:                -0.823
REMARK  Name = 
REMARK  5 active torsions:
REMARK  status: ('A' for Active; 'I' for Inactive)
REMARK    1  A    between atoms: C_2  and  C_5
REMARK    2  A    between atoms: C_7  and  O_8
REMARK    3  A    between atoms: O_8  and  C_9
REMARK    4  A    between atoms: C_9  and  C_10
REMARK    5  A    between atoms: C_17  and  C_18
REMARK                            x       y       z     vdW  Elec       q    Type
REMARK                         _______ _______ _______ _____ _____    ______ ____
ROOT
ATOM      1  C   UNL     1      45.710   6.524  12.482  0.00  0.00    +0.000 A 
ATOM      2  C   UNL     1      45.121   5.463  11.790  0.00  0.00    +0.000 A 
ATOM      3  C   UNL     1      45.319   4.181  12.269  0.00  0.00    +0.000 A 
ATOM      4  N   UNL     1      46.076   3.896  13.347  0.00  0.00    +0.000 NA
ATOM      5  C   UNL     1      46.656   4.917  14.019  0.00  0.00    +0.000 A 
ATOM      6  C   UNL     1      46.494   6.239  13.611  0.00  0.00    +0.000 A 
ENDROOT
BRANCH   5   7
ATOM      7  C   UNL     1      47.445   4.528  15.200  0.00  0.00    +0.000 A 
ATOM      8  C   UNL     1      47.496   3.191  15.620  0.00  0.00    +0.000 A 
ATOM      9  C   UNL     1      48.230   2.859  16.747  0.00  0.00    +0.000 A 
ATOM     10  N   UNL     1      48.913   3.756  17.486  0.00  0.00    +0.000 NA
ATOM     11  C   UNL     1      48.854   5.040  17.082  0.00  0.00    +0.000 A 
ATOM     12  C   UNL     1      48.150   5.467  15.966  0.00  0.00    +0.000 A 
ENDBRANCH   5   7
BRANCH   1  14
ATOM     13  F   UNL     1      46.646   8.560  11.622  0.00  0.00    +0.000 F 
ATOM     14  C   UNL     1      45.510   7.953  12.057  0.00  0.00    +0.000 C 
ATOM     15  F   UNL     1      45.024   8.730  13.062  0.00  0.00    +0.000 F 
ATOM     16  F   UNL     1      44.613   8.060  11.038  0.00  0.00    +0.000 F 
ENDBRANCH   1  14
BRANCH   3  17
ATOM     17  O   UNL     1      44.721   3.150  11.574  0.00  0.00    +0.000 OA
BRANCH  17  18
ATOM     18  C   UNL     1      44.160   3.598  10.339  0.00  0.00    +0.000 C 
BRANCH  18  19
ATOM     19  C   UNL     1      45.059   3.189   9.199  0.00  0.00    +0.000 A 
ATOM     20  C   UNL     1      45.596   4.152   8.340  0.00  0.00    +0.000 A 
ATOM     21  C   UNL     1      46.463   3.744   7.340  0.00  0.00    +0.000 A 
ATOM     22  N   UNL     1      46.824   2.459   7.137  0.00  0.00    +0.000 NA
ATOM     23  C   UNL     1      46.290   1.543   7.971  0.00  0.00    +0.000 A 
ATOM     24  C   UNL     1      45.416   1.852   9.003  0.00  0.00    +0.000 A 
ENDBRANCH  18  19
ENDBRANCH  17  18
ENDBRANCH   3  17
TORSDOF 5
ENDMDL
MODEL 3
REMARK VINA RESULT:    -7.067      2.878      3.636
REMARK INTER + INTRA:          -9.955
REMARK INTER:                  -9.163
REMARK INTRA:                  -0.792
REMARK UNBOUND:                -0.823
REMARK  Name = 
REMARK  5 active torsions:
REMARK  status: ('A' for Active; 'I' for Inactive)
REMARK    1  A    between atoms: C_2  and  C_5
REMARK    2  A    between atoms: C_7  and  O_8
REMARK    3  A    between atoms: O_8  and  C_9
REMARK    4  A    between atoms: C_9  and  C_10
REMARK    5  A    between atoms: C_17  and  C_18
REMARK                            x       y       z     vdW  Elec       q    Type
REMARK                         _______ _______ _______ _____ _____    ______ ____
ROOT
ATOM      1  C   UNL     1      45.970   5.198  12.739  0.00  0.00    +0.000 A 
ATOM      2  C   UNL     1      45.392   4.444  11.714  0.00  0.00    +0.000 A 
ATOM      3  C   UNL     1      44.713   5.114  10.714  0.00  0.00    +0.000 A 
ATOM      4  N   UNL     1      44.550   6.452  10.689  0.00  0.00    +0.000 NA
ATOM      5  C   UNL     1      45.100   7.189  11.680  0.00  0.00    +0.000 A 
ATOM      6  C   UNL     1      45.813   6.592  12.718  0.00  0.00    +0.000 A 
ENDROOT
BRANCH   5   7
ATOM      7  C   UNL     1      44.902   8.644  11.570  0.00  0.00    +0.000 A 
ATOM      8  C   UNL     1      43.732   9.167  11.000  0.00  0.00    +0.000 A 
ATOM      9  C   UNL     1      43.583  10.540  10.891  0.00  0.00    +0.000 A 
ATOM     10  N   UNL     1      44.510  11.428  11.303  0.00  0.00    +0.000 NA
ATOM     11  C   UNL     1      45.635  10.919  11.843  0.00  0.00    +0.000 A 
ATOM     12  C   UNL     1      45.871   9.562  11.997  0.00  0.00    +0.000 A 
ENDBRANCH   5   7
BRANCH   1  14
ATOM     13  F   UNL     1      47.123   3.269  13.582  0.00  0.00    +0.000 F 
ATOM     14  C   UNL     1      46.763   4.554  13.842  0.00  0.00    +0.000 C 
ATOM     15  F   UNL     1      46.084   4.526  15.021  0.00  0.00    +0.000 F 
ATOM     16  F   UNL     1      47.921   5.225  14.096  0.00  0.00    +0.000 F 
ENDBRANCH   1  14
BRANCH   3  17
ATOM     17  O   UNL     1      44.157   4.350   9.708  0.00  0.00    +0.000 OA
BRANCH  17  18
ATOM     18  C   UNL     1      44.609   2.994   9.761  0.00  0.00    +0.000 C 
BRANCH  18  19
ATOM     19  C   UNL     1      45.514   2.720   8.586  0.00  0.00    +0.000 A 
ATOM     20  C   UNL     1      46.076   1.453   8.408  0.00  0.00    +0.000 A 
ATOM     21  C   UNL     1      46.857   1.222   7.287  0.00  0.00    +0.000 A 
ATOM     22  N   UNL     1      47.115   2.155   6.346  0.00  0.00    +0.000 NA
ATOM     23  C   UNL     1      46.569   3.374   6.540  0.00  0.00    +0.000 A 
ATOM     24  C   UNL     1      45.773   3.702   7.627  0.00  0.00    +0.000 A 
ENDBRANCH  18  19
ENDBRANCH  17  18
ENDBRANCH   3  17
TORSDOF 5
ENDMDL
MODEL 4
REMARK VINA RESULT:    -6.958      3.536      4.497
REMARK INTER + INTRA:          -9.815
REMARK INTER:                  -9.024
REMARK INTRA:                  -0.791
REMARK UNBOUND:                -0.823
REMARK  Name = 
REMARK  5 active torsions:
REMARK  status: ('A' for Active; 'I' for Inactive)
REMARK    1  A    between atoms: C_2  and  C_5
REMARK    2  A    between atoms: C_7  and  O_8
REMARK    3  A    between atoms: O_8  and  C_9
REMARK    4  A    between atoms: C_9  and  C_10
REMARK    5  A    between atoms: C_17  and  C_18
REMARK                            x       y       z     vdW  Elec       q    Type
REMARK                         _______ _______ _______ _____ _____    ______ ____
ROOT
ATOM      1  C   UNL     1      47.384   6.716  12.748  0.00  0.00    +0.000 A 
ATOM      2  C   UNL     1      46.374   5.986  12.117  0.00  0.00    +0.000 A 
ATOM      3  C   UNL     1      45.850   4.891  12.778  0.00  0.00    +0.000 A 
ATOM      4  N   UNL     1      46.280   4.470  13.984  0.00  0.00    +0.000 NA
ATOM      5  C   UNL     1      47.263   5.167  14.599  0.00  0.00    +0.000 A 
ATOM      6  C   UNL     1      47.835   6.291  14.007  0.00  0.00    +0.000 A 
ENDROOT
BRANCH   5   7
ATOM      7  C   UNL     1      47.662   4.662  15.923  0.00  0.00    +0.000 A 
ATOM      8  C   UNL     1      48.434   5.451  16.789  0.00  0.00    +0.000 A 
ATOM      9  C   UNL     1      48.811   4.939  18.020  0.00  0.00    +0.000 A 
ATOM     10  N   UNL     1      48.481   3.706  18.452  0.00  0.00    +0.000 NA
ATOM     11  C   UNL     1      47.746   2.950  17.612  0.00  0.00    +0.000 A 
ATOM     12  C   UNL     1      47.319   3.376  16.364  0.00  0.00    +0.000 A 
ENDBRANCH   5   7
BRANCH   1  14
ATOM     13  F   UNL     1      48.730   7.689  11.015  0.00  0.00    +0.000 F 
ATOM     14  C   UNL     1      47.980   7.946  12.120  0.00  0.00    +0.000 C 
ATOM     15  F   UNL     1      48.789   8.626  12.977  0.00  0.00    +0.000 F 
ATOM     16  F   UNL     1      47.024   8.832  11.728  0.00  0.00    +0.000 F 
ENDBRANCH   1  14
BRANCH   3  17
ATOM     17  O   UNL     1      44.848   4.190  12.139  0.00  0.00    +0.000 OA
BRANCH  17  18
ATOM     18  C   UNL     1      44.486   4.795  10.896  0.00  0.00    +0.000 C 
BRANCH  18  19
ATOM     19  C   UNL     1      45.009   3.956   9.757  0.00  0.00    +0.000 A 
ATOM     20  C   UNL     1      45.619   4.560   8.654  0.00  0.00    +0.000 A 
ATOM     21  C   UNL     1      46.137   3.754   7.654  0.00  0.00    +0.000 A 
ATOM     22  N   UNL     1      46.085   2.405   7.675  0.00  0.00    +0.000 NA
ATOM     23  C   UNL     1      45.485   1.840   8.743  0.00  0.00    +0.000 A 
ATOM     24  C   UNL     1      44.939   2.560   9.795  0.00  0.00    +0.000 A 
ENDBRANCH  18  19
ENDBRANCH  17  18
ENDBRANCH   3  17
TORSDOF 5
ENDMDL
MODEL 5
REMARK VINA RESULT:    -6.807      3.591      6.184
REMARK INTER + INTRA:          -9.620
REMARK INTER:                  -8.887
REMARK INTRA:                  -0.733
REMARK UNBOUND:                -0.823
REMARK  Name = 
REMARK  5 active torsions:
REMARK  status: ('A' for Active; 'I' for Inactive)
REMARK    1  A    between atoms: C_2  and  C_5
REMARK    2  A    between atoms: C_7  and  O_8
REMARK    3  A    between atoms: O_8  and  C_9
REMARK    4  A    between atoms: C_9  and  C_10
REMARK    5  A    between atoms: C_17  and  C_18
REMARK                            x       y       z     vdW  Elec       q    Type
REMARK                         _______ _______ _______ _____ _____    ______ ____
ROOT
ATOM      1  C   UNL     1      45.121   4.103  11.851  0.00  0.00    +0.000 A 
ATOM      2  C   UNL     1      45.766   3.342  12.830  0.00  0.00    +0.000 A 
ATOM      3  C   UNL     1      46.762   3.946  13.574  0.00  0.00    +0.000 A 
ATOM      4  N   UNL     1      47.168   5.218  13.386  0.00  0.00    +0.000 NA
ATOM      5  C   UNL     1      46.554   5.959  12.435  0.00  0.00    +0.000 A 
ATOM      6  C   UNL     1      45.531   5.430  11.652  0.00  0.00    +0.000 A 
ENDROOT
BRANCH   5   7
ATOM      7  C   UNL     1      47.034   7.345  12.307  0.00  0.00    +0.000 A 
ATOM      8  C   UNL     1      48.377   7.613  12.002  0.00  0.00    +0.000 A 
ATOM      9  C   UNL     1      48.803   8.928  11.909  0.00  0.00    +0.000 A 
ATOM     10  N   UNL     1      47.997   9.992  12.097  0.00  0.00    +0.000 NA
ATOM     11  C   UNL     1      46.710   9.727  12.396  0.00  0.00    +0.000 A 
ATOM     12  C   UNL     1      46.191   8.447  12.508  0.00  0.00    +0.000 A 
ENDBRANCH   5   7
BRANCH   1  14
ATOM     13  F   UNL     1      43.364   4.462  10.255  0.00  0.00    +0.000 F 
ATOM     14  C   UNL     1      43.997   3.538  11.026  0.00  0.00    +0.000 C 
ATOM     15  F   UNL     1      43.034   2.957  11.790  0.00  0.00    +0.000 F 
ATOM     16  F   UNL     1      44.429   2.569  10.172  0.00  0.00    +0.000 F 
ENDBRANCH   1  14
BRANCH   3  17
ATOM     17  O   UNL     1      47.380   3.179  14.541  0.00  0.00    +0.000 OA
BRANCH  17  18
ATOM     18  C   UNL     1      47.264   3.767  15.838  0.00  0.00    +0.000 C 
BRANCH  18  19
ATOM     19  C   UNL     1      48.558   3.586  16.591  0.00  0.00    +0.000 A 
ATOM     20  C   UNL     1      49.170   2.330  16.654  0.00  0.00    +0.000 A 
ATOM     21  C   UNL     1      50.386   2.213  17.307  0.00  0.00    +0.000 A 
ATOM     22  N   UNL     1      51.025   3.247  17.895  0.00  0.00    +0.000 NA
ATOM     23  C   UNL     1      50.416   4.449  17.830  0.00  0.00    +0.000 A 
ATOM     24  C   UNL     1      49.200   4.668  17.199  0.00  0.00    +0.000 A 
ENDBRANCH  18  19
ENDBRANCH  17  18
ENDBRANCH   3  17
TORSDOF 5
ENDMDL
MODEL 6
REMARK VINA RESULT:    -6.481      3.675      6.701
REMARK INTER + INTRA:          -9.199
REMARK INTER:                  -8.509
REMARK INTRA:                  -0.690
REMARK UNBOUND:                -0.823
REMARK  Name = 
REMARK  5 active torsions:
REMARK  status: ('A' for Active; 'I' for Inactive)
REMARK    1  A    between atoms: C_2  and  C_5
REMARK    2  A    between atoms: C_7  and  O_8
REMARK    3  A    between atoms: O_8  and  C_9
REMARK    4  A    between atoms: C_9  and  C_10
REMARK    5  A    between atoms: C_17  and  C_18
REMARK                            x       y       z     vdW  Elec       q    Type
REMARK                         _______ _______ _______ _____ _____    ______ ____
ROOT
ATOM      1  C   UNL     1      45.026   4.031  11.386  0.00  0.00    +0.000 A 
ATOM      2  C   UNL     1      45.631   3.580  12.562  0.00  0.00    +0.000 A 
ATOM      3  C   UNL     1      46.122   4.521  13.447  0.00  0.00    +0.000 A 
ATOM      4  N   UNL     1      46.078   5.850  13.223  0.00  0.00    +0.000 NA
ATOM      5  C   UNL     1      45.501   6.295  12.084  0.00  0.00    +0.000 A 
ATOM      6  C   UNL     1      44.968   5.412  11.147  0.00  0.00    +0.000 A 
ENDROOT
BRANCH   5   7
ATOM      7  C   UNL     1      45.468   7.759  11.923  0.00  0.00    +0.000 A 
ATOM      8  C   UNL     1      44.384   8.386  11.290  0.00  0.00    +0.000 A 
ATOM      9  C   UNL     1      44.392   9.763  11.135  0.00  0.00    +0.000 A 
ATOM     10  N   UNL     1      45.394  10.559  11.559  0.00  0.00    +0.000 NA
ATOM     11  C   UNL     1      46.435   9.949  12.159  0.00  0.00    +0.000 A 
ATOM     12  C   UNL     1      46.515   8.580  12.362  0.00  0.00    +0.000 A 
ENDBRANCH   5   7
BRANCH   1  14
ATOM     13  F   UNL     1      45.326   2.217   9.843  0.00  0.00    +0.000 F 
ATOM     14  C   UNL     1      44.426   3.077  10.390  0.00  0.00    +0.000 C 
ATOM     15  F   UNL     1      43.834   3.720   9.347  0.00  0.00    +0.000 F 
ATOM     16  F   UNL     1      43.455   2.302  10.948  0.00  0.00    +0.000 F 
ENDBRANCH   1  14
BRANCH   3  17
ATOM     17  O   UNL     1      46.708   4.053  14.605  0.00  0.00    +0.000 OA
BRANCH  17  18
ATOM     18  C   UNL     1      47.527   5.047  15.224  0.00  0.00    +0.000 C 
BRANCH  18  19
ATOM     19  C   UNL     1      47.878   4.610  16.624  0.00  0.00    +0.000 A 
ATOM     20  C   UNL     1      47.890   3.253  16.960  0.00  0.00    +0.000 A 
ATOM     21  C   UNL     1      48.271   2.887  18.240  0.00  0.00    +0.000 A 
ATOM     22  N   UNL     1      48.633   3.768  19.197  0.00  0.00    +0.000 NA
ATOM     23  C   UNL     1      48.608   5.073  18.857  0.00  0.00    +0.000 A 
ATOM     24  C   UNL     1      48.243   5.539  17.602  0.00  0.00    +0.000 A 
ENDBRANCH  18  19
ENDBRANCH  17  18
ENDBRANCH   3  17
TORSDOF 5
ENDMDL
MODEL 7
REMARK VINA RESULT:    -6.374      4.133      6.148
REMARK INTER + INTRA:          -9.061
REMARK INTER:                  -8.231
REMARK INTRA:                  -0.830
REMARK UNBOUND:                -0.823
REMARK  Name = 
REMARK  5 active torsions:
REMARK  status: ('A' for Active; 'I' for Inactive)
REMARK    1  A    between atoms: C_2  and  C_5
REMARK    2  A    between atoms: C_7  and  O_8
REMARK    3  A    between atoms: O_8  and  C_9
REMARK    4  A    between atoms: C_9  and  C_10
REMARK    5  A    between atoms: C_17  and  C_18
REMARK                            x       y       z     vdW  Elec       q    Type
REMARK                         _______ _______ _______ _____ _____    ______ ____
ROOT
ATOM      1  C   UNL     1      45.347   5.447  12.803  0.00  0.00    +0.000 A 
ATOM      2  C   UNL     1      45.694   4.358  13.608  0.00  0.00    +0.000 A 
ATOM      3  C   UNL     1      46.971   4.317  14.135  0.00  0.00    +0.000 A 
ATOM      4  N   UNL     1      47.911   5.251  13.889  0.00  0.00    +0.000 NA
ATOM      5  C   UNL     1      47.586   6.304  13.104  0.00  0.00    +0.000 A 
ATOM      6  C   UNL     1      46.315   6.429  12.547  0.00  0.00    +0.000 A 
ENDROOT
BRANCH   5   7
ATOM      7  C   UNL     1      48.656   7.295  12.903  0.00  0.00    +0.000 A 
ATOM      8  C   UNL     1      48.698   8.079  11.740  0.00  0.00    +0.000 A 
ATOM      9  C   UNL     1      49.730   8.988  11.570  0.00  0.00    +0.000 A 
ATOM     10  N   UNL     1      50.720   9.174  12.466  0.00  0.00    +0.000 NA
ATOM     11  C   UNL     1      50.677   8.413  13.577  0.00  0.00    +0.000 A 
ATOM     12  C   UNL     1      49.685   7.481  13.837  0.00  0.00    +0.000 A 
ENDBRANCH   5   7
BRANCH   1  14
ATOM     13  F   UNL     1      43.765   6.770  11.575  0.00  0.00    +0.000 F 
ATOM     14  C   UNL     1      43.966   5.593  12.226  0.00  0.00    +0.000 C 
ATOM     15  F   UNL     1      42.996   5.515  13.176  0.00  0.00    +0.000 F 
ATOM     16  F   UNL     1      43.684   4.613  11.324  0.00  0.00    +0.000 F 
ENDBRANCH   1  14
BRANCH   3  17
ATOM     17  O   UNL     1      47.289   3.237  14.933  0.00  0.00    +0.000 OA
BRANCH  17  18
ATOM     18  C   UNL     1      47.368   3.602  16.312  0.00  0.00    +0.000 C 
BRANCH  18  19
ATOM     19  C   UNL     1      48.779   3.406  16.805  0.00  0.00    +0.000 A 
ATOM     20  C   UNL     1      49.487   4.471  17.369  0.00  0.00    +0.000 A 
ATOM     21  C   UNL     1      50.761   4.239  17.861  0.00  0.00    +0.000 A 
ATOM     22  N   UNL     1      51.370   3.035  17.829  0.00  0.00    +0.000 NA
ATOM     23  C   UNL     1      50.675   2.021  17.275  0.00  0.00    +0.000 A 
ATOM     24  C   UNL     1      49.395   2.152  16.756  0.00  0.00    +0.000 A 
ENDBRANCH  18  19
ENDBRANCH  17  18
ENDBRANCH   3  17
TORSDOF 5
ENDMDL
MODEL 8
REMARK VINA RESULT:    -6.262      4.530      7.911
REMARK INTER + INTRA:          -8.915
REMARK INTER:                  -8.135
REMARK INTRA:                  -0.780
REMARK UNBOUND:                -0.823
REMARK  Name = 
REMARK  5 active torsions:
REMARK  status: ('A' for Active; 'I' for Inactive)
REMARK    1  A    between atoms: C_2  and  C_5
REMARK    2  A    between atoms: C_7  and  O_8
REMARK    3  A    between atoms: O_8  and  C_9
REMARK    4  A    between atoms: C_9  and  C_10
REMARK    5  A    between atoms: C_17  and  C_18
REMARK                            x       y       z     vdW  Elec       q    Type
REMARK                         _______ _______ _______ _____ _____    ______ ____
ROOT
ATOM      1  C   UNL     1      47.983   6.451  13.856  0.00  0.00    +0.000 A 
ATOM      2  C   UNL     1      48.077   5.718  15.042  0.00  0.00    +0.000 A 
ATOM      3  C   UNL     1      47.265   4.611  15.192  0.00  0.00    +0.000 A 
ATOM      4  N   UNL     1      46.363   4.216  14.270  0.00  0.00    +0.000 NA
ATOM      5  C   UNL     1      46.259   4.925  13.123  0.00  0.00    +0.000 A 
ATOM      6  C   UNL     1      47.052   6.045  12.888  0.00  0.00    +0.000 A 
ENDROOT
BRANCH   5   7
ATOM      7  C   UNL     1      45.271   4.418  12.155  0.00  0.00    +0.000 A 
ATOM      8  C   UNL     1      44.405   3.370  12.498  0.00  0.00    +0.000 A 
ATOM      9  C   UNL     1      43.501   2.900  11.559  0.00  0.00    +0.000 A 
ATOM     10  N   UNL     1      43.396   3.393  10.309  0.00  0.00    +0.000 NA
ATOM     11  C   UNL     1      44.236   4.395   9.983  0.00  0.00    +0.000 A 
ATOM     12  C   UNL     1      45.171   4.932  10.855  0.00  0.00    +0.000 A 
ENDBRANCH   5   7
BRANCH   1  14
ATOM     13  F   UNL     1      49.646   7.515  12.491  0.00  0.00    +0.000 F 
ATOM     14  C   UNL     1      48.860   7.644  13.593  0.00  0.00    +0.000 C 
ATOM     15  F   UNL     1      49.700   7.909  14.629  0.00  0.00    +0.000 F 
ATOM     16  F   UNL     1      48.132   8.780  13.405  0.00  0.00    +0.000 F 
ENDBRANCH   1  14
BRANCH   3  17
ATOM     17  O   UNL     1      47.381   3.897  16.367  0.00  0.00    +0.000 OA
BRANCH  17  18
ATOM     18  C   UNL     1      48.276   4.530  17.285  0.00  0.00    +0.000 C 
BRANCH  18  19
ATOM     19  C   UNL     1      49.553   3.733  17.373  0.00  0.00    +0.000 A 
ATOM     20  C   UNL     1      50.745   4.347  17.770  0.00  0.00    +0.000 A 
ATOM     21  C   UNL     1      51.885   3.571  17.894  0.00  0.00    +0.000 A 
ATOM     22  N   UNL     1      51.921   2.244  17.649  0.00  0.00    +0.000 NA
ATOM     23  C   UNL     1      50.764   1.671  17.260  0.00  0.00    +0.000 A 
ATOM     24  C   UNL     1      49.570   2.361  17.109  0.00  0.00    +0.000 A 
ENDBRANCH  18  19
ENDBRANCH  17  18
ENDBRANCH   3  17
TORSDOF 5
ENDMDL
MODEL 9
REMARK VINA RESULT:    -5.953      4.328      7.646
REMARK INTER + INTRA:          -8.516
REMARK INTER:                  -7.714
REMARK INTRA:                  -0.802
REMARK UNBOUND:                -0.823
REMARK  Name = 
REMARK  5 active torsions:
REMARK  status: ('A' for Active; 'I' for Inactive)
REMARK    1  A    between atoms: C_2  and  C_5
REMARK    2  A    between atoms: C_7  and  O_8
REMARK    3  A    between atoms: O_8  and  C_9
REMARK    4  A    between atoms: C_9  and  C_10
REMARK    5  A    between atoms: C_17  and  C_18
REMARK                            x       y       z     vdW  Elec       q    Type
REMARK                         _______ _______ _______ _____ _____    ______ ____
ROOT
ATOM      1  C   UNL     1      47.241   8.582  12.569  0.00  0.00    +0.000 A 
ATOM      2  C   UNL     1      48.208   8.058  13.432  0.00  0.00    +0.000 A 
ATOM      3  C   UNL     1      48.123   6.721  13.772  0.00  0.00    +0.000 A 
ATOM      4  N   UNL     1      47.141   5.903  13.345  0.00  0.00    +0.000 NA
ATOM      5  C   UNL     1      46.196   6.404  12.516  0.00  0.00    +0.000 A 
ATOM      6  C   UNL     1      46.219   7.737  12.113  0.00  0.00    +0.000 A 
ENDROOT
BRANCH   5   7
ATOM      7  C   UNL     1      45.172   5.444  12.072  0.00  0.00    +0.000 A 
ATOM      8  C   UNL     1      45.150   4.135  12.576  0.00  0.00    +0.000 A 
ATOM      9  C   UNL     1      44.187   3.248  12.122  0.00  0.00    +0.000 A 
ATOM     10  N   UNL     1      43.249   3.564  11.207  0.00  0.00    +0.000 NA
ATOM     11  C   UNL     1      43.280   4.821  10.722  0.00  0.00    +0.000 A 
ATOM     12  C   UNL     1      44.202   5.778  11.117  0.00  0.00    +0.000 A 
ENDBRANCH   5   7
BRANCH   1  14
ATOM     13  F   UNL     1      48.048  10.216  11.006  0.00  0.00    +0.000 F 
ATOM     14  C   UNL     1      47.283  10.015  12.113  0.00  0.00    +0.000 C 
ATOM     15  F   UNL     1      47.773  10.849  13.069  0.00  0.00    +0.000 F 
ATOM     16  F   UNL     1      46.044  10.488  11.805  0.00  0.00    +0.000 F 
ENDBRANCH   1  14
BRANCH   3  17
ATOM     17  O   UNL     1      49.093   6.224  14.618  0.00  0.00    +0.000 OA
BRANCH  17  18
ATOM     18  C   UNL     1      48.848   6.589  15.979  0.00  0.00    +0.000 C 
BRANCH  18  19
ATOM     19  C   UNL     1      48.651   5.343  16.806  0.00  0.00    +0.000 A 
ATOM     20  C   UNL     1      49.472   5.090  17.909  0.00  0.00    +0.000 A 
ATOM     21  C   UNL     1      49.226   3.965  18.678  0.00  0.00    +0.000 A 
ATOM     22  N   UNL     1      48.233   3.085  18.427  0.00  0.00    +0.000 NA
ATOM     23  C   UNL     1      47.456   3.343  17.355  0.00  0.00    +0.000 A 
ATOM     24  C   UNL     1      47.621   4.442  16.524  0.00  0.00    +0.000 A 
ENDBRANCH  18  19
ENDBRANCH  17  18
ENDBRANCH   3  17
TORSDOF 5
ENDMDL
