MODEL 1
REMARK VINA RESULT:    -8.479      0.000      0.000
REMARK INTER + INTRA:         -12.512
REMARK INTER:                 -11.701
REMARK INTRA:                  -0.811
REMARK UNBOUND:                -0.811
REMARK  Name = 
REMARK  7 active torsions:
REMARK  status: ('A' for Active; 'I' for Inactive)
REMARK    1  A    between atoms: C_2  and  C_4
REMARK    2  A    between atoms: C_7  and  O_8
REMARK    3  A    between atoms: O_8  and  C_9
REMARK    4  A    between atoms: C_9  and  C_10
REMARK    5  A    between atoms: C_15  and  C_16
REMARK    6  A    between atoms: CA_20  and  C_21
REMARK    7  A    between atoms: C_21  and  O_22
REMARK                            x       y       z     vdW  Elec       q    Type
REMARK                         _______ _______ _______ _____ _____    ______ ____
ROOT
ATOM      1  C   UNL     1      45.168   5.152  11.941  0.00  0.00    +0.000 A 
ATOM      2  C   UNL     1      45.579   4.195  12.877  0.00  0.00    +0.000 A 
ATOM      3  C   UNL     1      46.792   4.335  13.537  0.00  0.00    +0.000 A 
ATOM      4  F   UNL     1      47.174   3.399  14.414  0.00  0.00    +0.000 F 
ATOM      5  C   UNL     1      47.629   5.422  13.293  0.00  0.00    +0.000 A 
ATOM      6  C   UNL     1      47.262   6.415  12.376  0.00  0.00    +0.000 A 
ATOM      7  C   UNL     1      46.018   6.260  11.730  0.00  0.00    +0.000 A 
ENDROOT
BRANCH   6   8
ATOM      8  C   UNL     1      48.148   7.563  12.067  0.00  0.00    +0.000 A 
ATOM      9  C   UNL     1      47.666   8.880  12.067  0.00  0.00    +0.000 A 
ATOM     10  C   UNL     1      48.539   9.924  11.809  0.00  0.00    +0.000 A 
ATOM     11  N   UNL     1      49.855   9.766  11.550  0.00  0.00    +0.000 NA
ATOM     12  CA  UNL     1      50.323   8.497  11.522  0.00  0.00    +0.000 A 
ATOM     13  C   UNL     1      49.513   7.390  11.783  0.00  0.00    +0.000 A 
BRANCH  12  14
ATOM     14  C   UNL     1      51.798   8.315  11.253  0.00  0.00    +0.000 C 
BRANCH  14  15
ATOM     15  O   UNL     1      52.050   7.038  10.677  0.00  0.00    +0.000 OA
ATOM     16  H   UNL     1      51.180   6.598  10.633  0.00  0.00    +0.000 HD
ENDBRANCH  14  15
ENDBRANCH  12  14
ENDBRANCH   6   8
BRANCH   1  17
ATOM     17  C   UNL     1      43.867   4.994  11.174  0.00  0.00    +0.000 C 
ATOM     18  C   UNL     1      42.552   5.122  11.945  0.00  0.00    +0.000 C 
ATOM     19  C   UNL     1      42.968   6.203  11.008  0.00  0.00    +0.000 C 
BRANCH  17  20
ATOM     20  O   UNL     1      43.808   3.879  10.260  0.00  0.00    +0.000 OA
BRANCH  20  24
ATOM     21  C   UNL     1      46.538   2.772   7.496  0.00  0.00    +0.000 A 
ATOM     22  C   UNL     1      46.075   1.915   8.466  0.00  0.00    +0.000 A 
ATOM     23  N   UNL     1      45.251   2.299   9.463  0.00  0.00    +0.000 NA
ATOM     24  C   UNL     1      44.924   3.604   9.499  0.00  0.00    +0.000 A 
ATOM     25  N   UNL     1      45.393   4.540   8.655  0.00  0.00    +0.000 NA
ATOM     26  C   UNL     1      46.206   4.098   7.667  0.00  0.00    +0.000 A 
BRANCH  21  28
ATOM     27  N   UNL     1      47.199   3.109   5.192  0.00  0.00    +0.000 N 
ATOM     28  C   UNL     1      47.283   2.326   6.313  0.00  0.00    +0.000 C 
ATOM     29  O   UNL     1      48.004   1.339   6.351  0.00  0.00    +0.000 OA
ATOM     30  H   UNL     1      47.832   2.878   4.437  0.00  0.00    +0.000 HD
ATOM     31  H   UNL     1      46.835   4.053   5.204  0.00  0.00    +0.000 HD
ENDBRANCH  21  28
ENDBRANCH  20  24
ENDBRANCH  17  20
ENDBRANCH   1  17
TORSDOF 7
ENDMDL
MODEL 2
REMARK VINA RESULT:    -8.100      2.927      4.211
REMARK INTER + INTRA:         -11.988
REMARK INTER:                 -11.553
REMARK INTRA:                  -0.435
REMARK UNBOUND:                -0.811
REMARK  Name = 
REMARK  7 active torsions:
REMARK  status: ('A' for Active; 'I' for Inactive)
REMARK    1  A    between atoms: C_2  and  C_4
REMARK    2  A    between atoms: C_7  and  O_8
REMARK    3  A    between atoms: O_8  and  C_9
REMARK    4  A    between atoms: C_9  and  C_10
REMARK    5  A    between atoms: C_15  and  C_16
REMARK    6  A    between atoms: CA_20  and  C_21
REMARK    7  A    between atoms: C_21  and  O_22
REMARK                            x       y       z     vdW  Elec       q    Type
REMARK                         _______ _______ _______ _____ _____    ______ ____
ROOT
ATOM      1  C   UNL     1      45.365   5.721  12.148  0.00  0.00    +0.000 A 
ATOM      2  C   UNL     1      45.647   6.974  11.592  0.00  0.00    +0.000 A 
ATOM      3  C   UNL     1      46.628   7.784  12.148  0.00  0.00    +0.000 A 
ATOM      4  F   UNL     1      46.868   8.987  11.611  0.00  0.00    +0.000 F 
ATOM      5  C   UNL     1      47.357   7.379  13.263  0.00  0.00    +0.000 A 
ATOM      6  C   UNL     1      47.125   6.130  13.853  0.00  0.00    +0.000 A 
ATOM      7  C   UNL     1      46.135   5.318  13.261  0.00  0.00    +0.000 A 
ENDROOT
BRANCH   6   8
ATOM      8  C   UNL     1      47.856   5.686  15.064  0.00  0.00    +0.000 A 
ATOM      9  C   UNL     1      48.901   6.447  15.608  0.00  0.00    +0.000 A 
ATOM     10  C   UNL     1      49.531   6.013  16.762  0.00  0.00    +0.000 A 
ATOM     11  N   UNL     1      49.207   4.881  17.422  0.00  0.00    +0.000 NA
ATOM     12  CA  UNL     1      48.217   4.127  16.891  0.00  0.00    +0.000 A 
ATOM     13  C   UNL     1      47.523   4.499  15.738  0.00  0.00    +0.000 A 
BRANCH  12  14
ATOM     14  C   UNL     1      47.836   2.870  17.637  0.00  0.00    +0.000 C 
BRANCH  14  15
ATOM     15  O   UNL     1      46.420   2.744  17.716  0.00  0.00    +0.000 OA
ATOM     16  H   UNL     1      46.227   2.577  18.657  0.00  0.00    +0.000 HD
ENDBRANCH  14  15
ENDBRANCH  12  14
ENDBRANCH   6   8
BRANCH   1  17
ATOM     17  C   UNL     1      44.265   4.839  11.584  0.00  0.00    +0.000 C 
ATOM     18  C   UNL     1      42.909   4.833  12.291  0.00  0.00    +0.000 C 
ATOM     19  C   UNL     1      43.048   5.497  10.965  0.00  0.00    +0.000 C 
BRANCH  17  20
ATOM     20  O   UNL     1      44.656   3.495  11.233  0.00  0.00    +0.000 OA
BRANCH  20  24
ATOM     21  C   UNL     1      46.329   2.768   7.629  0.00  0.00    +0.000 A 
ATOM     22  C   UNL     1      46.087   4.039   8.091  0.00  0.00    +0.000 A 
ATOM     23  N   UNL     1      45.428   4.298   9.240  0.00  0.00    +0.000 NA
ATOM     24  C   UNL     1      44.963   3.231   9.915  0.00  0.00    +0.000 A 
ATOM     25  N   UNL     1      45.065   1.954   9.506  0.00  0.00    +0.000 NA
ATOM     26  C   UNL     1      45.746   1.751   8.353  0.00  0.00    +0.000 A 
BRANCH  21  28
ATOM     27  N   UNL     1      47.158   3.354   5.432  0.00  0.00    +0.000 N 
ATOM     28  C   UNL     1      47.196   2.476   6.482  0.00  0.00    +0.000 C 
ATOM     29  O   UNL     1      47.971   1.529   6.497  0.00  0.00    +0.000 OA
ATOM     30  H   UNL     1      47.866   3.229   4.718  0.00  0.00    +0.000 HD
ATOM     31  H   UNL     1      46.737   4.272   5.495  0.00  0.00    +0.000 HD
ENDBRANCH  21  28
ENDBRANCH  20  24
ENDBRANCH  17  20
ENDBRANCH   1  17
TORSDOF 7
ENDMDL
MODEL 3
REMARK VINA RESULT:    -8.048      3.378      7.307
REMARK INTER + INTRA:         -11.916
REMARK INTER:                 -11.360
REMARK INTRA:                  -0.556
REMARK UNBOUND:                -0.811
REMARK  Name = 
REMARK  7 active torsions:
REMARK  status: ('A' for Active; 'I' for Inactive)
REMARK    1  A    between atoms: C_2  and  C_4
REMARK    2  A    between atoms: C_7  and  O_8
REMARK    3  A    between atoms: O_8  and  C_9
REMARK    4  A    between atoms: C_9  and  C_10
REMARK    5  A    between atoms: C_15  and  C_16
REMARK    6  A    between atoms: CA_20  and  C_21
REMARK    7  A    between atoms: C_21  and  O_22
REMARK                            x       y       z     vdW  Elec       q    Type
REMARK                         _______ _______ _______ _____ _____    ______ ____
ROOT
ATOM      1  C   UNL     1      45.463   6.407  11.762  0.00  0.00    +0.000 A 
ATOM      2  C   UNL     1      44.094   6.545  12.015  0.00  0.00    +0.000 A 
ATOM      3  C   UNL     1      43.174   5.742  11.355  0.00  0.00    +0.000 A 
ATOM      4  F   UNL     1      41.867   5.903  11.599  0.00  0.00    +0.000 F 
ATOM      5  C   UNL     1      43.580   4.781  10.432  0.00  0.00    +0.000 A 
ATOM      6  C   UNL     1      44.939   4.591  10.150  0.00  0.00    +0.000 A 
ATOM      7  C   UNL     1      45.855   5.408  10.844  0.00  0.00    +0.000 A 
ENDROOT
BRANCH   6   8
ATOM      8  C   UNL     1      45.401   3.605   9.144  0.00  0.00    +0.000 A 
ATOM      9  C   UNL     1      45.291   2.224   9.369  0.00  0.00    +0.000 A 
ATOM     10  C   UNL     1      45.701   1.340   8.386  0.00  0.00    +0.000 A 
ATOM     11  N   UNL     1      46.212   1.715   7.193  0.00  0.00    +0.000 NA
ATOM     12  CA  UNL     1      46.346   3.044   6.978  0.00  0.00    +0.000 A 
ATOM     13  C   UNL     1      45.946   4.002   7.912  0.00  0.00    +0.000 A 
BRANCH  12  14
ATOM     14  C   UNL     1      46.896   3.470   5.638  0.00  0.00    +0.000 C 
BRANCH  14  15
ATOM     15  O   UNL     1      48.107   2.778   5.350  0.00  0.00    +0.000 OA
ATOM     16  H   UNL     1      48.666   3.421   4.875  0.00  0.00    +0.000 HD
ENDBRANCH  14  15
ENDBRANCH  12  14
ENDBRANCH   6   8
BRANCH   1  17
ATOM     17  C   UNL     1      46.483   7.306  12.438  0.00  0.00    +0.000 C 
ATOM     18  C   UNL     1      46.645   8.735  11.919  0.00  0.00    +0.000 C 
ATOM     19  C   UNL     1      45.990   8.497  13.235  0.00  0.00    +0.000 C 
BRANCH  17  20
ATOM     20  O   UNL     1      47.775   6.713  12.689  0.00  0.00    +0.000 OA
BRANCH  20  24
ATOM     21  C   UNL     1      47.516   4.630  16.141  0.00  0.00    +0.000 A 
ATOM     22  C   UNL     1      48.268   5.774  16.019  0.00  0.00    +0.000 A 
ATOM     23  N   UNL     1      48.456   6.418  14.849  0.00  0.00    +0.000 NA
ATOM     24  C   UNL     1      47.898   5.855  13.761  0.00  0.00    +0.000 A 
ATOM     25  N   UNL     1      47.221   4.693  13.755  0.00  0.00    +0.000 NA
ATOM     26  C   UNL     1      47.051   4.096  14.959  0.00  0.00    +0.000 A 
BRANCH  21  28
ATOM     27  N   UNL     1      47.331   4.805  18.548  0.00  0.00    +0.000 N 
ATOM     28  C   UNL     1      47.159   4.030  17.432  0.00  0.00    +0.000 C 
ATOM     29  O   UNL     1      46.662   2.915  17.497  0.00  0.00    +0.000 OA
ATOM     30  H   UNL     1      46.942   4.441  19.409  0.00  0.00    +0.000 HD
ATOM     31  H   UNL     1      47.485   5.805  18.508  0.00  0.00    +0.000 HD
ENDBRANCH  21  28
ENDBRANCH  20  24
ENDBRANCH  17  20
ENDBRANCH   1  17
TORSDOF 7
ENDMDL
MODEL 4
REMARK VINA RESULT:    -7.874      3.284      4.546
REMARK INTER + INTRA:         -11.677
REMARK INTER:                 -11.441
REMARK INTRA:                  -0.237
REMARK UNBOUND:                -0.811
REMARK  Name = 
REMARK  7 active torsions:
REMARK  status: ('A' for Active; 'I' for Inactive)
REMARK    1  A    between atoms: C_2  and  C_4
REMARK    2  A    between atoms: C_7  and  O_8
REMARK    3  A    between atoms: O_8  and  C_9
REMARK    4  A    between atoms: C_9  and  C_10
REMARK    5  A    between atoms: C_15  and  C_16
REMARK    6  A    between atoms: CA_20  and  C_21
REMARK    7  A    between atoms: C_21  and  O_22
REMARK                            x       y       z     vdW  Elec       q    Type
REMARK                         _______ _______ _______ _____ _____    ______ ____
ROOT
ATOM      1  C   UNL     1      45.410   5.206  12.131  0.00  0.00    +0.000 A 
ATOM      2  C   UNL     1      46.173   6.233  11.564  0.00  0.00    +0.000 A 
ATOM      3  C   UNL     1      47.314   6.695  12.206  0.00  0.00    +0.000 A 
ATOM      4  F   UNL     1      48.020   7.691  11.654  0.00  0.00    +0.000 F 
ATOM      5  C   UNL     1      47.733   6.156  13.420  0.00  0.00    +0.000 A 
ATOM      6  C   UNL     1      47.014   5.118  14.027  0.00  0.00    +0.000 A 
ATOM      7  C   UNL     1      45.867   4.654  13.348  0.00  0.00    +0.000 A 
ENDROOT
BRANCH   6   8
ATOM      8  C   UNL     1      47.411   4.550  15.337  0.00  0.00    +0.000 A 
ATOM      9  C   UNL     1      47.727   3.191  15.480  0.00  0.00    +0.000 A 
ATOM     10  C   UNL     1      48.129   2.712  16.716  0.00  0.00    +0.000 A 
ATOM     11  N   UNL     1      48.245   3.475  17.824  0.00  0.00    +0.000 NA
ATOM     12  CA  UNL     1      47.917   4.782  17.701  0.00  0.00    +0.000 A 
ATOM     13  C   UNL     1      47.514   5.347  16.490  0.00  0.00    +0.000 A 
BRANCH  12  14
ATOM     14  C   UNL     1      48.065   5.645  18.932  0.00  0.00    +0.000 C 
BRANCH  14  15
ATOM     15  O   UNL     1      46.938   5.493  19.789  0.00  0.00    +0.000 OA
ATOM     16  H   UNL     1      46.891   6.321  20.303  0.00  0.00    +0.000 HD
ENDBRANCH  14  15
ENDBRANCH  12  14
ENDBRANCH   6   8
BRANCH   1  17
ATOM     17  C   UNL     1      44.133   4.717  11.471  0.00  0.00    +0.000 C 
ATOM     18  C   UNL     1      42.798   5.061  12.132  0.00  0.00    +0.000 C 
ATOM     19  C   UNL     1      43.190   5.736  10.864  0.00  0.00    +0.000 C 
BRANCH  17  20
ATOM     20  O   UNL     1      44.139   3.342  11.034  0.00  0.00    +0.000 OA
BRANCH  20  24
ATOM     21  C   UNL     1      46.284   2.640   7.684  0.00  0.00    +0.000 A 
ATOM     22  C   UNL     1      45.890   3.902   8.062  0.00  0.00    +0.000 A 
ATOM     23  N   UNL     1      45.080   4.142   9.114  0.00  0.00    +0.000 NA
ATOM     24  C   UNL     1      44.621   3.062   9.773  0.00  0.00    +0.000 A 
ATOM     25  N   UNL     1      44.871   1.786   9.432  0.00  0.00    +0.000 NA
ATOM     26  C   UNL     1      45.700   1.602   8.376  0.00  0.00    +0.000 A 
BRANCH  21  28
ATOM     27  N   UNL     1      47.233   3.126   5.511  0.00  0.00    +0.000 N 
ATOM     28  C   UNL     1      47.303   2.384   6.660  0.00  0.00    +0.000 C 
ATOM     29  O   UNL     1      48.217   1.595   6.857  0.00  0.00    +0.000 OA
ATOM     30  H   UNL     1      48.022   3.052   4.881  0.00  0.00    +0.000 HD
ATOM     31  H   UNL     1      46.663   3.959   5.425  0.00  0.00    +0.000 HD
ENDBRANCH  21  28
ENDBRANCH  20  24
ENDBRANCH  17  20
ENDBRANCH   1  17
TORSDOF 7
ENDMDL
MODEL 5
REMARK VINA RESULT:    -7.585      3.812      7.558
REMARK INTER + INTRA:         -11.278
REMARK INTER:                 -10.910
REMARK INTRA:                  -0.368
REMARK UNBOUND:                -0.811
REMARK  Name = 
REMARK  7 active torsions:
REMARK  status: ('A' for Active; 'I' for Inactive)
REMARK    1  A    between atoms: C_2  and  C_4
REMARK    2  A    between atoms: C_7  and  O_8
REMARK    3  A    between atoms: O_8  and  C_9
REMARK    4  A    between atoms: C_9  and  C_10
REMARK    5  A    between atoms: C_15  and  C_16
REMARK    6  A    between atoms: CA_20  and  C_21
REMARK    7  A    between atoms: C_21  and  O_22
REMARK                            x       y       z     vdW  Elec       q    Type
REMARK                         _______ _______ _______ _____ _____    ______ ____
ROOT
ATOM      1  C   UNL     1      47.142   7.771  12.579  0.00  0.00    +0.000 A 
ATOM      2  C   UNL     1      46.261   8.858  12.539  0.00  0.00    +0.000 A 
ATOM      3  C   UNL     1      45.051   8.755  11.866  0.00  0.00    +0.000 A 
ATOM      4  F   UNL     1      44.231   9.813  11.825  0.00  0.00    +0.000 F 
ATOM      5  C   UNL     1      44.679   7.580  11.218  0.00  0.00    +0.000 A 
ATOM      6  C   UNL     1      45.517   6.458  11.236  0.00  0.00    +0.000 A 
ATOM      7  C   UNL     1      46.733   6.581  11.939  0.00  0.00    +0.000 A 
ENDROOT
BRANCH   6   8
ATOM      8  C   UNL     1      45.167   5.206  10.523  0.00  0.00    +0.000 A 
ATOM      9  C   UNL     1      44.305   4.257  11.091  0.00  0.00    +0.000 A 
ATOM     10  C   UNL     1      43.976   3.120  10.372  0.00  0.00    +0.000 A 
ATOM     11  N   UNL     1      44.435   2.848   9.132  0.00  0.00    +0.000 NA
ATOM     12  CA  UNL     1      45.288   3.745   8.587  0.00  0.00    +0.000 A 
ATOM     13  C   UNL     1      45.661   4.922   9.238  0.00  0.00    +0.000 A 
BRANCH  12  14
ATOM     14  C   UNL     1      45.788   3.456   7.191  0.00  0.00    +0.000 C 
BRANCH  14  15
ATOM     15  O   UNL     1      46.866   4.324   6.855  0.00  0.00    +0.000 OA
ATOM     16  H   UNL     1      46.447   5.127   6.493  0.00  0.00    +0.000 HD
ENDBRANCH  14  15
ENDBRANCH  12  14
ENDBRANCH   6   8
BRANCH   1  17
ATOM     17  C   UNL     1      48.491   7.876  13.270  0.00  0.00    +0.000 C 
ATOM     18  C   UNL     1      49.576   8.731  12.613  0.00  0.00    +0.000 C 
ATOM     19  C   UNL     1      48.908   9.211  13.854  0.00  0.00    +0.000 C 
BRANCH  17  20
ATOM     20  O   UNL     1      49.049   6.635  13.749  0.00  0.00    +0.000 OA
BRANCH  20  24
ATOM     21  C   UNL     1      47.813   4.273  16.784  0.00  0.00    +0.000 A 
ATOM     22  C   UNL     1      47.202   4.280  15.553  0.00  0.00    +0.000 A 
ATOM     23  N   UNL     1      47.529   5.140  14.567  0.00  0.00    +0.000 NA
ATOM     24  C   UNL     1      48.476   6.051  14.859  0.00  0.00    +0.000 A 
ATOM     25  N   UNL     1      49.070   6.189  16.057  0.00  0.00    +0.000 NA
ATOM     26  C   UNL     1      48.714   5.291  17.006  0.00  0.00    +0.000 A 
BRANCH  21  28
ATOM     27  N   UNL     1      48.414   3.235  18.886  0.00  0.00    +0.000 N 
ATOM     28  C   UNL     1      47.591   3.229  17.792  0.00  0.00    +0.000 C 
ATOM     29  O   UNL     1      46.666   2.436  17.691  0.00  0.00    +0.000 OA
ATOM     30  H   UNL     1      48.157   2.612  19.642  0.00  0.00    +0.000 HD
ATOM     31  H   UNL     1      49.005   4.020  19.130  0.00  0.00    +0.000 HD
ENDBRANCH  21  28
ENDBRANCH  20  24
ENDBRANCH  17  20
ENDBRANCH   1  17
TORSDOF 7
ENDMDL
MODEL 6
REMARK VINA RESULT:    -7.173      1.670      2.166
REMARK INTER + INTRA:         -10.709
REMARK INTER:                 -10.391
REMARK INTRA:                  -0.318
REMARK UNBOUND:                -0.811
REMARK  Name = 
REMARK  7 active torsions:
REMARK  status: ('A' for Active; 'I' for Inactive)
REMARK    1  A    between atoms: C_2  and  C_4
REMARK    2  A    between atoms: C_7  and  O_8
REMARK    3  A    between atoms: O_8  and  C_9
REMARK    4  A    between atoms: C_9  and  C_10
REMARK    5  A    between atoms: C_15  and  C_16
REMARK    6  A    between atoms: CA_20  and  C_21
REMARK    7  A    between atoms: C_21  and  O_22
REMARK                            x       y       z     vdW  Elec       q    Type
REMARK                         _______ _______ _______ _____ _____    ______ ____
ROOT
ATOM      1  C   UNL     1      45.329   4.941  12.364  0.00  0.00    +0.000 A 
ATOM      2  C   UNL     1      45.783   4.022  13.317  0.00  0.00    +0.000 A 
ATOM      3  C   UNL     1      46.945   4.270  14.034  0.00  0.00    +0.000 A 
ATOM      4  F   UNL     1      47.371   3.369  14.928  0.00  0.00    +0.000 F 
ATOM      5  C   UNL     1      47.688   5.431  13.832  0.00  0.00    +0.000 A 
ATOM      6  C   UNL     1      47.274   6.391  12.899  0.00  0.00    +0.000 A 
ATOM      7  C   UNL     1      46.082   6.124  12.195  0.00  0.00    +0.000 A 
ENDROOT
BRANCH   6   8
ATOM      8  C   UNL     1      48.063   7.617  12.633  0.00  0.00    +0.000 A 
ATOM      9  C   UNL     1      48.838   7.751  11.472  0.00  0.00    +0.000 A 
ATOM     10  C   UNL     1      49.529   8.930  11.247  0.00  0.00    +0.000 A 
ATOM     11  N   UNL     1      49.514   9.990  12.084  0.00  0.00    +0.000 NA
ATOM     12  CA  UNL     1      48.790   9.859  13.219  0.00  0.00    +0.000 A 
ATOM     13  C   UNL     1      48.055   8.710  13.516  0.00  0.00    +0.000 A 
BRANCH  12  14
ATOM     14  C   UNL     1      48.752  11.049  14.149  0.00  0.00    +0.000 C 
BRANCH  14  15
ATOM     15  O   UNL     1      48.571  10.628  15.496  0.00  0.00    +0.000 OA
ATOM     16  H   UNL     1      49.333  10.052  15.692  0.00  0.00    +0.000 HD
ENDBRANCH  14  15
ENDBRANCH  12  14
ENDBRANCH   6   8
BRANCH   1  17
ATOM     17  C   UNL     1      44.086   4.668  11.536  0.00  0.00    +0.000 C 
ATOM     18  C   UNL     1      42.736   5.140  12.079  0.00  0.00    +0.000 C 
ATOM     19  C   UNL     1      43.351   5.839  10.917  0.00  0.00    +0.000 C 
BRANCH  17  20
ATOM     20  O   UNL     1      43.972   3.335  10.995  0.00  0.00    +0.000 OA
BRANCH  20  24
ATOM     21  C   UNL     1      46.122   2.808   7.616  0.00  0.00    +0.000 A 
ATOM     22  C   UNL     1      45.671   4.041   8.024  0.00  0.00    +0.000 A 
ATOM     23  N   UNL     1      44.859   4.220   9.086  0.00  0.00    +0.000 NA
ATOM     24  C   UNL     1      44.457   3.106   9.726  0.00  0.00    +0.000 A 
ATOM     25  N   UNL     1      44.766   1.850   9.355  0.00  0.00    +0.000 NA
ATOM     26  C   UNL     1      45.594   1.729   8.290  0.00  0.00    +0.000 A 
BRANCH  21  28
ATOM     27  N   UNL     1      48.254   1.898   6.922  0.00  0.00    +0.000 N 
ATOM     28  C   UNL     1      47.144   2.623   6.580  0.00  0.00    +0.000 C 
ATOM     29  O   UNL     1      46.977   3.038   5.441  0.00  0.00    +0.000 OA
ATOM     30  H   UNL     1      48.877   1.648   6.163  0.00  0.00    +0.000 HD
ATOM     31  H   UNL     1      48.305   1.324   7.755  0.00  0.00    +0.000 HD
ENDBRANCH  21  28
ENDBRANCH  20  24
ENDBRANCH  17  20
ENDBRANCH   1  17
TORSDOF 7
ENDMDL
MODEL 7
REMARK VINA RESULT:    -7.095      4.245      8.298
REMARK INTER + INTRA:         -10.602
REMARK INTER:                  -9.734
REMARK INTRA:                  -0.868
REMARK UNBOUND:                -0.811
REMARK  Name = 
REMARK  7 active torsions:
REMARK  status: ('A' for Active; 'I' for Inactive)
REMARK    1  A    between atoms: C_2  and  C_4
REMARK    2  A    between atoms: C_7  and  O_8
REMARK    3  A    between atoms: O_8  and  C_9
REMARK    4  A    between atoms: C_9  and  C_10
REMARK    5  A    between atoms: C_15  and  C_16
REMARK    6  A    between atoms: CA_20  and  C_21
REMARK    7  A    between atoms: C_21  and  O_22
REMARK                            x       y       z     vdW  Elec       q    Type
REMARK                         _______ _______ _______ _____ _____    ______ ____
ROOT
ATOM      1  C   UNL     1      47.573   7.842  12.908  0.00  0.00    +0.000 A 
ATOM      2  C   UNL     1      46.756   8.974  13.006  0.00  0.00    +0.000 A 
ATOM      3  C   UNL     1      45.496   8.982  12.423  0.00  0.00    +0.000 A 
ATOM      4  F   UNL     1      44.738  10.082  12.513  0.00  0.00    +0.000 F 
ATOM      5  C   UNL     1      45.009   7.876  11.731  0.00  0.00    +0.000 A 
ATOM      6  C   UNL     1      45.780   6.711  11.612  0.00  0.00    +0.000 A 
ATOM      7  C   UNL     1      47.049   6.721  12.227  0.00  0.00    +0.000 A 
ENDROOT
BRANCH   6   8
ATOM      8  C   UNL     1      45.307   5.532  10.850  0.00  0.00    +0.000 A 
ATOM      9  C   UNL     1      45.658   5.340   9.505  0.00  0.00    +0.000 A 
ATOM     10  C   UNL     1      45.223   4.204   8.844  0.00  0.00    +0.000 A 
ATOM     11  N   UNL     1      44.466   3.240   9.409  0.00  0.00    +0.000 NA
ATOM     12  CA  UNL     1      44.100   3.429  10.698  0.00  0.00    +0.000 A 
ATOM     13  C   UNL     1      44.506   4.540  11.440  0.00  0.00    +0.000 A 
BRANCH  12  14
ATOM     14  C   UNL     1      43.271   2.344  11.342  0.00  0.00    +0.000 C 
BRANCH  14  15
ATOM     15  O   UNL     1      43.572   2.240  12.730  0.00  0.00    +0.000 OA
ATOM     16  H   UNL     1      44.494   1.927  12.772  0.00  0.00    +0.000 HD
ENDBRANCH  14  15
ENDBRANCH  12  14
ENDBRANCH   6   8
BRANCH   1  17
ATOM     17  C   UNL     1      48.972   7.828  13.498  0.00  0.00    +0.000 C 
ATOM     18  C   UNL     1      50.132   8.305  12.623  0.00  0.00    +0.000 C 
ATOM     19  C   UNL     1      49.667   9.149  13.758  0.00  0.00    +0.000 C 
BRANCH  17  20
ATOM     20  O   UNL     1      49.341   6.628  14.211  0.00  0.00    +0.000 OA
BRANCH  20  24
ATOM     21  C   UNL     1      48.247   5.456  17.919  0.00  0.00    +0.000 A 
ATOM     22  C   UNL     1      47.940   4.732  16.791  0.00  0.00    +0.000 A 
ATOM     23  N   UNL     1      48.198   5.164  15.539  0.00  0.00    +0.000 NA
ATOM     24  C   UNL     1      48.744   6.389  15.431  0.00  0.00    +0.000 A 
ATOM     25  N   UNL     1      49.000   7.214  16.462  0.00  0.00    +0.000 NA
ATOM     26  C   UNL     1      48.733   6.725  17.696  0.00  0.00    +0.000 A 
BRANCH  21  28
ATOM     27  N   UNL     1      48.410   3.587  19.448  0.00  0.00    +0.000 N 
ATOM     28  C   UNL     1      48.136   4.918  19.279  0.00  0.00    +0.000 C 
ATOM     29  O   UNL     1      47.881   5.644  20.230  0.00  0.00    +0.000 OA
ATOM     30  H   UNL     1      48.480   3.262  20.404  0.00  0.00    +0.000 HD
ATOM     31  H   UNL     1      48.874   3.025  18.745  0.00  0.00    +0.000 HD
ENDBRANCH  21  28
ENDBRANCH  20  24
ENDBRANCH  17  20
ENDBRANCH   1  17
TORSDOF 7
ENDMDL
MODEL 8
REMARK VINA RESULT:    -6.764      5.476      8.484
REMARK INTER + INTRA:         -10.146
REMARK INTER:                  -9.697
REMARK INTRA:                  -0.448
REMARK UNBOUND:                -0.811
REMARK  Name = 
REMARK  7 active torsions:
REMARK  status: ('A' for Active; 'I' for Inactive)
REMARK    1  A    between atoms: C_2  and  C_4
REMARK    2  A    between atoms: C_7  and  O_8
REMARK    3  A    between atoms: O_8  and  C_9
REMARK    4  A    between atoms: C_9  and  C_10
REMARK    5  A    between atoms: C_15  and  C_16
REMARK    6  A    between atoms: CA_20  and  C_21
REMARK    7  A    between atoms: C_21  and  O_22
REMARK                            x       y       z     vdW  Elec       q    Type
REMARK                         _______ _______ _______ _____ _____    ______ ____
ROOT
ATOM      1  C   UNL     1      48.272   5.499  15.944  0.00  0.00    +0.000 A 
ATOM      2  C   UNL     1      49.195   6.521  15.697  0.00  0.00    +0.000 A 
ATOM      3  C   UNL     1      49.187   7.196  14.483  0.00  0.00    +0.000 A 
ATOM      4  F   UNL     1      50.091   8.158  14.261  0.00  0.00    +0.000 F 
ATOM      5  C   UNL     1      48.269   6.881  13.485  0.00  0.00    +0.000 A 
ATOM      6  C   UNL     1      47.314   5.875  13.683  0.00  0.00    +0.000 A 
ATOM      7  C   UNL     1      47.332   5.215  14.929  0.00  0.00    +0.000 A 
ENDROOT
BRANCH   6   8
ATOM      8  C   UNL     1      46.349   5.490  12.626  0.00  0.00    +0.000 A 
ATOM      9  C   UNL     1      46.377   6.087  11.357  0.00  0.00    +0.000 A 
ATOM     10  C   UNL     1      45.480   5.670  10.388  0.00  0.00    +0.000 A 
ATOM     11  N   UNL     1      44.554   4.704  10.577  0.00  0.00    +0.000 NA
ATOM     12  CA  UNL     1      44.503   4.141  11.806  0.00  0.00    +0.000 A 
ATOM     13  C   UNL     1      45.378   4.496  12.834  0.00  0.00    +0.000 A 
BRANCH  12  14
ATOM     14  C   UNL     1      43.484   3.047  12.017  0.00  0.00    +0.000 C 
BRANCH  14  15
ATOM     15  O   UNL     1      43.547   2.093  10.962  0.00  0.00    +0.000 OA
ATOM     16  H   UNL     1      44.158   2.474  10.305  0.00  0.00    +0.000 HD
ENDBRANCH  14  15
ENDBRANCH  12  14
ENDBRANCH   6   8
BRANCH   1  17
ATOM     17  C   UNL     1      48.293   4.717  17.246  0.00  0.00    +0.000 C 
ATOM     18  C   UNL     1      47.133   4.908  18.224  0.00  0.00    +0.000 C 
ATOM     19  C   UNL     1      47.256   3.634  17.462  0.00  0.00    +0.000 C 
BRANCH  17  20
ATOM     20  O   UNL     1      49.551   4.709  17.953  0.00  0.00    +0.000 OA
BRANCH  20  24
ATOM     21  C   UNL     1      52.249   1.720  17.627  0.00  0.00    +0.000 A 
ATOM     22  C   UNL     1      52.580   2.972  18.089  0.00  0.00    +0.000 A 
ATOM     23  N   UNL     1      51.720   4.011  18.098  0.00  0.00    +0.000 NA
ATOM     24  C   UNL     1      50.500   3.781  17.580  0.00  0.00    +0.000 A 
ATOM     25  N   UNL     1      50.104   2.623  17.022  0.00  0.00    +0.000 NA
ATOM     26  C   UNL     1      51.003   1.610  17.050  0.00  0.00    +0.000 A 
BRANCH  21  28
ATOM     27  N   UNL     1      52.623  -0.500  18.516  0.00  0.00    +0.000 N 
ATOM     28  C   UNL     1      53.115   0.546  17.781  0.00  0.00    +0.000 C 
ATOM     29  O   UNL     1      54.198   0.477  17.217  0.00  0.00    +0.000 OA
ATOM     30  H   UNL     1      53.160  -1.358  18.489  0.00  0.00    +0.000 HD
ATOM     31  H   UNL     1      51.647  -0.586  18.769  0.00  0.00    +0.000 HD
ENDBRANCH  21  28
ENDBRANCH  20  24
ENDBRANCH  17  20
ENDBRANCH   1  17
TORSDOF 7
ENDMDL
MODEL 9
REMARK VINA RESULT:    -6.475      4.255      6.169
REMARK INTER + INTRA:          -9.746
REMARK INTER:                  -9.106
REMARK INTRA:                  -0.639
REMARK UNBOUND:                -0.811
REMARK  Name = 
REMARK  7 active torsions:
REMARK  status: ('A' for Active; 'I' for Inactive)
REMARK    1  A    between atoms: C_2  and  C_4
REMARK    2  A    between atoms: C_7  and  O_8
REMARK    3  A    between atoms: O_8  and  C_9
REMARK    4  A    between atoms: C_9  and  C_10
REMARK    5  A    between atoms: C_15  and  C_16
REMARK    6  A    between atoms: CA_20  and  C_21
REMARK    7  A    between atoms: C_21  and  O_22
REMARK                            x       y       z     vdW  Elec       q    Type
REMARK                         _______ _______ _______ _____ _____    ______ ____
ROOT
ATOM      1  C   UNL     1      48.246   7.945  14.232  0.00  0.00    +0.000 A 
ATOM      2  C   UNL     1      48.221   9.210  14.830  0.00  0.00    +0.000 A 
ATOM      3  C   UNL     1      48.377   9.340  16.204  0.00  0.00    +0.000 A 
ATOM      4  F   UNL     1      48.332  10.558  16.758  0.00  0.00    +0.000 F 
ATOM      5  C   UNL     1      48.562   8.227  17.021  0.00  0.00    +0.000 A 
ATOM      6  C   UNL     1      48.607   6.938  16.474  0.00  0.00    +0.000 A 
ATOM      7  C   UNL     1      48.463   6.833  15.075  0.00  0.00    +0.000 A 
ENDROOT
BRANCH   6   8
ATOM      8  C   UNL     1      48.764   5.732  17.321  0.00  0.00    +0.000 A 
ATOM      9  C   UNL     1      48.306   5.704  18.647  0.00  0.00    +0.000 A 
ATOM     10  C   UNL     1      48.440   4.542  19.388  0.00  0.00    +0.000 A 
ATOM     11  N   UNL     1      48.993   3.403  18.920  0.00  0.00    +0.000 NA
ATOM     12  CA  UNL     1      49.461   3.429  17.651  0.00  0.00    +0.000 A 
ATOM     13  C   UNL     1      49.354   4.554  16.832  0.00  0.00    +0.000 A 
BRANCH  12  14
ATOM     14  C   UNL     1      50.061   2.151  17.115  0.00  0.00    +0.000 C 
BRANCH  14  15
ATOM     15  O   UNL     1      49.411   1.758  15.910  0.00  0.00    +0.000 OA
ATOM     16  H   UNL     1      49.780   0.882  15.692  0.00  0.00    +0.000 HD
ENDBRANCH  14  15
ENDBRANCH  12  14
ENDBRANCH   6   8
BRANCH   1  17
ATOM     17  C   UNL     1      48.031   7.777  12.738  0.00  0.00    +0.000 C 
ATOM     18  C   UNL     1      48.714   8.767  11.793  0.00  0.00    +0.000 C 
ATOM     19  C   UNL     1      49.206   7.364  11.875  0.00  0.00    +0.000 C 
BRANCH  17  20
ATOM     20  O   UNL     1      46.670   7.541  12.322  0.00  0.00    +0.000 OA
BRANCH  20  24
ATOM     21  C   UNL     1      44.927   4.065  11.226  0.00  0.00    +0.000 A 
ATOM     22  C   UNL     1      45.333   4.317  12.515  0.00  0.00    +0.000 A 
ATOM     23  N   UNL     1      46.017   5.423  12.874  0.00  0.00    +0.000 NA
ATOM     24  C   UNL     1      46.335   6.277  11.884  0.00  0.00    +0.000 A 
ATOM     25  N   UNL     1      46.067   6.081  10.581  0.00  0.00    +0.000 NA
ATOM     26  C   UNL     1      45.368   4.961  10.278  0.00  0.00    +0.000 A 
BRANCH  21  28
ATOM     27  N   UNL     1      44.412   2.171   9.810  0.00  0.00    +0.000 N 
ATOM     28  C   UNL     1      44.032   2.961  10.862  0.00  0.00    +0.000 C 
ATOM     29  O   UNL     1      43.028   2.715  11.517  0.00  0.00    +0.000 OA
ATOM     30  H   UNL     1      43.871   1.328   9.665  0.00  0.00    +0.000 HD
ATOM     31  H   UNL     1      45.347   2.180   9.422  0.00  0.00    +0.000 HD
ENDBRANCH  21  28
ENDBRANCH  20  24
ENDBRANCH  17  20
ENDBRANCH   1  17
TORSDOF 7
ENDMDL
