MODEL 1
REMARK VINA RESULT:    -8.162      0.000      0.000
REMARK INTER + INTRA:         -12.572
REMARK INTER:                 -11.502
REMARK INTRA:                  -1.070
REMARK UNBOUND:                -1.070
REMARK  Name = 
REMARK  7 active torsions:
REMARK  status: ('A' for Active; 'I' for Inactive)
REMARK    1  A    between atoms: C_2  and  C_3
REMARK    2  A    between atoms: C_2  and  C_13
REMARK    3  A    between atoms: C_3  and  N_4
REMARK    4  A    between atoms: C_5  and  C_7
REMARK    5  A    between atoms: C_16  and  C_17
REMARK    6  A    between atoms: C_17  and  N_18
REMARK    7  A    between atoms: C_19  and  C_21
REMARK                            x       y       z     vdW  Elec       q    Type
REMARK                         _______ _______ _______ _____ _____    ______ ____
ROOT
ATOM      1  C   UNL     1      46.568   4.863  13.419  0.00  0.00    +0.000 A 
ATOM      2  C   UNL     1      47.272   5.971  12.978  0.00  0.00    +0.000 A 
ATOM      3  C   UNL     1      48.140   6.606  13.869  0.00  0.00    +0.000 A 
ATOM      4  C   UNL     1      48.283   6.130  15.178  0.00  0.00    +0.000 A 
ATOM      5  C   UNL     1      47.537   5.005  15.516  0.00  0.00    +0.000 A 
ATOM      6  N   UNL     1      46.677   4.373  14.679  0.00  0.00    +0.000 NA
ENDROOT
BRANCH   1   8
ATOM      7  O   UNL     1      45.415   2.975  12.573  0.00  0.00    +0.000 OA
ATOM      8  C   UNL     1      45.608   4.187  12.496  0.00  0.00    +0.000 C 
BRANCH   8   9
ATOM      9  C   UNL     1      44.990   5.044  11.404  0.00  0.00    +0.000 C 
BRANCH   9  10
ATOM     10  N   UNL     1      44.697   4.262  10.218  0.00  0.00    +0.000 N 
ATOM     11  C   UNL     1      45.331   4.554   9.031  0.00  0.00    +0.000 C 
ATOM     12  O   UNL     1      46.156   5.453   8.938  0.00  0.00    +0.000 OA
ATOM     13  H   UNL     1      44.190   3.393  10.322  0.00  0.00    +0.000 HD
BRANCH  11  14
ATOM     14  C   UNL     1      44.940   3.651   7.857  0.00  0.00    +0.000 C 
ATOM     15  C   UNL     1      44.588   2.230   8.328  0.00  0.00    +0.000 C 
ATOM     16  C   UNL     1      45.825   1.413   8.705  0.00  0.00    +0.000 C 
ATOM     17  N   UNL     1      46.808   1.389   7.620  0.00  0.00    +0.000 NA
ATOM     18  C   UNL     1      47.231   2.744   7.270  0.00  0.00    +0.000 C 
ATOM     19  C   UNL     1      46.053   3.597   6.804  0.00  0.00    +0.000 C 
ATOM     20  H   UNL     1      46.396   0.937   6.804  0.00  0.00    +0.000 HD
ENDBRANCH  11  14
ENDBRANCH   9  10
ENDBRANCH   8   9
ENDBRANCH   1   8
BRANCH   4  21
ATOM     21  C   UNL     1      49.181   6.790  16.195  0.00  0.00    +0.000 C 
BRANCH  21  22
ATOM     22  N   UNL     1      50.209   5.915  16.693  0.00  0.00    +0.000 N 
ATOM     23  C   UNL     1      50.248   5.513  18.014  0.00  0.00    +0.000 C 
ATOM     24  O   UNL     1      49.404   5.849  18.832  0.00  0.00    +0.000 OA
ATOM     25  H   UNL     1      51.092   5.929  16.192  0.00  0.00    +0.000 HD
BRANCH  23  26
ATOM     26  C   UNL     1      51.351   4.600  18.357  0.00  0.00    +0.000 A 
ATOM     27  C   UNL     1      52.432   5.049  19.107  0.00  0.00    +0.000 A 
ATOM     28  S   UNL     1      53.586   3.830  19.428  0.00  0.00    +0.000 S 
ATOM     29  C   UNL     1      52.712   2.682  18.533  0.00  0.00    +0.000 A 
ATOM     30  N   UNL     1      53.170   1.409  18.370  0.00  0.00    +0.000 NA
ATOM     31  C   UNL     1      52.421   0.657  17.637  0.00  0.00    +0.000 A 
ATOM     32  N   UNL     1      51.241   1.055  17.060  0.00  0.00    +0.000 N 
ATOM     33  C   UNL     1      50.705   2.300  17.254  0.00  0.00    +0.000 A 
ATOM     34  O   UNL     1      49.597   2.595  16.815  0.00  0.00    +0.000 OA
ATOM     35  C   UNL     1      51.531   3.204  18.028  0.00  0.00    +0.000 A 
ATOM     36  H   UNL     1      50.685   0.408  16.519  0.00  0.00    +0.000 HD
ENDBRANCH  23  26
ENDBRANCH  21  22
ENDBRANCH   4  21
TORSDOF 7
ENDMDL
MODEL 2
REMARK VINA RESULT:    -7.787      3.263      9.220
REMARK INTER + INTRA:         -12.043
REMARK INTER:                 -10.602
REMARK INTRA:                  -1.440
REMARK UNBOUND:                -1.070
REMARK  Name = 
REMARK  7 active torsions:
REMARK  status: ('A' for Active; 'I' for Inactive)
REMARK    1  A    between atoms: C_2  and  C_3
REMARK    2  A    between atoms: C_2  and  C_13
REMARK    3  A    between atoms: C_3  and  N_4
REMARK    4  A    between atoms: C_5  and  C_7
REMARK    5  A    between atoms: C_16  and  C_17
REMARK    6  A    between atoms: C_17  and  N_18
REMARK    7  A    between atoms: C_19  and  C_21
REMARK                            x       y       z     vdW  Elec       q    Type
REMARK                         _______ _______ _______ _____ _____    ______ ____
ROOT
ATOM      1  C   UNL     1      50.741   7.467  15.106  0.00  0.00    +0.000 A 
ATOM      2  C   UNL     1      51.070   8.286  14.039  0.00  0.00    +0.000 A 
ATOM      3  C   UNL     1      50.150   8.419  12.995  0.00  0.00    +0.000 A 
ATOM      4  C   UNL     1      48.931   7.731  13.034  0.00  0.00    +0.000 A 
ATOM      5  C   UNL     1      48.697   6.943  14.156  0.00  0.00    +0.000 A 
ATOM      6  N   UNL     1      49.573   6.783  15.180  0.00  0.00    +0.000 NA
ENDROOT
BRANCH   1   8
ATOM      7  O   UNL     1      52.395   8.228  16.622  0.00  0.00    +0.000 OA
ATOM      8  C   UNL     1      51.721   7.282  16.218  0.00  0.00    +0.000 C 
BRANCH   8   9
ATOM      9  C   UNL     1      51.920   5.863  16.726  0.00  0.00    +0.000 C 
BRANCH   9  10
ATOM     10  N   UNL     1      50.936   5.518  17.735  0.00  0.00    +0.000 N 
ATOM     11  C   UNL     1      50.372   4.262  17.739  0.00  0.00    +0.000 C 
ATOM     12  O   UNL     1      50.682   3.406  16.921  0.00  0.00    +0.000 OA
ATOM     13  H   UNL     1      50.828   6.127  18.535  0.00  0.00    +0.000 HD
BRANCH  11  14
ATOM     14  C   UNL     1      49.354   4.022  18.858  0.00  0.00    +0.000 C 
ATOM     15  C   UNL     1      48.248   3.048  18.418  0.00  0.00    +0.000 C 
ATOM     16  C   UNL     1      47.238   3.698  17.469  0.00  0.00    +0.000 C 
ATOM     17  N   UNL     1      46.676   4.925  18.036  0.00  0.00    +0.000 NA
ATOM     18  C   UNL     1      47.731   5.893  18.331  0.00  0.00    +0.000 C 
ATOM     19  C   UNL     1      48.737   5.340  19.339  0.00  0.00    +0.000 C 
ATOM     20  H   UNL     1      46.171   4.699  18.892  0.00  0.00    +0.000 HD
ENDBRANCH  11  14
ENDBRANCH   9  10
ENDBRANCH   8   9
ENDBRANCH   1   8
BRANCH   4  21
ATOM     21  C   UNL     1      47.912   7.811  11.925  0.00  0.00    +0.000 C 
BRANCH  21  22
ATOM     22  N   UNL     1      47.101   6.626  11.817  0.00  0.00    +0.000 N 
ATOM     23  C   UNL     1      45.722   6.688  11.778  0.00  0.00    +0.000 C 
ATOM     24  O   UNL     1      45.107   7.744  11.804  0.00  0.00    +0.000 OA
ATOM     25  H   UNL     1      47.512   5.768  12.170  0.00  0.00    +0.000 HD
BRANCH  23  26
ATOM     26  C   UNL     1      45.042   5.389  11.644  0.00  0.00    +0.000 A 
ATOM     27  C   UNL     1      44.319   4.858  12.706  0.00  0.00    +0.000 A 
ATOM     28  S   UNL     1      43.577   3.362  12.339  0.00  0.00    +0.000 S 
ATOM     29  C   UNL     1      44.242   3.347  10.776  0.00  0.00    +0.000 A 
ATOM     30  N   UNL     1      44.028   2.306   9.923  0.00  0.00    +0.000 NA
ATOM     31  C   UNL     1      44.623   2.413   8.785  0.00  0.00    +0.000 A 
ATOM     32  N   UNL     1      45.406   3.476   8.408  0.00  0.00    +0.000 N 
ATOM     33  C   UNL     1      45.591   4.576   9.203  0.00  0.00    +0.000 A 
ATOM     34  O   UNL     1      46.208   5.559   8.801  0.00  0.00    +0.000 OA
ATOM     35  C   UNL     1      44.986   4.486  10.516  0.00  0.00    +0.000 A 
ATOM     36  H   UNL     1      45.822   3.512   7.489  0.00  0.00    +0.000 HD
ENDBRANCH  23  26
ENDBRANCH  21  22
ENDBRANCH   4  21
TORSDOF 7
ENDMDL
MODEL 3
REMARK VINA RESULT:    -7.677      1.981      2.891
REMARK INTER + INTRA:         -11.888
REMARK INTER:                 -10.882
REMARK INTRA:                  -1.006
REMARK UNBOUND:                -1.070
REMARK  Name = 
REMARK  7 active torsions:
REMARK  status: ('A' for Active; 'I' for Inactive)
REMARK    1  A    between atoms: C_2  and  C_3
REMARK    2  A    between atoms: C_2  and  C_13
REMARK    3  A    between atoms: C_3  and  N_4
REMARK    4  A    between atoms: C_5  and  C_7
REMARK    5  A    between atoms: C_16  and  C_17
REMARK    6  A    between atoms: C_17  and  N_18
REMARK    7  A    between atoms: C_19  and  C_21
REMARK                            x       y       z     vdW  Elec       q    Type
REMARK                         _______ _______ _______ _____ _____    ______ ____
ROOT
ATOM      1  C   UNL     1      47.538   4.459  15.589  0.00  0.00    +0.000 A 
ATOM      2  C   UNL     1      47.347   3.527  16.596  0.00  0.00    +0.000 A 
ATOM      3  C   UNL     1      48.039   3.695  17.798  0.00  0.00    +0.000 A 
ATOM      4  C   UNL     1      48.907   4.780  17.969  0.00  0.00    +0.000 A 
ATOM      5  C   UNL     1      49.019   5.663  16.899  0.00  0.00    +0.000 A 
ATOM      6  N   UNL     1      48.371   5.521  15.715  0.00  0.00    +0.000 NA
ENDROOT
BRANCH   1   8
ATOM      7  O   UNL     1      46.858   3.199  13.702  0.00  0.00    +0.000 OA
ATOM      8  C   UNL     1      46.836   4.283  14.283  0.00  0.00    +0.000 C 
BRANCH   8   9
ATOM      9  C   UNL     1      46.211   5.525  13.669  0.00  0.00    +0.000 C 
BRANCH   9  10
ATOM     10  N   UNL     1      45.103   5.185  12.796  0.00  0.00    +0.000 N 
ATOM     11  C   UNL     1      45.189   5.444  11.447  0.00  0.00    +0.000 C 
ATOM     12  O   UNL     1      46.185   5.945  10.943  0.00  0.00    +0.000 OA
ATOM     13  H   UNL     1      44.371   4.583  13.153  0.00  0.00    +0.000 HD
BRANCH  11  14
ATOM     14  C   UNL     1      43.956   5.032  10.636  0.00  0.00    +0.000 C 
ATOM     15  C   UNL     1      42.949   4.249  11.494  0.00  0.00    +0.000 C 
ATOM     16  C   UNL     1      43.402   2.813  11.767  0.00  0.00    +0.000 C 
ATOM     17  N   UNL     1      43.716   2.101  10.527  0.00  0.00    +0.000 NA
ATOM     18  C   UNL     1      44.769   2.790   9.783  0.00  0.00    +0.000 C 
ATOM     19  C   UNL     1      44.352   4.210   9.404  0.00  0.00    +0.000 C 
ATOM     20  H   UNL     1      42.876   2.039   9.954  0.00  0.00    +0.000 HD
ENDBRANCH  11  14
ENDBRANCH   9  10
ENDBRANCH   8   9
ENDBRANCH   1   8
BRANCH   4  21
ATOM     21  C   UNL     1      49.704   4.999  19.231  0.00  0.00    +0.000 C 
BRANCH  21  22
ATOM     22  N   UNL     1      50.864   4.151  19.321  0.00  0.00    +0.000 N 
ATOM     23  C   UNL     1      52.078   4.515  18.773  0.00  0.00    +0.000 C 
ATOM     24  O   UNL     1      52.253   5.584  18.206  0.00  0.00    +0.000 OA
ATOM     25  H   UNL     1      50.685   3.156  19.420  0.00  0.00    +0.000 HD
BRANCH  23  26
ATOM     26  C   UNL     1      53.169   3.546  18.972  0.00  0.00    +0.000 A 
ATOM     27  C   UNL     1      54.305   3.901  19.690  0.00  0.00    +0.000 A 
ATOM     28  S   UNL     1      55.436   2.628  19.838  0.00  0.00    +0.000 S 
ATOM     29  C   UNL     1      54.476   1.584  18.905  0.00  0.00    +0.000 A 
ATOM     30  N   UNL     1      54.883   0.318  18.610  0.00  0.00    +0.000 NA
ATOM     31  C   UNL     1      54.069  -0.348  17.863  0.00  0.00    +0.000 A 
ATOM     32  N   UNL     1      52.871   0.129  17.393  0.00  0.00    +0.000 N 
ATOM     33  C   UNL     1      52.388   1.367  17.722  0.00  0.00    +0.000 A 
ATOM     34  O   UNL     1      51.265   1.728  17.376  0.00  0.00    +0.000 OA
ATOM     35  C   UNL     1      53.285   2.179  18.518  0.00  0.00    +0.000 A 
ATOM     36  H   UNL     1      52.265  -0.455  16.835  0.00  0.00    +0.000 HD
ENDBRANCH  23  26
ENDBRANCH  21  22
ENDBRANCH   4  21
TORSDOF 7
ENDMDL
MODEL 4
REMARK VINA RESULT:    -7.235      3.256      4.408
REMARK INTER + INTRA:         -11.266
REMARK INTER:                  -9.703
REMARK INTRA:                  -1.562
REMARK UNBOUND:                -1.070
REMARK  Name = 
REMARK  7 active torsions:
REMARK  status: ('A' for Active; 'I' for Inactive)
REMARK    1  A    between atoms: C_2  and  C_3
REMARK    2  A    between atoms: C_2  and  C_13
REMARK    3  A    between atoms: C_3  and  N_4
REMARK    4  A    between atoms: C_5  and  C_7
REMARK    5  A    between atoms: C_16  and  C_17
REMARK    6  A    between atoms: C_17  and  N_18
REMARK    7  A    between atoms: C_19  and  C_21
REMARK                            x       y       z     vdW  Elec       q    Type
REMARK                         _______ _______ _______ _____ _____    ______ ____
ROOT
ATOM      1  C   UNL     1      45.864   9.650  12.279  0.00  0.00    +0.000 A 
ATOM      2  C   UNL     1      47.016  10.276  11.831  0.00  0.00    +0.000 A 
ATOM      3  C   UNL     1      48.235   9.923  12.417  0.00  0.00    +0.000 A 
ATOM      4  C   UNL     1      48.279   8.964  13.436  0.00  0.00    +0.000 A 
ATOM      5  C   UNL     1      47.066   8.390  13.803  0.00  0.00    +0.000 A 
ATOM      6  N   UNL     1      45.865   8.719  13.263  0.00  0.00    +0.000 NA
ENDROOT
BRANCH   1   8
ATOM      7  O   UNL     1      44.121  11.183  11.807  0.00  0.00    +0.000 OA
ATOM      8  C   UNL     1      44.545  10.034  11.692  0.00  0.00    +0.000 C 
BRANCH   8   9
ATOM      9  C   UNL     1      43.723   8.919  11.069  0.00  0.00    +0.000 C 
BRANCH   9  10
ATOM     10  N   UNL     1      44.504   7.707  10.914  0.00  0.00    +0.000 N 
ATOM     11  C   UNL     1      43.894   6.479  11.035  0.00  0.00    +0.000 C 
ATOM     12  O   UNL     1      42.696   6.367  11.259  0.00  0.00    +0.000 OA
ATOM     13  H   UNL     1      45.434   7.775  10.521  0.00  0.00    +0.000 HD
BRANCH  11  14
ATOM     14  C   UNL     1      44.826   5.279  10.843  0.00  0.00    +0.000 C 
ATOM     15  C   UNL     1      44.040   3.997  10.519  0.00  0.00    +0.000 C 
ATOM     16  C   UNL     1      43.338   3.413  11.746  0.00  0.00    +0.000 C 
ATOM     17  N   UNL     1      44.273   3.202  12.854  0.00  0.00    +0.000 NA
ATOM     18  C   UNL     1      44.918   4.456  13.237  0.00  0.00    +0.000 C 
ATOM     19  C   UNL     1      45.709   5.059  12.077  0.00  0.00    +0.000 C 
ATOM     20  H   UNL     1      44.980   2.525  12.571  0.00  0.00    +0.000 HD
ENDBRANCH  11  14
ENDBRANCH   9  10
ENDBRANCH   8   9
ENDBRANCH   1   8
BRANCH   4  21
ATOM     21  C   UNL     1      49.559   8.563  14.127  0.00  0.00    +0.000 C 
BRANCH  21  22
ATOM     22  N   UNL     1      49.352   7.625  15.198  0.00  0.00    +0.000 N 
ATOM     23  C   UNL     1      50.404   6.963  15.801  0.00  0.00    +0.000 C 
ATOM     24  O   UNL     1      51.570   7.152  15.487  0.00  0.00    +0.000 OA
ATOM     25  H   UNL     1      48.447   7.167  15.224  0.00  0.00    +0.000 HD
BRANCH  23  26
ATOM     26  C   UNL     1      50.025   6.055  16.896  0.00  0.00    +0.000 A 
ATOM     27  C   UNL     1      50.713   6.080  18.104  0.00  0.00    +0.000 A 
ATOM     28  S   UNL     1      50.098   4.977  19.256  0.00  0.00    +0.000 S 
ATOM     29  C   UNL     1      48.936   4.392  18.166  0.00  0.00    +0.000 A 
ATOM     30  N   UNL     1      48.082   3.387  18.508  0.00  0.00    +0.000 NA
ATOM     31  C   UNL     1      47.278   3.021  17.569  0.00  0.00    +0.000 A 
ATOM     32  N   UNL     1      47.234   3.579  16.316  0.00  0.00    +0.000 N 
ATOM     33  C   UNL     1      48.022   4.637  15.949  0.00  0.00    +0.000 A 
ATOM     34  O   UNL     1      47.888   5.186  14.858  0.00  0.00    +0.000 OA
ATOM     35  C   UNL     1      48.982   5.056  16.950  0.00  0.00    +0.000 A 
ATOM     36  H   UNL     1      46.559   3.265  15.633  0.00  0.00    +0.000 HD
ENDBRANCH  23  26
ENDBRANCH  21  22
ENDBRANCH   4  21
TORSDOF 7
ENDMDL
MODEL 5
REMARK VINA RESULT:    -7.132      3.369      8.920
REMARK INTER + INTRA:         -11.120
REMARK INTER:                  -9.728
REMARK INTRA:                  -1.392
REMARK UNBOUND:                -1.070
REMARK  Name = 
REMARK  7 active torsions:
REMARK  status: ('A' for Active; 'I' for Inactive)
REMARK    1  A    between atoms: C_2  and  C_3
REMARK    2  A    between atoms: C_2  and  C_13
REMARK    3  A    between atoms: C_3  and  N_4
REMARK    4  A    between atoms: C_5  and  C_7
REMARK    5  A    between atoms: C_16  and  C_17
REMARK    6  A    between atoms: C_17  and  N_18
REMARK    7  A    between atoms: C_19  and  C_21
REMARK                            x       y       z     vdW  Elec       q    Type
REMARK                         _______ _______ _______ _____ _____    ______ ____
ROOT
ATOM      1  C   UNL     1      49.295   8.478  15.675  0.00  0.00    +0.000 A 
ATOM      2  C   UNL     1      50.139   7.833  14.787  0.00  0.00    +0.000 A 
ATOM      3  C   UNL     1      49.688   7.611  13.483  0.00  0.00    +0.000 A 
ATOM      4  C   UNL     1      48.409   8.027  13.096  0.00  0.00    +0.000 A 
ATOM      5  C   UNL     1      47.646   8.674  14.063  0.00  0.00    +0.000 A 
ATOM      6  N   UNL     1      48.049   8.895  15.340  0.00  0.00    +0.000 NA
ENDROOT
BRANCH   1   8
ATOM      7  O   UNL     1      49.851   9.837  17.534  0.00  0.00    +0.000 OA
ATOM      8  C   UNL     1      49.740   8.698  17.084  0.00  0.00    +0.000 C 
BRANCH   8   9
ATOM      9  C   UNL     1      50.155   7.466  17.871  0.00  0.00    +0.000 C 
BRANCH   9  10
ATOM     10  N   UNL     1      49.091   6.481  17.915  0.00  0.00    +0.000 N 
ATOM     11  C   UNL     1      49.375   5.181  18.270  0.00  0.00    +0.000 C 
ATOM     12  O   UNL     1      50.506   4.820  18.567  0.00  0.00    +0.000 OA
ATOM     13  H   UNL     1      48.132   6.801  17.883  0.00  0.00    +0.000 HD
BRANCH  11  14
ATOM     14  C   UNL     1      48.165   4.243  18.285  0.00  0.00    +0.000 C 
ATOM     15  C   UNL     1      48.582   2.777  18.077  0.00  0.00    +0.000 C 
ATOM     16  C   UNL     1      48.956   2.473  16.625  0.00  0.00    +0.000 C 
ATOM     17  N   UNL     1      47.890   2.862  15.700  0.00  0.00    +0.000 NA
ATOM     18  C   UNL     1      47.593   4.288  15.818  0.00  0.00    +0.000 C 
ATOM     19  C   UNL     1      47.132   4.652  17.228  0.00  0.00    +0.000 C 
ATOM     20  H   UNL     1      47.052   2.319  15.907  0.00  0.00    +0.000 HD
ENDBRANCH  11  14
ENDBRANCH   9  10
ENDBRANCH   8   9
ENDBRANCH   1   8
BRANCH   4  21
ATOM     21  C   UNL     1      47.854   7.788  11.713  0.00  0.00    +0.000 C 
BRANCH  21  22
ATOM     22  N   UNL     1      47.051   6.598  11.624  0.00  0.00    +0.000 N 
ATOM     23  C   UNL     1      45.674   6.638  11.722  0.00  0.00    +0.000 C 
ATOM     24  O   UNL     1      45.052   7.681  11.859  0.00  0.00    +0.000 OA
ATOM     25  H   UNL     1      47.504   5.730  11.893  0.00  0.00    +0.000 HD
BRANCH  23  26
ATOM     26  C   UNL     1      45.000   5.336  11.588  0.00  0.00    +0.000 A 
ATOM     27  C   UNL     1      44.281   4.802  12.651  0.00  0.00    +0.000 A 
ATOM     28  S   UNL     1      43.545   3.302  12.284  0.00  0.00    +0.000 S 
ATOM     29  C   UNL     1      44.207   3.291  10.720  0.00  0.00    +0.000 A 
ATOM     30  N   UNL     1      43.996   2.250   9.867  0.00  0.00    +0.000 NA
ATOM     31  C   UNL     1      44.589   2.360   8.727  0.00  0.00    +0.000 A 
ATOM     32  N   UNL     1      45.366   3.427   8.350  0.00  0.00    +0.000 N 
ATOM     33  C   UNL     1      45.548   4.527   9.145  0.00  0.00    +0.000 A 
ATOM     34  O   UNL     1      46.160   5.513   8.742  0.00  0.00    +0.000 OA
ATOM     35  C   UNL     1      44.946   4.434  10.459  0.00  0.00    +0.000 A 
ATOM     36  H   UNL     1      45.780   3.466   7.430  0.00  0.00    +0.000 HD
ENDBRANCH  23  26
ENDBRANCH  21  22
ENDBRANCH   4  21
TORSDOF 7
ENDMDL
MODEL 6
REMARK VINA RESULT:    -6.784      3.912      8.797
REMARK INTER + INTRA:         -10.630
REMARK INTER:                  -8.777
REMARK INTRA:                  -1.853
REMARK UNBOUND:                -1.070
REMARK  Name = 
REMARK  7 active torsions:
REMARK  status: ('A' for Active; 'I' for Inactive)
REMARK    1  A    between atoms: C_2  and  C_3
REMARK    2  A    between atoms: C_2  and  C_13
REMARK    3  A    between atoms: C_3  and  N_4
REMARK    4  A    between atoms: C_5  and  C_7
REMARK    5  A    between atoms: C_16  and  C_17
REMARK    6  A    between atoms: C_17  and  N_18
REMARK    7  A    between atoms: C_19  and  C_21
REMARK                            x       y       z     vdW  Elec       q    Type
REMARK                         _______ _______ _______ _____ _____    ______ ____
ROOT
ATOM      1  C   UNL     1      51.008   7.588  17.473  0.00  0.00    +0.000 A 
ATOM      2  C   UNL     1      50.027   8.336  18.101  0.00  0.00    +0.000 A 
ATOM      3  C   UNL     1      49.034   8.926  17.314  0.00  0.00    +0.000 A 
ATOM      4  C   UNL     1      49.045   8.765  15.923  0.00  0.00    +0.000 A 
ATOM      5  C   UNL     1      50.069   7.986  15.395  0.00  0.00    +0.000 A 
ATOM      6  N   UNL     1      51.054   7.409  16.129  0.00  0.00    +0.000 NA
ENDROOT
BRANCH   1   8
ATOM      7  O   UNL     1      52.931   7.684  18.852  0.00  0.00    +0.000 OA
ATOM      8  C   UNL     1      52.099   6.975  18.288  0.00  0.00    +0.000 C 
BRANCH   8   9
ATOM      9  C   UNL     1      52.191   5.458  18.280  0.00  0.00    +0.000 C 
BRANCH   9  10
ATOM     10  N   UNL     1      51.002   4.852  18.849  0.00  0.00    +0.000 N 
ATOM     11  C   UNL     1      50.199   4.053  18.066  0.00  0.00    +0.000 C 
ATOM     12  O   UNL     1      50.459   3.819  16.894  0.00  0.00    +0.000 OA
ATOM     13  H   UNL     1      50.888   4.857  19.854  0.00  0.00    +0.000 HD
BRANCH  11  14
ATOM     14  C   UNL     1      48.980   3.469  18.787  0.00  0.00    +0.000 C 
ATOM     15  C   UNL     1      47.851   3.123  17.802  0.00  0.00    +0.000 C 
ATOM     16  C   UNL     1      47.113   4.363  17.296  0.00  0.00    +0.000 C 
ATOM     17  N   UNL     1      46.623   5.188  18.402  0.00  0.00    +0.000 NA
ATOM     18  C   UNL     1      47.726   5.618  19.260  0.00  0.00    +0.000 C 
ATOM     19  C   UNL     1      48.463   4.426  19.867  0.00  0.00    +0.000 C 
ATOM     20  H   UNL     1      45.952   4.651  18.950  0.00  0.00    +0.000 HD
ENDBRANCH  11  14
ENDBRANCH   9  10
ENDBRANCH   8   9
ENDBRANCH   1   8
BRANCH   4  21
ATOM     21  C   UNL     1      48.019   9.401  15.018  0.00  0.00    +0.000 C 
BRANCH  21  22
ATOM     22  N   UNL     1      47.131   8.445  14.411  0.00  0.00    +0.000 N 
ATOM     23  C   UNL     1      46.954   8.381  13.042  0.00  0.00    +0.000 C 
ATOM     24  O   UNL     1      47.557   9.105  12.264  0.00  0.00    +0.000 OA
ATOM     25  H   UNL     1      46.363   8.116  14.988  0.00  0.00    +0.000 HD
BRANCH  23  26
ATOM     26  C   UNL     1      46.029   7.333  12.581  0.00  0.00    +0.000 A 
ATOM     27  C   UNL     1      44.904   7.664  11.835  0.00  0.00    +0.000 A 
ATOM     28  S   UNL     1      43.978   6.305  11.366  0.00  0.00    +0.000 S 
ATOM     29  C   UNL     1      45.014   5.240  12.188  0.00  0.00    +0.000 A 
ATOM     30  N   UNL     1      44.774   3.899  12.222  0.00  0.00    +0.000 NA
ATOM     31  C   UNL     1      45.623   3.218  12.913  0.00  0.00    +0.000 A 
ATOM     32  N   UNL     1      46.707   3.751  13.565  0.00  0.00    +0.000 N 
ATOM     33  C   UNL     1      47.029   5.080  13.500  0.00  0.00    +0.000 A 
ATOM     34  O   UNL     1      48.063   5.513  14.005  0.00  0.00    +0.000 OA
ATOM     35  C   UNL     1      46.079   5.902  12.779  0.00  0.00    +0.000 A 
ATOM     36  H   UNL     1      47.352   3.157  14.067  0.00  0.00    +0.000 HD
ENDBRANCH  23  26
ENDBRANCH  21  22
ENDBRANCH   4  21
TORSDOF 7
ENDMDL
MODEL 7
REMARK VINA RESULT:    -6.767      2.678      3.195
REMARK INTER + INTRA:         -10.606
REMARK INTER:                  -9.886
REMARK INTRA:                  -0.720
REMARK UNBOUND:                -1.070
REMARK  Name = 
REMARK  7 active torsions:
REMARK  status: ('A' for Active; 'I' for Inactive)
REMARK    1  A    between atoms: C_2  and  C_3
REMARK    2  A    between atoms: C_2  and  C_13
REMARK    3  A    between atoms: C_3  and  N_4
REMARK    4  A    between atoms: C_5  and  C_7
REMARK    5  A    between atoms: C_16  and  C_17
REMARK    6  A    between atoms: C_17  and  N_18
REMARK    7  A    between atoms: C_19  and  C_21
REMARK                            x       y       z     vdW  Elec       q    Type
REMARK                         _______ _______ _______ _____ _____    ______ ____
ROOT
ATOM      1  C   UNL     1      44.742   5.402  12.871  0.00  0.00    +0.000 A 
ATOM      2  C   UNL     1      44.887   6.741  12.550  0.00  0.00    +0.000 A 
ATOM      3  C   UNL     1      46.050   7.401  12.956  0.00  0.00    +0.000 A 
ATOM      4  C   UNL     1      47.036   6.717  13.676  0.00  0.00    +0.000 A 
ATOM      5  C   UNL     1      46.796   5.372  13.938  0.00  0.00    +0.000 A 
ATOM      6  N   UNL     1      45.673   4.705  13.569  0.00  0.00    +0.000 NA
ENDROOT
BRANCH   1   8
ATOM      7  O   UNL     1      42.418   5.278  12.431  0.00  0.00    +0.000 OA
ATOM      8  C   UNL     1      43.493   4.683  12.479  0.00  0.00    +0.000 C 
BRANCH   8   9
ATOM      9  C   UNL     1      43.606   3.183  12.265  0.00  0.00    +0.000 C 
BRANCH   9  10
ATOM     10  N   UNL     1      43.531   2.840  10.857  0.00  0.00    +0.000 N 
ATOM     11  C   UNL     1      44.675   2.836  10.092  0.00  0.00    +0.000 C 
ATOM     12  O   UNL     1      45.774   3.101  10.563  0.00  0.00    +0.000 OA
ATOM     13  H   UNL     1      42.683   2.416  10.505  0.00  0.00    +0.000 HD
BRANCH  11  14
ATOM     14  C   UNL     1      44.463   2.451   8.625  0.00  0.00    +0.000 C 
ATOM     15  C   UNL     1      45.273   1.200   8.245  0.00  0.00    +0.000 C 
ATOM     16  C   UNL     1      46.765   1.495   8.081  0.00  0.00    +0.000 C 
ATOM     17  N   UNL     1      46.999   2.590   7.138  0.00  0.00    +0.000 NA
ATOM     18  C   UNL     1      46.327   3.811   7.581  0.00  0.00    +0.000 C 
ATOM     19  C   UNL     1      44.817   3.613   7.690  0.00  0.00    +0.000 C 
ATOM     20  H   UNL     1      46.651   2.322   6.218  0.00  0.00    +0.000 HD
ENDBRANCH  11  14
ENDBRANCH   9  10
ENDBRANCH   8   9
ENDBRANCH   1   8
BRANCH   4  21
ATOM     21  C   UNL     1      48.299   7.382  14.167  0.00  0.00    +0.000 C 
BRANCH  21  22
ATOM     22  N   UNL     1      48.423   7.368  15.601  0.00  0.00    +0.000 N 
ATOM     23  C   UNL     1      49.558   6.896  16.230  0.00  0.00    +0.000 C 
ATOM     24  O   UNL     1      50.533   6.490  15.616  0.00  0.00    +0.000 OA
ATOM     25  H   UNL     1      47.555   7.322  16.126  0.00  0.00    +0.000 HD
BRANCH  23  26
ATOM     26  C   UNL     1      49.535   6.972  17.701  0.00  0.00    +0.000 A 
ATOM     27  C   UNL     1      49.903   8.143  18.352  0.00  0.00    +0.000 A 
ATOM     28  S   UNL     1      49.774   8.040  20.054  0.00  0.00    +0.000 S 
ATOM     29  C   UNL     1      49.278   6.418  19.979  0.00  0.00    +0.000 A 
ATOM     30  N   UNL     1      49.029   5.698  21.109  0.00  0.00    +0.000 NA
ATOM     31  C   UNL     1      48.696   4.470  20.901  0.00  0.00    +0.000 A 
ATOM     32  N   UNL     1      48.573   3.892  19.662  0.00  0.00    +0.000 N 
ATOM     33  C   UNL     1      48.744   4.593  18.498  0.00  0.00    +0.000 A 
ATOM     34  O   UNL     1      48.523   4.080  17.404  0.00  0.00    +0.000 OA
ATOM     35  C   UNL     1      49.169   5.967  18.673  0.00  0.00    +0.000 A 
ATOM     36  H   UNL     1      48.280   2.930  19.567  0.00  0.00    +0.000 HD
ENDBRANCH  23  26
ENDBRANCH  21  22
ENDBRANCH   4  21
TORSDOF 7
ENDMDL
MODEL 8
REMARK VINA RESULT:    -6.472      2.325      3.168
REMARK INTER + INTRA:         -10.190
REMARK INTER:                  -9.447
REMARK INTRA:                  -0.743
REMARK UNBOUND:                -1.070
REMARK  Name = 
REMARK  7 active torsions:
REMARK  status: ('A' for Active; 'I' for Inactive)
REMARK    1  A    between atoms: C_2  and  C_3
REMARK    2  A    between atoms: C_2  and  C_13
REMARK    3  A    between atoms: C_3  and  N_4
REMARK    4  A    between atoms: C_5  and  C_7
REMARK    5  A    between atoms: C_16  and  C_17
REMARK    6  A    between atoms: C_17  and  N_18
REMARK    7  A    between atoms: C_19  and  C_21
REMARK                            x       y       z     vdW  Elec       q    Type
REMARK                         _______ _______ _______ _____ _____    ______ ____
ROOT
ATOM      1  C   UNL     1      48.339   7.326  13.173  0.00  0.00    +0.000 A 
ATOM      2  C   UNL     1      49.402   8.047  12.654  0.00  0.00    +0.000 A 
ATOM      3  C   UNL     1      50.545   8.207  13.442  0.00  0.00    +0.000 A 
ATOM      4  C   UNL     1      50.601   7.656  14.727  0.00  0.00    +0.000 A 
ATOM      5  C   UNL     1      49.483   6.943  15.148  0.00  0.00    +0.000 A 
ATOM      6  N   UNL     1      48.354   6.778  14.413  0.00  0.00    +0.000 NA
ENDROOT
BRANCH   1   8
ATOM      7  O   UNL     1      47.139   6.682  11.235  0.00  0.00    +0.000 OA
ATOM      8  C   UNL     1      47.094   7.169  12.363  0.00  0.00    +0.000 C 
BRANCH   8   9
ATOM      9  C   UNL     1      45.817   7.744  12.953  0.00  0.00    +0.000 C 
BRANCH   9  10
ATOM     10  N   UNL     1      44.661   6.943  12.599  0.00  0.00    +0.000 N 
ATOM     11  C   UNL     1      44.558   5.649  13.058  0.00  0.00    +0.000 C 
ATOM     12  O   UNL     1      45.410   5.143  13.776  0.00  0.00    +0.000 OA
ATOM     13  H   UNL     1      43.857   7.403  12.193  0.00  0.00    +0.000 HD
BRANCH  11  14
ATOM     14  C   UNL     1      43.288   4.913  12.619  0.00  0.00    +0.000 C 
ATOM     15  C   UNL     1      43.468   3.387  12.680  0.00  0.00    +0.000 C 
ATOM     16  C   UNL     1      44.325   2.851  11.532  0.00  0.00    +0.000 C 
ATOM     17  N   UNL     1      43.810   3.276  10.229  0.00  0.00    +0.000 NA
ATOM     18  C   UNL     1      43.766   4.735  10.138  0.00  0.00    +0.000 C 
ATOM     19  C   UNL     1      42.859   5.338  11.210  0.00  0.00    +0.000 C 
ATOM     20  H   UNL     1      42.873   2.897  10.098  0.00  0.00    +0.000 HD
ENDBRANCH  11  14
ENDBRANCH   9  10
ENDBRANCH   8   9
ENDBRANCH   1   8
BRANCH   4  21
ATOM     21  C   UNL     1      51.794   7.820  15.637  0.00  0.00    +0.000 C 
BRANCH  21  22
ATOM     22  N   UNL     1      52.331   6.567  16.096  0.00  0.00    +0.000 N 
ATOM     23  C   UNL     1      52.167   6.136  17.398  0.00  0.00    +0.000 C 
ATOM     24  O   UNL     1      51.535   6.773  18.229  0.00  0.00    +0.000 OA
ATOM     25  H   UNL     1      53.142   6.217  15.596  0.00  0.00    +0.000 HD
BRANCH  23  26
ATOM     26  C   UNL     1      52.758   4.822  17.701  0.00  0.00    +0.000 A 
ATOM     27  C   UNL     1      54.100   4.716  18.047  0.00  0.00    +0.000 A 
ATOM     28  S   UNL     1      54.583   3.113  18.394  0.00  0.00    +0.000 S 
ATOM     29  C   UNL     1      53.038   2.505  18.041  0.00  0.00    +0.000 A 
ATOM     30  N   UNL     1      52.767   1.172  18.105  0.00  0.00    +0.000 NA
ATOM     31  C   UNL     1      51.563   0.851  17.776  0.00  0.00    +0.000 A 
ATOM     32  N   UNL     1      50.590   1.745  17.401  0.00  0.00    +0.000 N 
ATOM     33  C   UNL     1      50.795   3.099  17.391  0.00  0.00    +0.000 A 
ATOM     34  O   UNL     1      49.878   3.882  17.155  0.00  0.00    +0.000 OA
ATOM     35  C   UNL     1      52.147   3.512  17.703  0.00  0.00    +0.000 A 
ATOM     36  H   UNL     1      49.656   1.431  17.182  0.00  0.00    +0.000 HD
ENDBRANCH  23  26
ENDBRANCH  21  22
ENDBRANCH   4  21
TORSDOF 7
ENDMDL
MODEL 9
REMARK VINA RESULT:    -6.443      3.859      9.579
REMARK INTER + INTRA:         -10.149
REMARK INTER:                  -8.883
REMARK INTRA:                  -1.266
REMARK UNBOUND:                -1.070
REMARK  Name = 
REMARK  7 active torsions:
REMARK  status: ('A' for Active; 'I' for Inactive)
REMARK    1  A    between atoms: C_2  and  C_3
REMARK    2  A    between atoms: C_2  and  C_13
REMARK    3  A    between atoms: C_3  and  N_4
REMARK    4  A    between atoms: C_5  and  C_7
REMARK    5  A    between atoms: C_16  and  C_17
REMARK    6  A    between atoms: C_17  and  N_18
REMARK    7  A    between atoms: C_19  and  C_21
REMARK                            x       y       z     vdW  Elec       q    Type
REMARK                         _______ _______ _______ _____ _____    ______ ____
ROOT
ATOM      1  C   UNL     1      50.113   8.395  13.930  0.00  0.00    +0.000 A 
ATOM      2  C   UNL     1      49.809   7.594  12.842  0.00  0.00    +0.000 A 
ATOM      3  C   UNL     1      48.469   7.458  12.470  0.00  0.00    +0.000 A 
ATOM      4  C   UNL     1      47.464   8.113  13.192  0.00  0.00    +0.000 A 
ATOM      5  C   UNL     1      47.879   8.901  14.261  0.00  0.00    +0.000 A 
ATOM      6  N   UNL     1      49.170   9.045  14.655  0.00  0.00    +0.000 NA
ENDROOT
BRANCH   1   8
ATOM      7  O   UNL     1      52.249   9.420  13.908  0.00  0.00    +0.000 OA
ATOM      8  C   UNL     1      51.535   8.530  14.368  0.00  0.00    +0.000 C 
BRANCH   8   9
ATOM      9  C   UNL     1      52.069   7.456  15.300  0.00  0.00    +0.000 C 
BRANCH   9  10
ATOM     10  N   UNL     1      51.511   7.584  16.633  0.00  0.00    +0.000 N 
ATOM     11  C   UNL     1      50.782   6.549  17.173  0.00  0.00    +0.000 C 
ATOM     12  O   UNL     1      50.594   5.501  16.569  0.00  0.00    +0.000 OA
ATOM     13  H   UNL     1      51.831   8.342  17.223  0.00  0.00    +0.000 HD
BRANCH  11  14
ATOM     14  C   UNL     1      50.254   6.807  18.588  0.00  0.00    +0.000 C 
ATOM     15  C   UNL     1      49.262   5.718  19.030  0.00  0.00    +0.000 C 
ATOM     16  C   UNL     1      47.895   5.862  18.359  0.00  0.00    +0.000 C 
ATOM     17  N   UNL     1      47.337   7.203  18.551  0.00  0.00    +0.000 NA
ATOM     18  C   UNL     1      48.234   8.222  18.009  0.00  0.00    +0.000 C 
ATOM     19  C   UNL     1      49.600   8.190  18.692  0.00  0.00    +0.000 C 
ATOM     20  H   UNL     1      47.195   7.367  19.547  0.00  0.00    +0.000 HD
ENDBRANCH  11  14
ENDBRANCH   9  10
ENDBRANCH   8   9
ENDBRANCH   1   8
BRANCH   4  21
ATOM     21  C   UNL     1      45.999   7.981  12.858  0.00  0.00    +0.000 C 
BRANCH  21  22
ATOM     22  N   UNL     1      45.624   6.644  12.480  0.00  0.00    +0.000 N 
ATOM     23  C   UNL     1      44.551   6.396  11.646  0.00  0.00    +0.000 C 
ATOM     24  O   UNL     1      43.876   7.289  11.156  0.00  0.00    +0.000 OA
ATOM     25  H   UNL     1      45.881   5.906  13.128  0.00  0.00    +0.000 HD
BRANCH  23  26
ATOM     26  C   UNL     1      44.315   4.976  11.339  0.00  0.00    +0.000 A 
ATOM     27  C   UNL     1      43.571   4.182  12.204  0.00  0.00    +0.000 A 
ATOM     28  S   UNL     1      43.380   2.575  11.653  0.00  0.00    +0.000 S 
ATOM     29  C   UNL     1      44.328   2.870  10.275  0.00  0.00    +0.000 A 
ATOM     30  N   UNL     1      44.601   1.885   9.376  0.00  0.00    +0.000 NA
ATOM     31  C   UNL     1      45.362   2.244   8.399  0.00  0.00    +0.000 A 
ATOM     32  N   UNL     1      45.868   3.508   8.226  0.00  0.00    +0.000 N 
ATOM     33  C   UNL     1      45.563   4.548   9.064  0.00  0.00    +0.000 A 
ATOM     34  O   UNL     1      45.942   5.692   8.827  0.00  0.00    +0.000 OA
ATOM     35  C   UNL     1      44.752   4.188  10.209  0.00  0.00    +0.000 A 
ATOM     36  H   UNL     1      46.436   3.732   7.422  0.00  0.00    +0.000 HD
ENDBRANCH  23  26
ENDBRANCH  21  22
ENDBRANCH   4  21
TORSDOF 7
ENDMDL
