MODEL 1
REMARK VINA RESULT:    -7.970      0.000      0.000
REMARK INTER + INTRA:         -14.206
REMARK INTER:                 -12.630
REMARK INTRA:                  -1.576
REMARK UNBOUND:                -1.576
REMARK  Name = 
REMARK  12 active torsions:
REMARK  status: ('A' for Active; 'I' for Inactive)
REMARK    1  A    between atoms: C_1  and  C_2
REMARK    2  A    between atoms: C_2  and  N_3
REMARK    3  A    between atoms: C_2  and  C_15
REMARK    4  A    between atoms: N_3  and  C_4
REMARK    5  A    between atoms: C_4  and  C_5
REMARK    6  A    between atoms: C_8  and  C_9
REMARK    7  A    between atoms: C_9  and  O_10
REMARK    8  A    between atoms: C_9  and  C_11
REMARK    9  A    between atoms: C_11  and  O_12
REMARK   10  A    between atoms: C_18  and  C_19
REMARK   11  A    between atoms: C_19  and  N_20
REMARK   12  A    between atoms: C_21  and  C_23
REMARK                            x       y       z     vdW  Elec       q    Type
REMARK                         _______ _______ _______ _____ _____    ______ ____
ROOT
ATOM      1  C   UNL     1      44.783   6.038  12.761  0.00  0.00    +0.000 A 
ATOM      2  C   UNL     1      45.823   5.225  13.214  0.00  0.00    +0.000 A 
ATOM      3  C   UNL     1      47.137   5.696  13.143  0.00  0.00    +0.000 A 
ATOM      4  C   UNL     1      47.394   6.976  12.648  0.00  0.00    +0.000 A 
ATOM      5  C   UNL     1      46.295   7.736  12.271  0.00  0.00    +0.000 A 
ATOM      6  N   UNL     1      45.013   7.303  12.324  0.00  0.00    +0.000 NA
ENDROOT
BRANCH   1   8
ATOM      7  C   UNL     1      43.183   4.324  13.645  0.00  0.00    +0.000 C 
ATOM      8  C   UNL     1      43.364   5.459  12.623  0.00  0.00    +0.000 C 
BRANCH   8   9
ATOM      9  N   UNL     1      43.022   5.049  11.238  0.00  0.00    +0.000 NA
ATOM     10  H   UNL     1      42.026   5.204  11.092  0.00  0.00    +0.000 HD
BRANCH   9  11
ATOM     11  C   UNL     1      43.328   3.629  11.004  0.00  0.00    +0.000 C 
BRANCH  11  12
ATOM     12  C   UNL     1      44.295   3.358   9.880  0.00  0.00    +0.000 A 
ATOM     13  C   UNL     1      44.817   2.094   9.604  0.00  0.00    +0.000 A 
ATOM     14  C   UNL     1      45.608   1.899   8.470  0.00  0.00    +0.000 A 
ATOM     15  C   UNL     1      45.850   2.975   7.620  0.00  0.00    +0.000 A 
ATOM     16  N   UNL     1      45.339   4.211   7.851  0.00  0.00    +0.000 NA
ATOM     17  C   UNL     1      44.580   4.368   8.962  0.00  0.00    +0.000 A 
BRANCH  15  18
ATOM     18  C   UNL     1      46.676   2.801   6.357  0.00  0.00    +0.000 C 
BRANCH  18  19
ATOM     19  O   UNL     1      46.880   4.085   5.752  0.00  0.00    +0.000 OA
ATOM     20  H   UNL     1      47.000   4.706   6.498  0.00  0.00    +0.000 HD
ENDBRANCH  18  19
BRANCH  18  21
ATOM     21  C   UNL     1      48.046   2.181   6.672  0.00  0.00    +0.000 C 
BRANCH  21  22
ATOM     22  O   UNL     1      48.693   1.670   5.507  0.00  0.00    +0.000 OA
ATOM     23  H   UNL     1      49.088   2.437   5.052  0.00  0.00    +0.000 HD
ENDBRANCH  21  22
ENDBRANCH  18  21
ENDBRANCH  15  18
ENDBRANCH  11  12
ENDBRANCH   9  11
ENDBRANCH   8   9
ENDBRANCH   1   8
BRANCH   4  24
ATOM     24  C   UNL     1      48.792   7.493  12.466  0.00  0.00    +0.000 C 
BRANCH  24  25
ATOM     25  N   UNL     1      49.671   7.029  13.516  0.00  0.00    +0.000 N 
ATOM     26  C   UNL     1      50.164   7.896  14.460  0.00  0.00    +0.000 C 
ATOM     27  O   UNL     1      49.840   9.081  14.477  0.00  0.00    +0.000 OA
ATOM     28  H   UNL     1      50.113   6.122  13.396  0.00  0.00    +0.000 HD
BRANCH  26  29
ATOM     29  C   UNL     1      51.053   7.333  15.488  0.00  0.00    +0.000 A 
ATOM     30  C   UNL     1      52.382   7.735  15.536  0.00  0.00    +0.000 A 
ATOM     31  S   UNL     1      53.269   7.021  16.803  0.00  0.00    +0.000 S 
ATOM     32  C   UNL     1      51.926   6.105  17.300  0.00  0.00    +0.000 A 
ATOM     33  N   UNL     1      52.020   5.234  18.341  0.00  0.00    +0.000 NA
ATOM     34  C   UNL     1      50.934   4.580  18.588  0.00  0.00    +0.000 A 
ATOM     35  N   UNL     1      49.760   4.725  17.898  0.00  0.00    +0.000 N 
ATOM     36  C   UNL     1      49.608   5.620  16.866  0.00  0.00    +0.000 A 
ATOM     37  O   UNL     1      48.526   5.773  16.309  0.00  0.00    +0.000 OA
ATOM     38  C   UNL     1      50.806   6.363  16.529  0.00  0.00    +0.000 A 
ATOM     39  H   UNL     1      48.945   4.188  18.151  0.00  0.00    +0.000 HD
ENDBRANCH  26  29
ENDBRANCH  24  25
ENDBRANCH   4  24
TORSDOF 11
ENDMDL
MODEL 2
REMARK VINA RESULT:    -7.744      1.724      2.034
REMARK INTER + INTRA:         -13.848
REMARK INTER:                 -12.524
REMARK INTRA:                  -1.323
REMARK UNBOUND:                -1.576
REMARK  Name = 
REMARK  12 active torsions:
REMARK  status: ('A' for Active; 'I' for Inactive)
REMARK    1  A    between atoms: C_1  and  C_2
REMARK    2  A    between atoms: C_2  and  N_3
REMARK    3  A    between atoms: C_2  and  C_15
REMARK    4  A    between atoms: N_3  and  C_4
REMARK    5  A    between atoms: C_4  and  C_5
REMARK    6  A    between atoms: C_8  and  C_9
REMARK    7  A    between atoms: C_9  and  O_10
REMARK    8  A    between atoms: C_9  and  C_11
REMARK    9  A    between atoms: C_11  and  O_12
REMARK   10  A    between atoms: C_18  and  C_19
REMARK   11  A    between atoms: C_19  and  N_20
REMARK   12  A    between atoms: C_21  and  C_23
REMARK                            x       y       z     vdW  Elec       q    Type
REMARK                         _______ _______ _______ _____ _____    ______ ____
ROOT
ATOM      1  C   UNL     1      45.072   6.466  12.833  0.00  0.00    +0.000 A 
ATOM      2  C   UNL     1      45.796   5.374  13.316  0.00  0.00    +0.000 A 
ATOM      3  C   UNL     1      47.088   5.578  13.809  0.00  0.00    +0.000 A 
ATOM      4  C   UNL     1      47.630   6.864  13.839  0.00  0.00    +0.000 A 
ATOM      5  C   UNL     1      46.818   7.897  13.390  0.00  0.00    +0.000 A 
ATOM      6  N   UNL     1      45.566   7.729  12.902  0.00  0.00    +0.000 NA
ENDROOT
BRANCH   1   8
ATOM      7  C   UNL     1      42.956   5.124  12.797  0.00  0.00    +0.000 C 
ATOM      8  C   UNL     1      43.748   6.235  12.086  0.00  0.00    +0.000 C 
BRANCH   8   9
ATOM      9  N   UNL     1      43.921   5.980  10.633  0.00  0.00    +0.000 NA
ATOM     10  H   UNL     1      43.359   6.656  10.118  0.00  0.00    +0.000 HD
BRANCH   9  11
ATOM     11  C   UNL     1      43.496   4.621  10.269  0.00  0.00    +0.000 C 
BRANCH  11  12
ATOM     12  C   UNL     1      44.536   3.792   9.559  0.00  0.00    +0.000 A 
ATOM     13  C   UNL     1      44.563   2.398   9.594  0.00  0.00    +0.000 A 
ATOM     14  C   UNL     1      45.482   1.698   8.810  0.00  0.00    +0.000 A 
ATOM     15  C   UNL     1      46.351   2.410   7.988  0.00  0.00    +0.000 A 
ATOM     16  N   UNL     1      46.335   3.766   7.916  0.00  0.00    +0.000 NA
ATOM     17  C   UNL     1      45.435   4.414   8.694  0.00  0.00    +0.000 A 
BRANCH  15  18
ATOM     18  C   UNL     1      47.344   1.690   7.091  0.00  0.00    +0.000 C 
BRANCH  18  19
ATOM     19  O   UNL     1      46.959   0.313   6.978  0.00  0.00    +0.000 OA
ATOM     20  H   UNL     1      46.910   0.138   6.017  0.00  0.00    +0.000 HD
ENDBRANCH  18  19
BRANCH  18  21
ATOM     21  C   UNL     1      47.373   2.312   5.686  0.00  0.00    +0.000 C 
BRANCH  21  22
ATOM     22  O   UNL     1      48.518   1.906   4.936  0.00  0.00    +0.000 OA
ATOM     23  H   UNL     1      48.367   2.202   4.020  0.00  0.00    +0.000 HD
ENDBRANCH  21  22
ENDBRANCH  18  21
ENDBRANCH  15  18
ENDBRANCH  11  12
ENDBRANCH   9  11
ENDBRANCH   8   9
ENDBRANCH   1   8
BRANCH   4  24
ATOM     24  C   UNL     1      49.044   7.122  14.273  0.00  0.00    +0.000 C 
BRANCH  24  25
ATOM     25  N   UNL     1      49.185   7.025  15.709  0.00  0.00    +0.000 N 
ATOM     26  C   UNL     1      50.402   6.750  16.282  0.00  0.00    +0.000 C 
ATOM     27  O   UNL     1      51.420   6.625  15.605  0.00  0.00    +0.000 OA
ATOM     28  H   UNL     1      48.339   6.913  16.260  0.00  0.00    +0.000 HD
BRANCH  26  29
ATOM     29  C   UNL     1      50.448   6.669  17.750  0.00  0.00    +0.000 A 
ATOM     30  C   UNL     1      51.331   7.480  18.452  0.00  0.00    +0.000 A 
ATOM     31  S   UNL     1      51.237   7.294  20.144  0.00  0.00    +0.000 S 
ATOM     32  C   UNL     1      50.054   6.082  19.999  0.00  0.00    +0.000 A 
ATOM     33  N   UNL     1      49.553   5.459  21.100  0.00  0.00    +0.000 NA
ATOM     34  C   UNL     1      48.687   4.536  20.842  0.00  0.00    +0.000 A 
ATOM     35  N   UNL     1      48.267   4.186  19.586  0.00  0.00    +0.000 N 
ATOM     36  C   UNL     1      48.717   4.814  18.449  0.00  0.00    +0.000 A 
ATOM     37  O   UNL     1      48.274   4.523  17.343  0.00  0.00    +0.000 OA
ATOM     38  C   UNL     1      49.712   5.843  18.680  0.00  0.00    +0.000 A 
ATOM     39  H   UNL     1      47.580   3.461  19.457  0.00  0.00    +0.000 HD
ENDBRANCH  26  29
ENDBRANCH  24  25
ENDBRANCH   4  24
TORSDOF 11
ENDMDL
MODEL 3
REMARK VINA RESULT:    -7.734      2.363      3.798
REMARK INTER + INTRA:         -13.832
REMARK INTER:                 -13.134
REMARK INTRA:                  -0.698
REMARK UNBOUND:                -1.576
REMARK  Name = 
REMARK  12 active torsions:
REMARK  status: ('A' for Active; 'I' for Inactive)
REMARK    1  A    between atoms: C_1  and  C_2
REMARK    2  A    between atoms: C_2  and  N_3
REMARK    3  A    between atoms: C_2  and  C_15
REMARK    4  A    between atoms: N_3  and  C_4
REMARK    5  A    between atoms: C_4  and  C_5
REMARK    6  A    between atoms: C_8  and  C_9
REMARK    7  A    between atoms: C_9  and  O_10
REMARK    8  A    between atoms: C_9  and  C_11
REMARK    9  A    between atoms: C_11  and  O_12
REMARK   10  A    between atoms: C_18  and  C_19
REMARK   11  A    between atoms: C_19  and  N_20
REMARK   12  A    between atoms: C_21  and  C_23
REMARK                            x       y       z     vdW  Elec       q    Type
REMARK                         _______ _______ _______ _____ _____    ______ ____
ROOT
ATOM      1  C   UNL     1      46.980   5.170  13.380  0.00  0.00    +0.000 A 
ATOM      2  C   UNL     1      47.481   5.925  14.442  0.00  0.00    +0.000 A 
ATOM      3  C   UNL     1      47.723   5.299  15.669  0.00  0.00    +0.000 A 
ATOM      4  C   UNL     1      47.487   3.930  15.813  0.00  0.00    +0.000 A 
ATOM      5  C   UNL     1      47.041   3.248  14.689  0.00  0.00    +0.000 A 
ATOM      6  N   UNL     1      46.794   3.830  13.491  0.00  0.00    +0.000 NA
ENDROOT
BRANCH   1   8
ATOM      7  C   UNL     1      47.361   7.129  11.865  0.00  0.00    +0.000 C 
ATOM      8  C   UNL     1      46.500   5.876  12.101  0.00  0.00    +0.000 C 
BRANCH   8   9
ATOM      9  N   UNL     1      45.044   6.166  12.092  0.00  0.00    +0.000 NA
ATOM     10  H   UNL     1      44.739   6.313  13.053  0.00  0.00    +0.000 HD
BRANCH   9  11
ATOM     11  C   UNL     1      44.276   5.059  11.505  0.00  0.00    +0.000 C 
BRANCH  11  12
ATOM     12  C   UNL     1      44.922   4.387  10.320  0.00  0.00    +0.000 A 
ATOM     13  C   UNL     1      44.848   3.015  10.080  0.00  0.00    +0.000 A 
ATOM     14  C   UNL     1      45.364   2.485   8.897  0.00  0.00    +0.000 A 
ATOM     15  C   UNL     1      45.934   3.345   7.962  0.00  0.00    +0.000 A 
ATOM     16  N   UNL     1      46.001   4.687   8.157  0.00  0.00    +0.000 NA
ATOM     17  C   UNL     1      45.496   5.168   9.318  0.00  0.00    +0.000 A 
BRANCH  15  18
ATOM     18  C   UNL     1      46.477   2.818   6.644  0.00  0.00    +0.000 C 
BRANCH  18  19
ATOM     19  O   UNL     1      46.916   3.923   5.844  0.00  0.00    +0.000 OA
ATOM     20  H   UNL     1      46.148   4.158   5.285  0.00  0.00    +0.000 HD
ENDBRANCH  18  19
BRANCH  18  21
ATOM     21  C   UNL     1      47.667   1.873   6.875  0.00  0.00    +0.000 C 
BRANCH  21  22
ATOM     22  O   UNL     1      48.483   1.733   5.713  0.00  0.00    +0.000 OA
ATOM     23  H   UNL     1      48.196   0.913   5.271  0.00  0.00    +0.000 HD
ENDBRANCH  21  22
ENDBRANCH  18  21
ENDBRANCH  15  18
ENDBRANCH  11  12
ENDBRANCH   9  11
ENDBRANCH   8   9
ENDBRANCH   1   8
BRANCH   4  24
ATOM     24  C   UNL     1      47.643   3.230  17.132  0.00  0.00    +0.000 C 
BRANCH  24  25
ATOM     25  N   UNL     1      49.030   3.149  17.530  0.00  0.00    +0.000 N 
ATOM     26  C   UNL     1      49.888   2.262  16.929  0.00  0.00    +0.000 C 
ATOM     27  O   UNL     1      49.524   1.542  16.002  0.00  0.00    +0.000 OA
ATOM     28  H   UNL     1      49.292   3.570  18.417  0.00  0.00    +0.000 HD
BRANCH  26  29
ATOM     29  C   UNL     1      51.281   2.250  17.402  0.00  0.00    +0.000 A 
ATOM     30  C   UNL     1      51.927   1.035  17.594  0.00  0.00    +0.000 A 
ATOM     31  S   UNL     1      53.544   1.191  18.109  0.00  0.00    +0.000 S 
ATOM     32  C   UNL     1      53.424   2.887  18.150  0.00  0.00    +0.000 A 
ATOM     33  N   UNL     1      54.475   3.653  18.550  0.00  0.00    +0.000 NA
ATOM     34  C   UNL     1      54.234   4.921  18.565  0.00  0.00    +0.000 A 
ATOM     35  N   UNL     1      53.044   5.496  18.205  0.00  0.00    +0.000 N 
ATOM     36  C   UNL     1      51.969   4.765  17.758  0.00  0.00    +0.000 A 
ATOM     37  O   UNL     1      50.938   5.312  17.381  0.00  0.00    +0.000 OA
ATOM     38  C   UNL     1      52.177   3.330  17.746  0.00  0.00    +0.000 A 
ATOM     39  H   UNL     1      52.927   6.496  18.231  0.00  0.00    +0.000 HD
ENDBRANCH  26  29
ENDBRANCH  24  25
ENDBRANCH   4  24
TORSDOF 11
ENDMDL
MODEL 4
REMARK VINA RESULT:    -7.570      2.413      3.693
REMARK INTER + INTRA:         -13.572
REMARK INTER:                 -12.920
REMARK INTRA:                  -0.652
REMARK UNBOUND:                -1.576
REMARK  Name = 
REMARK  12 active torsions:
REMARK  status: ('A' for Active; 'I' for Inactive)
REMARK    1  A    between atoms: C_1  and  C_2
REMARK    2  A    between atoms: C_2  and  N_3
REMARK    3  A    between atoms: C_2  and  C_15
REMARK    4  A    between atoms: N_3  and  C_4
REMARK    5  A    between atoms: C_4  and  C_5
REMARK    6  A    between atoms: C_8  and  C_9
REMARK    7  A    between atoms: C_9  and  O_10
REMARK    8  A    between atoms: C_9  and  C_11
REMARK    9  A    between atoms: C_11  and  O_12
REMARK   10  A    between atoms: C_18  and  C_19
REMARK   11  A    between atoms: C_19  and  N_20
REMARK   12  A    between atoms: C_21  and  C_23
REMARK                            x       y       z     vdW  Elec       q    Type
REMARK                         _______ _______ _______ _____ _____    ______ ____
ROOT
ATOM      1  C   UNL     1      47.101   5.320  13.780  0.00  0.00    +0.000 A 
ATOM      2  C   UNL     1      47.943   6.238  14.411  0.00  0.00    +0.000 A 
ATOM      3  C   UNL     1      48.263   6.055  15.759  0.00  0.00    +0.000 A 
ATOM      4  C   UNL     1      47.763   4.951  16.452  0.00  0.00    +0.000 A 
ATOM      5  C   UNL     1      46.979   4.060  15.732  0.00  0.00    +0.000 A 
ATOM      6  N   UNL     1      46.649   4.215  14.428  0.00  0.00    +0.000 NA
ENDROOT
BRANCH   1   8
ATOM      7  C   UNL     1      47.411   6.731  11.733  0.00  0.00    +0.000 C 
ATOM      8  C   UNL     1      46.560   5.620  12.373  0.00  0.00    +0.000 C 
BRANCH   8   9
ATOM      9  N   UNL     1      45.106   5.919  12.346  0.00  0.00    +0.000 NA
ATOM     10  H   UNL     1      44.783   6.035  13.304  0.00  0.00    +0.000 HD
BRANCH   9  11
ATOM     11  C   UNL     1      44.343   4.837  11.706  0.00  0.00    +0.000 C 
BRANCH  11  12
ATOM     12  C   UNL     1      44.976   4.249  10.471  0.00  0.00    +0.000 A 
ATOM     13  C   UNL     1      44.993   2.882  10.192  0.00  0.00    +0.000 A 
ATOM     14  C   UNL     1      45.486   2.425   8.969  0.00  0.00    +0.000 A 
ATOM     15  C   UNL     1      45.942   3.352   8.035  0.00  0.00    +0.000 A 
ATOM     16  N   UNL     1      45.920   4.689   8.269  0.00  0.00    +0.000 NA
ATOM     17  C   UNL     1      45.440   5.098   9.467  0.00  0.00    +0.000 A 
BRANCH  15  18
ATOM     18  C   UNL     1      46.456   2.903   6.677  0.00  0.00    +0.000 C 
BRANCH  18  19
ATOM     19  O   UNL     1      46.922   4.049   5.952  0.00  0.00    +0.000 OA
ATOM     20  H   UNL     1      47.303   4.645   6.627  0.00  0.00    +0.000 HD
ENDBRANCH  18  19
BRANCH  18  21
ATOM     21  C   UNL     1      47.617   1.907   6.826  0.00  0.00    +0.000 C 
BRANCH  21  22
ATOM     22  O   UNL     1      48.470   1.892   5.682  0.00  0.00    +0.000 OA
ATOM     23  H   UNL     1      49.249   2.432   5.911  0.00  0.00    +0.000 HD
ENDBRANCH  21  22
ENDBRANCH  18  21
ENDBRANCH  15  18
ENDBRANCH  11  12
ENDBRANCH   9  11
ENDBRANCH   8   9
ENDBRANCH   1   8
BRANCH   4  24
ATOM     24  C   UNL     1      48.002   4.759  17.922  0.00  0.00    +0.000 C 
BRANCH  24  25
ATOM     25  N   UNL     1      49.254   4.080  18.173  0.00  0.00    +0.000 N 
ATOM     26  C   UNL     1      50.404   4.787  18.423  0.00  0.00    +0.000 C 
ATOM     27  O   UNL     1      50.405   6.014  18.490  0.00  0.00    +0.000 OA
ATOM     28  H   UNL     1      49.319   3.100  17.915  0.00  0.00    +0.000 HD
BRANCH  26  29
ATOM     29  C   UNL     1      51.629   4.009  18.664  0.00  0.00    +0.000 A 
ATOM     30  C   UNL     1      52.618   4.531  19.489  0.00  0.00    +0.000 A 
ATOM     31  S   UNL     1      53.955   3.496  19.698  0.00  0.00    +0.000 S 
ATOM     32  C   UNL     1      53.289   2.335  18.649  0.00  0.00    +0.000 A 
ATOM     33  N   UNL     1      53.961   1.188  18.358  0.00  0.00    +0.000 NA
ATOM     34  C   UNL     1      53.353   0.413  17.522  0.00  0.00    +0.000 A 
ATOM     35  N   UNL     1      52.131   0.673  16.960  0.00  0.00    +0.000 N 
ATOM     36  C   UNL     1      51.400   1.799  17.255  0.00  0.00    +0.000 A 
ATOM     37  O   UNL     1      50.280   1.973  16.786  0.00  0.00    +0.000 OA
ATOM     38  C   UNL     1      52.048   2.718  18.170  0.00  0.00    +0.000 A 
ATOM     39  H   UNL     1      51.710   0.018  16.321  0.00  0.00    +0.000 HD
ENDBRANCH  26  29
ENDBRANCH  24  25
ENDBRANCH   4  24
TORSDOF 11
ENDMDL
MODEL 5
REMARK VINA RESULT:    -7.407      3.108      8.954
REMARK INTER + INTRA:         -13.314
REMARK INTER:                 -11.267
REMARK INTRA:                  -2.048
REMARK UNBOUND:                -1.576
REMARK  Name = 
REMARK  12 active torsions:
REMARK  status: ('A' for Active; 'I' for Inactive)
REMARK    1  A    between atoms: C_1  and  C_2
REMARK    2  A    between atoms: C_2  and  N_3
REMARK    3  A    between atoms: C_2  and  C_15
REMARK    4  A    between atoms: N_3  and  C_4
REMARK    5  A    between atoms: C_4  and  C_5
REMARK    6  A    between atoms: C_8  and  C_9
REMARK    7  A    between atoms: C_9  and  O_10
REMARK    8  A    between atoms: C_9  and  C_11
REMARK    9  A    between atoms: C_11  and  O_12
REMARK   10  A    between atoms: C_18  and  C_19
REMARK   11  A    between atoms: C_19  and  N_20
REMARK   12  A    between atoms: C_21  and  C_23
REMARK                            x       y       z     vdW  Elec       q    Type
REMARK                         _______ _______ _______ _____ _____    ______ ____
ROOT
ATOM      1  C   UNL     1      50.043   8.753  13.124  0.00  0.00    +0.000 A 
ATOM      2  C   UNL     1      49.718   7.731  12.231  0.00  0.00    +0.000 A 
ATOM      3  C   UNL     1      48.378   7.524  11.889  0.00  0.00    +0.000 A 
ATOM      4  C   UNL     1      47.387   8.352  12.420  0.00  0.00    +0.000 A 
ATOM      5  C   UNL     1      47.806   9.377  13.257  0.00  0.00    +0.000 A 
ATOM      6  N   UNL     1      49.095   9.597  13.609  0.00  0.00    +0.000 NA
ENDROOT
BRANCH   1   8
ATOM      7  C   UNL     1      52.448   9.118  12.523  0.00  0.00    +0.000 C 
ATOM      8  C   UNL     1      51.472   8.855  13.683  0.00  0.00    +0.000 C 
BRANCH   8   9
ATOM      9  N   UNL     1      51.868   7.693  14.518  0.00  0.00    +0.000 NA
ATOM     10  H   UNL     1      51.485   6.848  14.098  0.00  0.00    +0.000 HD
BRANCH   9  11
ATOM     11  C   UNL     1      51.364   7.819  15.894  0.00  0.00    +0.000 C 
BRANCH  11  12
ATOM     12  C   UNL     1      50.448   6.711  16.345  0.00  0.00    +0.000 A 
ATOM     13  C   UNL     1      49.094   6.651  16.015  0.00  0.00    +0.000 A 
ATOM     14  C   UNL     1      48.339   5.530  16.365  0.00  0.00    +0.000 A 
ATOM     15  C   UNL     1      48.962   4.475  17.028  0.00  0.00    +0.000 A 
ATOM     16  N   UNL     1      50.282   4.495  17.344  0.00  0.00    +0.000 NA
ATOM     17  C   UNL     1      50.983   5.600  16.996  0.00  0.00    +0.000 A 
BRANCH  15  18
ATOM     18  C   UNL     1      48.189   3.220  17.398  0.00  0.00    +0.000 C 
BRANCH  18  19
ATOM     19  O   UNL     1      46.810   3.561  17.591  0.00  0.00    +0.000 OA
ATOM     20  H   UNL     1      46.362   3.307  16.760  0.00  0.00    +0.000 HD
ENDBRANCH  18  19
BRANCH  18  21
ATOM     21  C   UNL     1      48.285   2.163  16.286  0.00  0.00    +0.000 C 
BRANCH  21  22
ATOM     22  O   UNL     1      49.635   1.811  15.987  0.00  0.00    +0.000 OA
ATOM     23  H   UNL     1      49.914   1.176  16.671  0.00  0.00    +0.000 HD
ENDBRANCH  21  22
ENDBRANCH  18  21
ENDBRANCH  15  18
ENDBRANCH  11  12
ENDBRANCH   9  11
ENDBRANCH   8   9
ENDBRANCH   1   8
BRANCH   4  24
ATOM     24  C   UNL     1      45.927   8.114  12.157  0.00  0.00    +0.000 C 
BRANCH  24  25
ATOM     25  N   UNL     1      45.662   6.728  11.843  0.00  0.00    +0.000 N 
ATOM     26  C   UNL     1      44.413   6.320  11.445  0.00  0.00    +0.000 C 
ATOM     27  O   UNL     1      43.492   7.118  11.293  0.00  0.00    +0.000 OA
ATOM     28  H   UNL     1      46.333   6.035  12.162  0.00  0.00    +0.000 HD
BRANCH  26  29
ATOM     29  C   UNL     1      44.239   4.889  11.150  0.00  0.00    +0.000 A 
ATOM     30  C   UNL     1      43.469   4.105  12.000  0.00  0.00    +0.000 A 
ATOM     31  S   UNL     1      43.334   2.481  11.502  0.00  0.00    +0.000 S 
ATOM     32  C   UNL     1      44.346   2.751  10.163  0.00  0.00    +0.000 A 
ATOM     33  N   UNL     1      44.674   1.736   9.318  0.00  0.00    +0.000 NA
ATOM     34  C   UNL     1      45.476   2.075   8.365  0.00  0.00    +0.000 A 
ATOM     35  N   UNL     1      45.971   3.337   8.170  0.00  0.00    +0.000 N 
ATOM     36  C   UNL     1      45.636   4.400   8.974  0.00  0.00    +0.000 A 
ATOM     37  O   UNL     1      46.044   5.532   8.737  0.00  0.00    +0.000 OA
ATOM     38  C   UNL     1      44.756   4.070  10.078  0.00  0.00    +0.000 A 
ATOM     39  H   UNL     1      46.587   3.535   7.398  0.00  0.00    +0.000 HD
ENDBRANCH  26  29
ENDBRANCH  24  25
ENDBRANCH   4  24
TORSDOF 11
ENDMDL
MODEL 6
REMARK VINA RESULT:    -7.193      3.101      8.986
REMARK INTER + INTRA:         -12.974
REMARK INTER:                 -11.068
REMARK INTRA:                  -1.906
REMARK UNBOUND:                -1.576
REMARK  Name = 
REMARK  12 active torsions:
REMARK  status: ('A' for Active; 'I' for Inactive)
REMARK    1  A    between atoms: C_1  and  C_2
REMARK    2  A    between atoms: C_2  and  N_3
REMARK    3  A    between atoms: C_2  and  C_15
REMARK    4  A    between atoms: N_3  and  C_4
REMARK    5  A    between atoms: C_4  and  C_5
REMARK    6  A    between atoms: C_8  and  C_9
REMARK    7  A    between atoms: C_9  and  O_10
REMARK    8  A    between atoms: C_9  and  C_11
REMARK    9  A    between atoms: C_11  and  O_12
REMARK   10  A    between atoms: C_18  and  C_19
REMARK   11  A    between atoms: C_19  and  N_20
REMARK   12  A    between atoms: C_21  and  C_23
REMARK                            x       y       z     vdW  Elec       q    Type
REMARK                         _______ _______ _______ _____ _____    ______ ____
ROOT
ATOM      1  C   UNL     1      49.655   9.108  15.678  0.00  0.00    +0.000 A 
ATOM      2  C   UNL     1      48.268   9.134  15.530  0.00  0.00    +0.000 A 
ATOM      3  C   UNL     1      47.707   8.795  14.295  0.00  0.00    +0.000 A 
ATOM      4  C   UNL     1      48.532   8.410  13.236  0.00  0.00    +0.000 A 
ATOM      5  C   UNL     1      49.896   8.360  13.489  0.00  0.00    +0.000 A 
ATOM      6  N   UNL     1      50.466   8.688  14.672  0.00  0.00    +0.000 NA
ENDROOT
BRANCH   1   8
ATOM      7  C   UNL     1      51.827   9.524  16.855  0.00  0.00    +0.000 C 
ATOM      8  C   UNL     1      50.300   9.688  16.948  0.00  0.00    +0.000 C 
BRANCH   8   9
ATOM      9  N   UNL     1      49.737   9.137  18.206  0.00  0.00    +0.000 NA
ATOM     10  H   UNL     1      49.749   9.870  18.913  0.00  0.00    +0.000 HD
BRANCH   9  11
ATOM     11  C   UNL     1      50.516   7.987  18.689  0.00  0.00    +0.000 C 
BRANCH  11  12
ATOM     12  C   UNL     1      49.856   6.644  18.511  0.00  0.00    +0.000 A 
ATOM     13  C   UNL     1      48.757   6.222  19.259  0.00  0.00    +0.000 A 
ATOM     14  C   UNL     1      48.123   5.017  18.950  0.00  0.00    +0.000 A 
ATOM     15  C   UNL     1      48.594   4.259  17.881  0.00  0.00    +0.000 A 
ATOM     16  N   UNL     1      49.648   4.654  17.121  0.00  0.00    +0.000 NA
ATOM     17  C   UNL     1      50.244   5.824  17.451  0.00  0.00    +0.000 A 
BRANCH  15  18
ATOM     18  C   UNL     1      47.915   2.959  17.486  0.00  0.00    +0.000 C 
BRANCH  18  19
ATOM     19  O   UNL     1      46.499   3.100  17.658  0.00  0.00    +0.000 OA
ATOM     20  H   UNL     1      46.209   3.688  16.932  0.00  0.00    +0.000 HD
ENDBRANCH  18  19
BRANCH  18  21
ATOM     21  C   UNL     1      48.202   2.608  16.018  0.00  0.00    +0.000 C 
BRANCH  21  22
ATOM     22  O   UNL     1      49.317   1.728  15.878  0.00  0.00    +0.000 OA
ATOM     23  H   UNL     1      49.166   1.218  15.061  0.00  0.00    +0.000 HD
ENDBRANCH  21  22
ENDBRANCH  18  21
ENDBRANCH  15  18
ENDBRANCH  11  12
ENDBRANCH   9  11
ENDBRANCH   8   9
ENDBRANCH   1   8
BRANCH   4  24
ATOM     24  C   UNL     1      47.987   8.125  11.866  0.00  0.00    +0.000 C 
BRANCH  24  25
ATOM     25  N   UNL     1      47.199   6.913  11.849  0.00  0.00    +0.000 N 
ATOM     26  C   UNL     1      45.842   6.954  11.648  0.00  0.00    +0.000 C 
ATOM     27  O   UNL     1      45.255   8.011  11.429  0.00  0.00    +0.000 OA
ATOM     28  H   UNL     1      47.619   6.072  12.233  0.00  0.00    +0.000 HD
BRANCH  26  29
ATOM     29  C   UNL     1      45.125   5.670  11.649  0.00  0.00    +0.000 A 
ATOM     30  C   UNL     1      44.448   5.266  12.794  0.00  0.00    +0.000 A 
ATOM     31  S   UNL     1      43.639   3.776  12.623  0.00  0.00    +0.000 S 
ATOM     32  C   UNL     1      44.210   3.587  11.033  0.00  0.00    +0.000 A 
ATOM     33  N   UNL     1      43.905   2.476  10.308  0.00  0.00    +0.000 NA
ATOM     34  C   UNL     1      44.433   2.448   9.130  0.00  0.00    +0.000 A 
ATOM     35  N   UNL     1      45.226   3.433   8.604  0.00  0.00    +0.000 N 
ATOM     36  C   UNL     1      45.528   4.589   9.285  0.00  0.00    +0.000 A 
ATOM     37  O   UNL     1      46.188   5.481   8.764  0.00  0.00    +0.000 OA
ATOM     38  C   UNL     1      44.982   4.661  10.626  0.00  0.00    +0.000 A 
ATOM     39  H   UNL     1      45.598   3.351   7.671  0.00  0.00    +0.000 HD
ENDBRANCH  26  29
ENDBRANCH  24  25
ENDBRANCH   4  24
TORSDOF 11
ENDMDL
MODEL 7
REMARK VINA RESULT:    -7.176      1.580      2.282
REMARK INTER + INTRA:         -12.947
REMARK INTER:                 -12.033
REMARK INTRA:                  -0.915
REMARK UNBOUND:                -1.576
REMARK  Name = 
REMARK  12 active torsions:
REMARK  status: ('A' for Active; 'I' for Inactive)
REMARK    1  A    between atoms: C_1  and  C_2
REMARK    2  A    between atoms: C_2  and  N_3
REMARK    3  A    between atoms: C_2  and  C_15
REMARK    4  A    between atoms: N_3  and  C_4
REMARK    5  A    between atoms: C_4  and  C_5
REMARK    6  A    between atoms: C_8  and  C_9
REMARK    7  A    between atoms: C_9  and  O_10
REMARK    8  A    between atoms: C_9  and  C_11
REMARK    9  A    between atoms: C_11  and  O_12
REMARK   10  A    between atoms: C_18  and  C_19
REMARK   11  A    between atoms: C_19  and  N_20
REMARK   12  A    between atoms: C_21  and  C_23
REMARK                            x       y       z     vdW  Elec       q    Type
REMARK                         _______ _______ _______ _____ _____    ______ ____
ROOT
ATOM      1  C   UNL     1      45.163   5.665  12.913  0.00  0.00    +0.000 A 
ATOM      2  C   UNL     1      46.183   4.981  13.577  0.00  0.00    +0.000 A 
ATOM      3  C   UNL     1      47.339   5.674  13.949  0.00  0.00    +0.000 A 
ATOM      4  C   UNL     1      47.452   7.039  13.678  0.00  0.00    +0.000 A 
ATOM      5  C   UNL     1      46.367   7.649  13.064  0.00  0.00    +0.000 A 
ATOM      6  N   UNL     1      45.239   7.002  12.688  0.00  0.00    +0.000 NA
ENDROOT
BRANCH   1   8
ATOM      7  C   UNL     1      42.667   5.484  12.805  0.00  0.00    +0.000 C 
ATOM      8  C   UNL     1      43.990   4.882  12.301  0.00  0.00    +0.000 C 
BRANCH   8   9
ATOM      9  N   UNL     1      44.075   3.415  12.517  0.00  0.00    +0.000 NA
ATOM     10  H   UNL     1      45.058   3.157  12.589  0.00  0.00    +0.000 HD
BRANCH   9  11
ATOM     11  C   UNL     1      43.459   2.669  11.410  0.00  0.00    +0.000 C 
BRANCH  11  12
ATOM     12  C   UNL     1      44.160   2.798  10.081  0.00  0.00    +0.000 A 
ATOM     13  C   UNL     1      44.293   4.006   9.397  0.00  0.00    +0.000 A 
ATOM     14  C   UNL     1      45.063   4.067   8.234  0.00  0.00    +0.000 A 
ATOM     15  C   UNL     1      45.704   2.915   7.784  0.00  0.00    +0.000 A 
ATOM     16  N   UNL     1      45.610   1.731   8.441  0.00  0.00    +0.000 NA
ATOM     17  C   UNL     1      44.850   1.704   9.562  0.00  0.00    +0.000 A 
BRANCH  15  18
ATOM     18  C   UNL     1      46.580   2.943   6.544  0.00  0.00    +0.000 C 
BRANCH  18  19
ATOM     19  O   UNL     1      46.872   4.306   6.208  0.00  0.00    +0.000 OA
ATOM     20  H   UNL     1      47.699   4.271   5.687  0.00  0.00    +0.000 HD
ENDBRANCH  18  19
BRANCH  18  21
ATOM     21  C   UNL     1      47.903   2.198   6.784  0.00  0.00    +0.000 C 
BRANCH  21  22
ATOM     22  O   UNL     1      48.534   1.805   5.566  0.00  0.00    +0.000 OA
ATOM     23  H   UNL     1      49.236   1.174   5.810  0.00  0.00    +0.000 HD
ENDBRANCH  21  22
ENDBRANCH  18  21
ENDBRANCH  15  18
ENDBRANCH  11  12
ENDBRANCH   9  11
ENDBRANCH   8   9
ENDBRANCH   1   8
BRANCH   4  24
ATOM     24  C   UNL     1      48.708   7.807  13.974  0.00  0.00    +0.000 C 
BRANCH  24  25
ATOM     25  N   UNL     1      49.658   7.008  14.715  0.00  0.00    +0.000 N 
ATOM     26  C   UNL     1      49.753   7.108  16.081  0.00  0.00    +0.000 C 
ATOM     27  O   UNL     1      49.007   7.840  16.727  0.00  0.00    +0.000 OA
ATOM     28  H   UNL     1      50.412   6.569  14.195  0.00  0.00    +0.000 HD
BRANCH  26  29
ATOM     29  C   UNL     1      50.751   6.257  16.748  0.00  0.00    +0.000 A 
ATOM     30  C   UNL     1      50.337   5.351  17.716  0.00  0.00    +0.000 A 
ATOM     31  S   UNL     1      51.604   4.415  18.366  0.00  0.00    +0.000 S 
ATOM     32  C   UNL     1      52.761   5.225  17.419  0.00  0.00    +0.000 A 
ATOM     33  N   UNL     1      54.084   4.923  17.521  0.00  0.00    +0.000 NA
ATOM     34  C   UNL     1      54.852   5.638  16.770  0.00  0.00    +0.000 A 
ATOM     35  N   UNL     1      54.420   6.620  15.918  0.00  0.00    +0.000 N 
ATOM     36  C   UNL     1      53.092   6.933  15.755  0.00  0.00    +0.000 A 
ATOM     37  O   UNL     1      52.730   7.773  14.937  0.00  0.00    +0.000 OA
ATOM     38  C   UNL     1      52.185   6.176  16.595  0.00  0.00    +0.000 A 
ATOM     39  H   UNL     1      55.076   7.135  15.352  0.00  0.00    +0.000 HD
ENDBRANCH  26  29
ENDBRANCH  24  25
ENDBRANCH   4  24
TORSDOF 11
ENDMDL
MODEL 8
REMARK VINA RESULT:    -6.778      3.154      3.718
REMARK INTER + INTRA:         -12.317
REMARK INTER:                 -10.908
REMARK INTRA:                  -1.409
REMARK UNBOUND:                -1.576
REMARK  Name = 
REMARK  12 active torsions:
REMARK  status: ('A' for Active; 'I' for Inactive)
REMARK    1  A    between atoms: C_1  and  C_2
REMARK    2  A    between atoms: C_2  and  N_3
REMARK    3  A    between atoms: C_2  and  C_15
REMARK    4  A    between atoms: N_3  and  C_4
REMARK    5  A    between atoms: C_4  and  C_5
REMARK    6  A    between atoms: C_8  and  C_9
REMARK    7  A    between atoms: C_9  and  O_10
REMARK    8  A    between atoms: C_9  and  C_11
REMARK    9  A    between atoms: C_11  and  O_12
REMARK   10  A    between atoms: C_18  and  C_19
REMARK   11  A    between atoms: C_19  and  N_20
REMARK   12  A    between atoms: C_21  and  C_23
REMARK                            x       y       z     vdW  Elec       q    Type
REMARK                         _______ _______ _______ _____ _____    ______ ____
ROOT
ATOM      1  C   UNL     1      45.422   6.881  12.362  0.00  0.00    +0.000 A 
ATOM      2  C   UNL     1      46.633   6.402  11.859  0.00  0.00    +0.000 A 
ATOM      3  C   UNL     1      47.717   7.277  11.745  0.00  0.00    +0.000 A 
ATOM      4  C   UNL     1      47.589   8.605  12.155  0.00  0.00    +0.000 A 
ATOM      5  C   UNL     1      46.366   8.981  12.694  0.00  0.00    +0.000 A 
ATOM      6  N   UNL     1      45.298   8.156  12.811  0.00  0.00    +0.000 NA
ENDROOT
BRANCH   1   8
ATOM      7  C   UNL     1      44.434   4.672  13.011  0.00  0.00    +0.000 C 
ATOM      8  C   UNL     1      44.162   6.002  12.288  0.00  0.00    +0.000 C 
BRANCH   8   9
ATOM      9  N   UNL     1      43.649   5.813  10.908  0.00  0.00    +0.000 NA
ATOM     10  H   UNL     1      42.766   6.313  10.820  0.00  0.00    +0.000 HD
BRANCH   9  11
ATOM     11  C   UNL     1      43.430   4.391  10.603  0.00  0.00    +0.000 C 
BRANCH  11  12
ATOM     12  C   UNL     1      44.485   3.749   9.739  0.00  0.00    +0.000 A 
ATOM     13  C   UNL     1      44.631   2.369   9.601  0.00  0.00    +0.000 A 
ATOM     14  C   UNL     1      45.550   1.852   8.687  0.00  0.00    +0.000 A 
ATOM     15  C   UNL     1      46.300   2.732   7.910  0.00  0.00    +0.000 A 
ATOM     16  N   UNL     1      46.166   4.080   8.007  0.00  0.00    +0.000 NA
ATOM     17  C   UNL     1      45.270   4.548   8.908  0.00  0.00    +0.000 A 
BRANCH  15  18
ATOM     18  C   UNL     1      47.287   2.216   6.877  0.00  0.00    +0.000 C 
BRANCH  18  19
ATOM     19  O   UNL     1      47.286   0.782   6.906  0.00  0.00    +0.000 OA
ATOM     20  H   UNL     1      47.126   0.506   5.981  0.00  0.00    +0.000 HD
ENDBRANCH  18  19
BRANCH  18  21
ATOM     21  C   UNL     1      46.905   2.682   5.464  0.00  0.00    +0.000 C 
BRANCH  21  22
ATOM     22  O   UNL     1      46.850   4.103   5.357  0.00  0.00    +0.000 OA
ATOM     23  H   UNL     1      46.627   4.439   6.244  0.00  0.00    +0.000 HD
ENDBRANCH  21  22
ENDBRANCH  18  21
ENDBRANCH  15  18
ENDBRANCH  11  12
ENDBRANCH   9  11
ENDBRANCH   8   9
ENDBRANCH   1   8
BRANCH   4  24
ATOM     24  C   UNL     1      48.693   9.606  11.969  0.00  0.00    +0.000 C 
BRANCH  24  25
ATOM     25  N   UNL     1      49.981   9.046  12.312  0.00  0.00    +0.000 N 
ATOM     26  C   UNL     1      51.053   9.858  12.591  0.00  0.00    +0.000 C 
ATOM     27  O   UNL     1      50.947  11.082  12.607  0.00  0.00    +0.000 OA
ATOM     28  H   UNL     1      50.142   8.067  12.098  0.00  0.00    +0.000 HD
BRANCH  26  29
ATOM     29  C   UNL     1      52.324   9.198  12.927  0.00  0.00    +0.000 A 
ATOM     30  C   UNL     1      52.915   9.444  14.160  0.00  0.00    +0.000 A 
ATOM     31  S   UNL     1      54.361   8.577  14.413  0.00  0.00    +0.000 S 
ATOM     32  C   UNL     1      54.280   7.885  12.862  0.00  0.00    +0.000 A 
ATOM     33  N   UNL     1      55.257   7.048  12.418  0.00  0.00    +0.000 NA
ATOM     34  C   UNL     1      55.086   6.623  11.211  0.00  0.00    +0.000 A 
ATOM     35  N   UNL     1      54.023   6.948  10.410  0.00  0.00    +0.000 N 
ATOM     36  C   UNL     1      52.995   7.758  10.830  0.00  0.00    +0.000 A 
ATOM     37  O   UNL     1      52.024   7.979  10.113  0.00  0.00    +0.000 OA
ATOM     38  C   UNL     1      53.150   8.285  12.172  0.00  0.00    +0.000 A 
ATOM     39  H   UNL     1      53.947   6.572   9.479  0.00  0.00    +0.000 HD
ENDBRANCH  26  29
ENDBRANCH  24  25
ENDBRANCH   4  24
TORSDOF 11
ENDMDL
MODEL 9
REMARK VINA RESULT:    -6.485      3.605      5.163
REMARK INTER + INTRA:         -11.852
REMARK INTER:                 -10.341
REMARK INTRA:                  -1.511
REMARK UNBOUND:                -1.576
REMARK  Name = 
REMARK  12 active torsions:
REMARK  status: ('A' for Active; 'I' for Inactive)
REMARK    1  A    between atoms: C_1  and  C_2
REMARK    2  A    between atoms: C_2  and  N_3
REMARK    3  A    between atoms: C_2  and  C_15
REMARK    4  A    between atoms: N_3  and  C_4
REMARK    5  A    between atoms: C_4  and  C_5
REMARK    6  A    between atoms: C_8  and  C_9
REMARK    7  A    between atoms: C_9  and  O_10
REMARK    8  A    between atoms: C_9  and  C_11
REMARK    9  A    between atoms: C_11  and  O_12
REMARK   10  A    between atoms: C_18  and  C_19
REMARK   11  A    between atoms: C_19  and  N_20
REMARK   12  A    between atoms: C_21  and  C_23
REMARK                            x       y       z     vdW  Elec       q    Type
REMARK                         _______ _______ _______ _____ _____    ______ ____
ROOT
ATOM      1  C   UNL     1      44.855   6.679  12.147  0.00  0.00    +0.000 A 
ATOM      2  C   UNL     1      46.064   6.014  11.937  0.00  0.00    +0.000 A 
ATOM      3  C   UNL     1      47.264   6.707  12.122  0.00  0.00    +0.000 A 
ATOM      4  C   UNL     1      47.245   8.039  12.538  0.00  0.00    +0.000 A 
ATOM      5  C   UNL     1      45.999   8.604  12.777  0.00  0.00    +0.000 A 
ATOM      6  N   UNL     1      44.821   7.959  12.600  0.00  0.00    +0.000 NA
ENDROOT
BRANCH   1   8
ATOM      7  C   UNL     1      43.231   4.855  12.708  0.00  0.00    +0.000 C 
ATOM      8  C   UNL     1      43.533   6.010  11.737  0.00  0.00    +0.000 C 
BRANCH   8   9
ATOM      9  N   UNL     1      43.495   5.590  10.313  0.00  0.00    +0.000 NA
ATOM     10  H   UNL     1      42.625   5.923   9.902  0.00  0.00    +0.000 HD
BRANCH   9  11
ATOM     11  C   UNL     1      43.564   4.127  10.179  0.00  0.00    +0.000 C 
BRANCH  11  12
ATOM     12  C   UNL     1      44.739   3.609   9.391  0.00  0.00    +0.000 A 
ATOM     13  C   UNL     1      45.032   2.253   9.249  0.00  0.00    +0.000 A 
ATOM     14  C   UNL     1      46.064   1.847   8.401  0.00  0.00    +0.000 A 
ATOM     15  C   UNL     1      46.777   2.811   7.692  0.00  0.00    +0.000 A 
ATOM     16  N   UNL     1      46.501   4.136   7.793  0.00  0.00    +0.000 NA
ATOM     17  C   UNL     1      45.498   4.496   8.629  0.00  0.00    +0.000 A 
BRANCH  15  18
ATOM     18  C   UNL     1      47.884   2.413   6.731  0.00  0.00    +0.000 C 
BRANCH  18  19
ATOM     19  O   UNL     1      48.065   0.992   6.788  0.00  0.00    +0.000 OA
ATOM     20  H   UNL     1      47.648   0.646   5.973  0.00  0.00    +0.000 HD
ENDBRANCH  18  19
BRANCH  18  21
ATOM     21  C   UNL     1      47.534   2.809   5.288  0.00  0.00    +0.000 C 
BRANCH  21  22
ATOM     22  O   UNL     1      46.131   2.749   5.034  0.00  0.00    +0.000 OA
ATOM     23  H   UNL     1      45.877   1.810   5.105  0.00  0.00    +0.000 HD
ENDBRANCH  21  22
ENDBRANCH  18  21
ENDBRANCH  15  18
ENDBRANCH  11  12
ENDBRANCH   9  11
ENDBRANCH   8   9
ENDBRANCH   1   8
BRANCH   4  24
ATOM     24  C   UNL     1      48.500   8.853  12.663  0.00  0.00    +0.000 C 
BRANCH  24  25
ATOM     25  N   UNL     1      49.420   8.581  11.581  0.00  0.00    +0.000 N 
ATOM     26  C   UNL     1      50.776   8.699  11.759  0.00  0.00    +0.000 C 
ATOM     27  O   UNL     1      51.260   8.991  12.851  0.00  0.00    +0.000 OA
ATOM     28  H   UNL     1      49.044   8.550  10.638  0.00  0.00    +0.000 HD
BRANCH  26  29
ATOM     29  C   UNL     1      51.632   8.403  10.600  0.00  0.00    +0.000 A 
ATOM     30  C   UNL     1      51.790   7.087  10.186  0.00  0.00    +0.000 A 
ATOM     31  S   UNL     1      52.781   6.914   8.810  0.00  0.00    +0.000 S 
ATOM     32  C   UNL     1      53.083   8.587   8.751  0.00  0.00    +0.000 A 
ATOM     33  N   UNL     1      53.906   9.115   7.806  0.00  0.00    +0.000 NA
ATOM     34  C   UNL     1      54.072  10.393   7.899  0.00  0.00    +0.000 A 
ATOM     35  N   UNL     1      53.482  11.192   8.842  0.00  0.00    +0.000 N 
ATOM     36  C   UNL     1      52.614  10.707   9.791  0.00  0.00    +0.000 A 
ATOM     37  O   UNL     1      52.051  11.456  10.583  0.00  0.00    +0.000 OA
ATOM     38  C   UNL     1      52.412   9.272   9.748  0.00  0.00    +0.000 A 
ATOM     39  H   UNL     1      53.648  12.185   8.851  0.00  0.00    +0.000 HD
ENDBRANCH  26  29
ENDBRANCH  24  25
ENDBRANCH   4  24
TORSDOF 11
ENDMDL
