MODEL 1
REMARK VINA RESULT:    -8.498      0.000      0.000
REMARK INTER + INTRA:         -13.410
REMARK INTER:                 -12.472
REMARK INTRA:                  -0.937
REMARK UNBOUND:                -0.937
REMARK  Name = 
REMARK  8 active torsions:
REMARK  status: ('A' for Active; 'I' for Inactive)
REMARK    1  A    between atoms: C_2  and  C_3
REMARK    2  A    between atoms: C_3  and  N_4
REMARK    3  A    between atoms: C_3  and  C_27
REMARK    4  A    between atoms: N_4  and  C_5
REMARK    5  A    between atoms: C_5  and  C_6
REMARK    6  A    between atoms: C_9  and  C_10
REMARK    7  A    between atoms: C_10  and  N_11
REMARK    8  A    between atoms: C_12  and  C_14
REMARK                            x       y       z     vdW  Elec       q    Type
REMARK                         _______ _______ _______ _____ _____    ______ ____
ROOT
ATOM      1  C   UNL     1      44.215   6.663  11.795  0.00  0.00    +0.000 A 
ATOM      2  C   UNL     1      44.466   7.973  11.390  0.00  0.00    +0.000 A 
ATOM      3  C   UNL     1      45.546   8.658  11.945  0.00  0.00    +0.000 A 
ATOM      4  C   UNL     1      46.360   8.024  12.886  0.00  0.00    +0.000 A 
ATOM      5  C   UNL     1      46.001   6.734  13.263  0.00  0.00    +0.000 A 
ATOM      6  N   UNL     1      44.973   6.031  12.724  0.00  0.00    +0.000 NA
ENDROOT
BRANCH   1   7
ATOM      7  C   UNL     1      43.053   5.893  11.196  0.00  0.00    +0.000 C 
BRANCH   7   8
ATOM      8  N   UNL     1      43.448   5.152   9.982  0.00  0.00    +0.000 NA
ATOM      9  H   UNL     1      43.950   5.802   9.377  0.00  0.00    +0.000 HD
BRANCH   8  10
ATOM     10  C   UNL     1      44.303   3.983  10.277  0.00  0.00    +0.000 C 
BRANCH  10  11
ATOM     11  C   UNL     1      44.851   3.392   8.937  0.00  0.00    +0.000 C 
ATOM     12  C   UNL     1      45.486   1.994   9.122  0.00  0.00    +0.000 C 
ATOM     13  C   UNL     1      46.097   1.450   7.833  0.00  0.00    +0.000 C 
ATOM     14  C   UNL     1      47.095   2.430   7.231  0.00  0.00    +0.000 C 
ATOM     15  C   UNL     1      46.439   3.781   6.971  0.00  0.00    +0.000 C 
ATOM     16  C   UNL     1      45.837   4.363   8.248  0.00  0.00    +0.000 C 
ENDBRANCH  10  11
BRANCH  10  18
ATOM     17  N   UNL     1      43.069   2.116  11.694  0.00  0.00    +0.000 NA
ATOM     18  C   UNL     1      43.607   2.928  11.057  0.00  0.00    +0.000 C 
ENDBRANCH  10  18
ENDBRANCH   8  10
ENDBRANCH   7   8
ENDBRANCH   1   7
BRANCH   4  19
ATOM     19  C   UNL     1      47.560   8.700  13.484  0.00  0.00    +0.000 C 
BRANCH  19  20
ATOM     20  N   UNL     1      47.873   8.185  14.784  0.00  0.00    +0.000 N 
ATOM     21  C   UNL     1      48.862   7.255  14.991  0.00  0.00    +0.000 C 
ATOM     22  O   UNL     1      49.472   6.727  14.064  0.00  0.00    +0.000 OA
ATOM     23  H   UNL     1      47.631   8.783  15.570  0.00  0.00    +0.000 HD
BRANCH  21  24
ATOM     24  C   UNL     1      49.081   6.868  16.389  0.00  0.00    +0.000 A 
ATOM     25  C   UNL     1      49.879   7.650  17.214  0.00  0.00    +0.000 A 
ATOM     26  S   UNL     1      50.070   7.006  18.782  0.00  0.00    +0.000 S 
ATOM     27  C   UNL     1      49.055   5.679  18.425  0.00  0.00    +0.000 A 
ATOM     28  N   UNL     1      48.796   4.742  19.375  0.00  0.00    +0.000 NA
ATOM     29  C   UNL     1      48.009   3.791  18.969  0.00  0.00    +0.000 A 
ATOM     30  N   UNL     1      47.468   3.708  17.705  0.00  0.00    +0.000 N 
ATOM     31  O   UNL     1      46.659   2.603  17.442  0.00  0.00    +0.000 OA
ATOM     32  C   UNL     1      47.705   4.632  16.691  0.00  0.00    +0.000 A 
ATOM     33  O   UNL     1      47.268   4.595  15.542  0.00  0.00    +0.000 OA
ATOM     34  C   UNL     1      48.593   5.719  17.122  0.00  0.00    +0.000 A 
ENDBRANCH  21  24
ENDBRANCH  19  20
ENDBRANCH   4  19
TORSDOF 8
ENDMDL
MODEL 2
REMARK VINA RESULT:    -7.566      3.209      8.532
REMARK INTER + INTRA:         -12.042
REMARK INTER:                 -10.480
REMARK INTRA:                  -1.563
REMARK UNBOUND:                -0.937
REMARK  Name = 
REMARK  8 active torsions:
REMARK  status: ('A' for Active; 'I' for Inactive)
REMARK    1  A    between atoms: C_2  and  C_3
REMARK    2  A    between atoms: C_3  and  N_4
REMARK    3  A    between atoms: C_3  and  C_27
REMARK    4  A    between atoms: N_4  and  C_5
REMARK    5  A    between atoms: C_5  and  C_6
REMARK    6  A    between atoms: C_9  and  C_10
REMARK    7  A    between atoms: C_10  and  N_11
REMARK    8  A    between atoms: C_12  and  C_14
REMARK                            x       y       z     vdW  Elec       q    Type
REMARK                         _______ _______ _______ _____ _____    ______ ____
ROOT
ATOM      1  C   UNL     1      48.922   7.841  16.148  0.00  0.00    +0.000 A 
ATOM      2  C   UNL     1      48.900   6.620  15.474  0.00  0.00    +0.000 A 
ATOM      3  C   UNL     1      48.378   6.568  14.183  0.00  0.00    +0.000 A 
ATOM      4  C   UNL     1      47.895   7.733  13.583  0.00  0.00    +0.000 A 
ATOM      5  C   UNL     1      47.913   8.892  14.351  0.00  0.00    +0.000 A 
ATOM      6  N   UNL     1      48.437   8.982  15.600  0.00  0.00    +0.000 NA
ENDROOT
BRANCH   1   7
ATOM      7  C   UNL     1      49.497   7.925  17.549  0.00  0.00    +0.000 C 
BRANCH   7   8
ATOM      8  N   UNL     1      50.233   6.702  17.919  0.00  0.00    +0.000 NA
ATOM      9  H   UNL     1      51.194   6.974  18.129  0.00  0.00    +0.000 HD
BRANCH   8  10
ATOM     10  C   UNL     1      49.645   6.008  19.084  0.00  0.00    +0.000 C 
BRANCH  10  11
ATOM     11  C   UNL     1      49.258   4.549  18.678  0.00  0.00    +0.000 C 
ATOM     12  C   UNL     1      50.312   3.892  17.757  0.00  0.00    +0.000 C 
ATOM     13  C   UNL     1      49.899   2.499  17.289  0.00  0.00    +0.000 C 
ATOM     14  C   UNL     1      48.527   2.516  16.628  0.00  0.00    +0.000 C 
ATOM     15  C   UNL     1      47.476   3.085  17.573  0.00  0.00    +0.000 C 
ATOM     16  C   UNL     1      47.851   4.490  18.041  0.00  0.00    +0.000 C 
ENDBRANCH  10  11
BRANCH  10  18
ATOM     17  N   UNL     1      47.560   7.268  20.125  0.00  0.00    +0.000 NA
ATOM     18  C   UNL     1      48.467   6.712  19.654  0.00  0.00    +0.000 C 
ENDBRANCH  10  18
ENDBRANCH   8  10
ENDBRANCH   7   8
ENDBRANCH   1   7
BRANCH   4  19
ATOM     19  C   UNL     1      47.360   7.742  12.180  0.00  0.00    +0.000 C 
BRANCH  19  20
ATOM     20  N   UNL     1      46.659   6.532  11.865  0.00  0.00    +0.000 N 
ATOM     21  C   UNL     1      45.289   6.459  11.844  0.00  0.00    +0.000 C 
ATOM     22  O   UNL     1      44.574   7.395  12.195  0.00  0.00    +0.000 OA
ATOM     23  H   UNL     1      47.167   5.860  11.296  0.00  0.00    +0.000 HD
BRANCH  21  24
ATOM     24  C   UNL     1      44.733   5.156  11.459  0.00  0.00    +0.000 A 
ATOM     25  C   UNL     1      43.917   4.456  12.339  0.00  0.00    +0.000 A 
ATOM     26  S   UNL     1      43.424   2.936  11.744  0.00  0.00    +0.000 S 
ATOM     27  C   UNL     1      44.251   3.179  10.268  0.00  0.00    +0.000 A 
ATOM     28  N   UNL     1      44.213   2.226   9.300  0.00  0.00    +0.000 NA
ATOM     29  C   UNL     1      44.882   2.541   8.231  0.00  0.00    +0.000 A 
ATOM     30  N   UNL     1      45.575   3.720   8.061  0.00  0.00    +0.000 N 
ATOM     31  O   UNL     1      46.253   3.877   6.852  0.00  0.00    +0.000 OA
ATOM     32  C   UNL     1      45.656   4.725   9.020  0.00  0.00    +0.000 A 
ATOM     33  O   UNL     1      46.277   5.783   8.930  0.00  0.00    +0.000 OA
ATOM     34  C   UNL     1      44.908   4.395  10.240  0.00  0.00    +0.000 A 
ENDBRANCH  21  24
ENDBRANCH  19  20
ENDBRANCH   4  19
TORSDOF 8
ENDMDL
MODEL 3
REMARK VINA RESULT:    -7.210      1.986      2.439
REMARK INTER + INTRA:         -11.519
REMARK INTER:                 -10.215
REMARK INTRA:                  -1.304
REMARK UNBOUND:                -0.937
REMARK  Name = 
REMARK  8 active torsions:
REMARK  status: ('A' for Active; 'I' for Inactive)
REMARK    1  A    between atoms: C_2  and  C_3
REMARK    2  A    between atoms: C_3  and  N_4
REMARK    3  A    between atoms: C_3  and  C_27
REMARK    4  A    between atoms: N_4  and  C_5
REMARK    5  A    between atoms: C_5  and  C_6
REMARK    6  A    between atoms: C_9  and  C_10
REMARK    7  A    between atoms: C_10  and  N_11
REMARK    8  A    between atoms: C_12  and  C_14
REMARK                            x       y       z     vdW  Elec       q    Type
REMARK                         _______ _______ _______ _____ _____    ______ ____
ROOT
ATOM      1  C   UNL     1      46.443   7.776  12.211  0.00  0.00    +0.000 A 
ATOM      2  C   UNL     1      46.553   8.647  13.293  0.00  0.00    +0.000 A 
ATOM      3  C   UNL     1      47.806   8.861  13.867  0.00  0.00    +0.000 A 
ATOM      4  C   UNL     1      48.925   8.210  13.347  0.00  0.00    +0.000 A 
ATOM      5  C   UNL     1      48.709   7.322  12.298  0.00  0.00    +0.000 A 
ATOM      6  N   UNL     1      47.509   7.111  11.702  0.00  0.00    +0.000 NA
ENDROOT
BRANCH   1   7
ATOM      7  C   UNL     1      45.093   7.537  11.562  0.00  0.00    +0.000 C 
BRANCH   7   8
ATOM      8  N   UNL     1      45.162   6.510  10.504  0.00  0.00    +0.000 NA
ATOM      9  H   UNL     1      46.147   6.360  10.286  0.00  0.00    +0.000 HD
BRANCH   8  10
ATOM     10  C   UNL     1      44.538   5.231  10.904  0.00  0.00    +0.000 C 
BRANCH  10  11
ATOM     11  C   UNL     1      44.587   4.233   9.703  0.00  0.00    +0.000 C 
ATOM     12  C   UNL     1      44.744   2.764  10.159  0.00  0.00    +0.000 C 
ATOM     13  C   UNL     1      44.877   1.794   8.987  0.00  0.00    +0.000 C 
ATOM     14  C   UNL     1      46.007   2.202   8.051  0.00  0.00    +0.000 C 
ATOM     15  C   UNL     1      45.802   3.621   7.537  0.00  0.00    +0.000 C 
ATOM     16  C   UNL     1      45.688   4.619   8.688  0.00  0.00    +0.000 C 
ENDBRANCH  10  11
BRANCH  10  18
ATOM     17  N   UNL     1      42.044   5.524  11.747  0.00  0.00    +0.000 NA
ATOM     18  C   UNL     1      43.142   5.384  11.389  0.00  0.00    +0.000 C 
ENDBRANCH  10  18
ENDBRANCH   8  10
ENDBRANCH   7   8
ENDBRANCH   1   7
BRANCH   4  19
ATOM     19  C   UNL     1      50.304   8.435  13.899  0.00  0.00    +0.000 C 
BRANCH  19  20
ATOM     20  N   UNL     1      50.733   7.349  14.728  0.00  0.00    +0.000 N 
ATOM     21  C   UNL     1      50.912   7.481  16.083  0.00  0.00    +0.000 C 
ATOM     22  O   UNL     1      50.818   8.564  16.656  0.00  0.00    +0.000 OA
ATOM     23  H   UNL     1      50.531   6.415  14.379  0.00  0.00    +0.000 HD
BRANCH  21  24
ATOM     24  C   UNL     1      51.312   6.258  16.789  0.00  0.00    +0.000 A 
ATOM     25  C   UNL     1      52.583   6.152  17.339  0.00  0.00    +0.000 A 
ATOM     26  S   UNL     1      52.887   4.636  18.058  0.00  0.00    +0.000 S 
ATOM     27  C   UNL     1      51.311   4.082  17.697  0.00  0.00    +0.000 A 
ATOM     28  N   UNL     1      50.925   2.832  18.066  0.00  0.00    +0.000 NA
ATOM     29  C   UNL     1      49.704   2.543  17.731  0.00  0.00    +0.000 A 
ATOM     30  N   UNL     1      48.852   3.397  17.065  0.00  0.00    +0.000 N 
ATOM     31  O   UNL     1      47.580   2.905  16.770  0.00  0.00    +0.000 OA
ATOM     32  C   UNL     1      49.195   4.681  16.655  0.00  0.00    +0.000 A 
ATOM     33  O   UNL     1      48.485   5.475  16.039  0.00  0.00    +0.000 OA
ATOM     34  C   UNL     1      50.573   5.035  17.021  0.00  0.00    +0.000 A 
ENDBRANCH  21  24
ENDBRANCH  19  20
ENDBRANCH   4  19
TORSDOF 8
ENDMDL
MODEL 4
REMARK VINA RESULT:    -6.887      3.265      8.188
REMARK INTER + INTRA:         -11.045
REMARK INTER:                  -9.039
REMARK INTRA:                  -2.007
REMARK UNBOUND:                -0.937
REMARK  Name = 
REMARK  8 active torsions:
REMARK  status: ('A' for Active; 'I' for Inactive)
REMARK    1  A    between atoms: C_2  and  C_3
REMARK    2  A    between atoms: C_3  and  N_4
REMARK    3  A    between atoms: C_3  and  C_27
REMARK    4  A    between atoms: N_4  and  C_5
REMARK    5  A    between atoms: C_5  and  C_6
REMARK    6  A    between atoms: C_9  and  C_10
REMARK    7  A    between atoms: C_10  and  N_11
REMARK    8  A    between atoms: C_12  and  C_14
REMARK                            x       y       z     vdW  Elec       q    Type
REMARK                         _______ _______ _______ _____ _____    ______ ____
ROOT
ATOM      1  C   UNL     1      51.543   6.697  17.217  0.00  0.00    +0.000 A 
ATOM      2  C   UNL     1      50.850   7.485  18.135  0.00  0.00    +0.000 A 
ATOM      3  C   UNL     1      49.911   8.404  17.668  0.00  0.00    +0.000 A 
ATOM      4  C   UNL     1      49.675   8.515  16.296  0.00  0.00    +0.000 A 
ATOM      5  C   UNL     1      50.450   7.723  15.456  0.00  0.00    +0.000 A 
ATOM      6  N   UNL     1      51.352   6.802  15.879  0.00  0.00    +0.000 NA
ENDROOT
BRANCH   1   7
ATOM      7  C   UNL     1      52.559   5.681  17.703  0.00  0.00    +0.000 C 
BRANCH   7   8
ATOM      8  N   UNL     1      51.926   4.581  18.455  0.00  0.00    +0.000 NA
ATOM      9  H   UNL     1      51.568   4.972  19.327  0.00  0.00    +0.000 HD
BRANCH   8  10
ATOM     10  C   UNL     1      50.825   3.936  17.709  0.00  0.00    +0.000 C 
BRANCH  10  11
ATOM     11  C   UNL     1      49.486   4.129  18.492  0.00  0.00    +0.000 C 
ATOM     12  C   UNL     1      48.435   4.925  17.684  0.00  0.00    +0.000 C 
ATOM     13  C   UNL     1      47.157   5.188  18.477  0.00  0.00    +0.000 C 
ATOM     14  C   UNL     1      47.456   5.867  19.807  0.00  0.00    +0.000 C 
ATOM     15  C   UNL     1      48.426   5.035  20.637  0.00  0.00    +0.000 C 
ATOM     16  C   UNL     1      49.725   4.774  19.877  0.00  0.00    +0.000 C 
ENDBRANCH  10  11
BRANCH  10  18
ATOM     17  N   UNL     1      51.275   1.368  17.241  0.00  0.00    +0.000 NA
ATOM     18  C   UNL     1      51.061   2.494  17.443  0.00  0.00    +0.000 C 
ENDBRANCH  10  18
ENDBRANCH   8  10
ENDBRANCH   7   8
ENDBRANCH   1   7
BRANCH   4  19
ATOM     19  C   UNL     1      48.646   9.459  15.741  0.00  0.00    +0.000 C 
BRANCH  19  20
ATOM     20  N   UNL     1      47.660   8.776  14.958  0.00  0.00    +0.000 N 
ATOM     21  C   UNL     1      47.656   8.807  13.586  0.00  0.00    +0.000 C 
ATOM     22  O   UNL     1      48.433   9.508  12.942  0.00  0.00    +0.000 OA
ATOM     23  H   UNL     1      47.215   7.977  15.403  0.00  0.00    +0.000 HD
BRANCH  21  24
ATOM     24  C   UNL     1      46.600   8.017  12.940  0.00  0.00    +0.000 A 
ATOM     25  C   UNL     1      45.624   8.645  12.178  0.00  0.00    +0.000 A 
ATOM     26  S   UNL     1      44.448   7.573  11.565  0.00  0.00    +0.000 S 
ATOM     27  C   UNL     1      45.228   6.223  12.264  0.00  0.00    +0.000 A 
ATOM     28  N   UNL     1      44.717   4.975  12.095  0.00  0.00    +0.000 NA
ATOM     29  C   UNL     1      45.410   4.043  12.676  0.00  0.00    +0.000 A 
ATOM     30  N   UNL     1      46.560   4.262  13.403  0.00  0.00    +0.000 N 
ATOM     31  O   UNL     1      47.161   3.140  13.974  0.00  0.00    +0.000 OA
ATOM     32  C   UNL     1      47.125   5.516  13.616  0.00  0.00    +0.000 A 
ATOM     33  O   UNL     1      48.133   5.771  14.272  0.00  0.00    +0.000 OA
ATOM     34  C   UNL     1      46.359   6.590  12.969  0.00  0.00    +0.000 A 
ENDBRANCH  21  24
ENDBRANCH  19  20
ENDBRANCH   4  19
TORSDOF 8
ENDMDL
MODEL 5
REMARK VINA RESULT:    -6.726      3.386      8.785
REMARK INTER + INTRA:         -10.810
REMARK INTER:                  -9.672
REMARK INTRA:                  -1.138
REMARK UNBOUND:                -0.937
REMARK  Name = 
REMARK  8 active torsions:
REMARK  status: ('A' for Active; 'I' for Inactive)
REMARK    1  A    between atoms: C_2  and  C_3
REMARK    2  A    between atoms: C_3  and  N_4
REMARK    3  A    between atoms: C_3  and  C_27
REMARK    4  A    between atoms: N_4  and  C_5
REMARK    5  A    between atoms: C_5  and  C_6
REMARK    6  A    between atoms: C_9  and  C_10
REMARK    7  A    between atoms: C_10  and  N_11
REMARK    8  A    between atoms: C_12  and  C_14
REMARK                            x       y       z     vdW  Elec       q    Type
REMARK                         _______ _______ _______ _____ _____    ______ ____
ROOT
ATOM      1  C   UNL     1      49.129   7.809  15.681  0.00  0.00    +0.000 A 
ATOM      2  C   UNL     1      48.275   8.848  15.317  0.00  0.00    +0.000 A 
ATOM      3  C   UNL     1      47.706   8.844  14.044  0.00  0.00    +0.000 A 
ATOM      4  C   UNL     1      47.993   7.801  13.161  0.00  0.00    +0.000 A 
ATOM      5  C   UNL     1      48.895   6.835  13.596  0.00  0.00    +0.000 A 
ATOM      6  N   UNL     1      49.444   6.797  14.836  0.00  0.00    +0.000 NA
ENDROOT
BRANCH   1   7
ATOM      7  C   UNL     1      49.749   7.784  17.066  0.00  0.00    +0.000 C 
BRANCH   7   8
ATOM      8  N   UNL     1      48.765   7.426  18.106  0.00  0.00    +0.000 NA
ATOM      9  H   UNL     1      47.836   7.593  17.718  0.00  0.00    +0.000 HD
BRANCH   8  10
ATOM     10  C   UNL     1      48.880   6.019  18.543  0.00  0.00    +0.000 C 
BRANCH  10  11
ATOM     11  C   UNL     1      50.386   5.603  18.560  0.00  0.00    +0.000 C 
ATOM     12  C   UNL     1      50.686   4.424  17.606  0.00  0.00    +0.000 C 
ATOM     13  C   UNL     1      52.138   3.959  17.682  0.00  0.00    +0.000 C 
ATOM     14  C   UNL     1      52.543   3.625  19.112  0.00  0.00    +0.000 C 
ATOM     15  C   UNL     1      52.326   4.820  20.032  0.00  0.00    +0.000 C 
ATOM     16  C   UNL     1      50.875   5.294  19.994  0.00  0.00    +0.000 C 
ENDBRANCH  10  11
BRANCH  10  18
ATOM     17  N   UNL     1      47.478   4.321  17.070  0.00  0.00    +0.000 NA
ATOM     18  C   UNL     1      48.096   5.077  17.704  0.00  0.00    +0.000 C 
ENDBRANCH  10  18
ENDBRANCH   8  10
ENDBRANCH   7   8
ENDBRANCH   1   7
BRANCH   4  19
ATOM     19  C   UNL     1      47.376   7.725  11.793  0.00  0.00    +0.000 C 
BRANCH  19  20
ATOM     20  N   UNL     1      46.668   6.496  11.592  0.00  0.00    +0.000 N 
ATOM     21  C   UNL     1      45.297   6.425  11.601  0.00  0.00    +0.000 C 
ATOM     22  O   UNL     1      44.590   7.390  11.886  0.00  0.00    +0.000 OA
ATOM     23  H   UNL     1      47.164   5.777  11.071  0.00  0.00    +0.000 HD
BRANCH  21  24
ATOM     24  C   UNL     1      44.732   5.097  11.335  0.00  0.00    +0.000 A 
ATOM     25  C   UNL     1      43.946   4.468  12.292  0.00  0.00    +0.000 A 
ATOM     26  S   UNL     1      43.437   2.907  11.831  0.00  0.00    +0.000 S 
ATOM     27  C   UNL     1      44.216   3.035  10.315  0.00  0.00    +0.000 A 
ATOM     28  N   UNL     1      44.149   2.011   9.424  0.00  0.00    +0.000 NA
ATOM     29  C   UNL     1      44.782   2.243   8.314  0.00  0.00    +0.000 A 
ATOM     30  N   UNL     1      45.467   3.405   8.032  0.00  0.00    +0.000 N 
ATOM     31  O   UNL     1      46.106   3.469   6.793  0.00  0.00    +0.000 OA
ATOM     32  C   UNL     1      45.577   4.481   8.908  0.00  0.00    +0.000 A 
ATOM     33  O   UNL     1      46.192   5.528   8.718  0.00  0.00    +0.000 OA
ATOM     34  C   UNL     1      44.869   4.245  10.174  0.00  0.00    +0.000 A 
ENDBRANCH  21  24
ENDBRANCH  19  20
ENDBRANCH   4  19
TORSDOF 8
ENDMDL
MODEL 6
REMARK VINA RESULT:    -6.671      5.093      8.261
REMARK INTER + INTRA:         -10.728
REMARK INTER:                  -9.647
REMARK INTRA:                  -1.080
REMARK UNBOUND:                -0.937
REMARK  Name = 
REMARK  8 active torsions:
REMARK  status: ('A' for Active; 'I' for Inactive)
REMARK    1  A    between atoms: C_2  and  C_3
REMARK    2  A    between atoms: C_3  and  N_4
REMARK    3  A    between atoms: C_3  and  C_27
REMARK    4  A    between atoms: N_4  and  C_5
REMARK    5  A    between atoms: C_5  and  C_6
REMARK    6  A    between atoms: C_9  and  C_10
REMARK    7  A    between atoms: C_10  and  N_11
REMARK    8  A    between atoms: C_12  and  C_14
REMARK                            x       y       z     vdW  Elec       q    Type
REMARK                         _______ _______ _______ _____ _____    ______ ____
ROOT
ATOM      1  C   UNL     1      50.474   8.476  12.606  0.00  0.00    +0.000 A 
ATOM      2  C   UNL     1      49.818   7.483  11.879  0.00  0.00    +0.000 A 
ATOM      3  C   UNL     1      48.451   7.293  12.073  0.00  0.00    +0.000 A 
ATOM      4  C   UNL     1      47.761   8.098  12.981  0.00  0.00    +0.000 A 
ATOM      5  C   UNL     1      48.509   9.027  13.695  0.00  0.00    +0.000 A 
ATOM      6  N   UNL     1      49.835   9.256  13.512  0.00  0.00    +0.000 NA
ENDROOT
BRANCH   1   7
ATOM      7  C   UNL     1      51.959   8.711  12.402  0.00  0.00    +0.000 C 
BRANCH   7   8
ATOM      8  N   UNL     1      52.521   7.830  11.361  0.00  0.00    +0.000 NA
ATOM      9  H   UNL     1      51.935   6.995  11.317  0.00  0.00    +0.000 HD
BRANCH   8  10
ATOM     10  C   UNL     1      52.572   8.474  10.031  0.00  0.00    +0.000 C 
BRANCH  10  11
ATOM     11  C   UNL     1      53.330   7.540   9.033  0.00  0.00    +0.000 C 
ATOM     12  C   UNL     1      52.748   7.604   7.602  0.00  0.00    +0.000 C 
ATOM     13  C   UNL     1      53.432   6.632   6.644  0.00  0.00    +0.000 C 
ATOM     14  C   UNL     1      53.407   5.207   7.183  0.00  0.00    +0.000 C 
ATOM     15  C   UNL     1      54.060   5.135   8.557  0.00  0.00    +0.000 C 
ATOM     16  C   UNL     1      53.382   6.082   9.546  0.00  0.00    +0.000 C 
ENDBRANCH  10  11
BRANCH  10  18
ATOM     17  N   UNL     1      53.682  10.878  10.042  0.00  0.00    +0.000 NA
ATOM     18  C   UNL     1      53.199   9.820  10.053  0.00  0.00    +0.000 C 
ENDBRANCH  10  18
ENDBRANCH   8  10
ENDBRANCH   7   8
ENDBRANCH   1   7
BRANCH   4  19
ATOM     19  C   UNL     1      46.281   7.963  13.199  0.00  0.00    +0.000 C 
BRANCH  19  20
ATOM     20  N   UNL     1      45.789   6.691  12.762  0.00  0.00    +0.000 N 
ATOM     21  C   UNL     1      44.802   6.567  11.815  0.00  0.00    +0.000 C 
ATOM     22  O   UNL     1      44.205   7.538  11.357  0.00  0.00    +0.000 OA
ATOM     23  H   UNL     1      46.428   5.906  12.868  0.00  0.00    +0.000 HD
BRANCH  21  24
ATOM     24  C   UNL     1      44.447   5.190  11.451  0.00  0.00    +0.000 A 
ATOM     25  C   UNL     1      43.646   4.430  12.293  0.00  0.00    +0.000 A 
ATOM     26  S   UNL     1      43.397   2.837  11.736  0.00  0.00    +0.000 S 
ATOM     27  C   UNL     1      44.318   3.123  10.326  0.00  0.00    +0.000 A 
ATOM     28  N   UNL     1      44.483   2.135   9.407  0.00  0.00    +0.000 NA
ATOM     29  C   UNL     1      45.202   2.489   8.384  0.00  0.00    +0.000 A 
ATOM     30  N   UNL     1      45.759   3.738   8.214  0.00  0.00    +0.000 N 
ATOM     31  O   UNL     1      46.519   3.931   7.060  0.00  0.00    +0.000 OA
ATOM     32  C   UNL     1      45.631   4.782   9.123  0.00  0.00    +0.000 A 
ATOM     33  O   UNL     1      46.124   5.906   9.033  0.00  0.00    +0.000 OA
ATOM     34  C   UNL     1      44.822   4.409  10.292  0.00  0.00    +0.000 A 
ENDBRANCH  21  24
ENDBRANCH  19  20
ENDBRANCH   4  19
TORSDOF 8
ENDMDL
