MODEL 1
REMARK VINA RESULT:    -8.951      0.000      0.000
REMARK INTER + INTRA:         -12.261
REMARK INTER:                 -11.568
REMARK INTRA:                  -0.693
REMARK UNBOUND:                -0.693
REMARK  Name = 
REMARK  5 active torsions:
REMARK  status: ('A' for Active; 'I' for Inactive)
REMARK    1  A    between atoms: C_2  and  C_4
REMARK    2  A    between atoms: C_7  and  O_8
REMARK    3  A    between atoms: O_8  and  C_9
REMARK    4  A    between atoms: C_9  and  C_10
REMARK    5  A    between atoms: C_14  and  N_15
REMARK                            x       y       z     vdW  Elec       q    Type
REMARK                         _______ _______ _______ _____ _____    ______ ____
ROOT
ATOM      1  C   UNL     1      43.518   4.164  11.430  0.00  0.00    +0.000 C 
ENDROOT
BRANCH   1   2
ATOM      2  C   UNL     1      44.783   4.337  12.235  0.00  0.00    +0.000 A 
ATOM      3  N   UNL     1      45.260   3.242  12.876  0.00  0.00    +0.000 NA
ATOM      4  N   UNL     1      46.387   3.350  13.595  0.00  0.00    +0.000 NA
ATOM      5  C   UNL     1      47.006   4.549  13.619  0.00  0.00    +0.000 A 
ATOM      6  C   UNL     1      46.517   5.666  12.957  0.00  0.00    +0.000 A 
ATOM      7  N   UNL     1      45.362   5.560  12.273  0.00  0.00    +0.000 NA
BRANCH   6   8
ATOM      8  N   UNL     1      47.161   6.883  13.001  0.00  0.00    +0.000 N 
ATOM      9  C   UNL     1      46.471   8.136  13.278  0.00  0.00    +0.000 C 
ATOM     10  C   UNL     1      46.749   9.109  12.136  0.00  0.00    +0.000 C 
ATOM     11  C   UNL     1      48.252   9.263  11.892  0.00  0.00    +0.000 C 
ATOM     12  C   UNL     1      48.941   7.904  11.728  0.00  0.00    +0.000 C 
ATOM     13  C   UNL     1      48.613   6.957  12.889  0.00  0.00    +0.000 C 
ENDBRANCH   6   8
ENDBRANCH   1   2
BRANCH   1  14
ATOM     14  O   UNL     1      43.737   4.570  10.074  0.00  0.00    +0.000 OA
BRANCH  14  18
ATOM     15  C   UNL     1      46.455   2.481   7.692  0.00  0.00    +0.000 A 
ATOM     16  C   UNL     1      45.589   1.752   8.513  0.00  0.00    +0.000 A 
ATOM     17  C   UNL     1      44.663   2.414   9.329  0.00  0.00    +0.000 A 
ATOM     18  C   UNL     1      44.598   3.809   9.331  0.00  0.00    +0.000 A 
ATOM     19  C   UNL     1      45.478   4.534   8.521  0.00  0.00    +0.000 A 
ATOM     20  C   UNL     1      46.409   3.878   7.709  0.00  0.00    +0.000 A 
BRANCH  15  22
ATOM     21  N   UNL     1      48.529   2.543   6.420  0.00  0.00    +0.000 N 
ATOM     22  C   UNL     1      47.445   1.805   6.813  0.00  0.00    +0.000 C 
ATOM     23  O   UNL     1      47.326   0.633   6.487  0.00  0.00    +0.000 OA
ATOM     24  H   UNL     1      49.250   2.044   5.916  0.00  0.00    +0.000 HD
ATOM     25  H   UNL     1      48.790   3.403   6.880  0.00  0.00    +0.000 HD
ENDBRANCH  15  22
ENDBRANCH  14  18
ENDBRANCH   1  14
TORSDOF 5
ENDMDL
MODEL 2
REMARK VINA RESULT:    -7.846      1.251      2.212
REMARK INTER + INTRA:         -10.833
REMARK INTER:                 -10.193
REMARK INTRA:                  -0.640
REMARK UNBOUND:                -0.693
REMARK  Name = 
REMARK  5 active torsions:
REMARK  status: ('A' for Active; 'I' for Inactive)
REMARK    1  A    between atoms: C_2  and  C_4
REMARK    2  A    between atoms: C_7  and  O_8
REMARK    3  A    between atoms: O_8  and  C_9
REMARK    4  A    between atoms: C_9  and  C_10
REMARK    5  A    between atoms: C_14  and  N_15
REMARK                            x       y       z     vdW  Elec       q    Type
REMARK                         _______ _______ _______ _____ _____    ______ ____
ROOT
ATOM      1  C   UNL     1      43.828   4.414  11.635  0.00  0.00    +0.000 C 
ENDROOT
BRANCH   1   2
ATOM      2  C   UNL     1      44.689   5.626  11.898  0.00  0.00    +0.000 A 
ATOM      3  N   UNL     1      44.195   6.828  11.514  0.00  0.00    +0.000 NA
ATOM      4  N   UNL     1      44.925   7.932  11.738  0.00  0.00    +0.000 NA
ATOM      5  C   UNL     1      46.111   7.786  12.363  0.00  0.00    +0.000 A 
ATOM      6  C   UNL     1      46.611   6.553  12.759  0.00  0.00    +0.000 A 
ATOM      7  N   UNL     1      45.892   5.447  12.492  0.00  0.00    +0.000 NA
BRANCH   6   8
ATOM      8  N   UNL     1      47.830   6.426  13.389  0.00  0.00    +0.000 N 
ATOM      9  C   UNL     1      47.989   5.775  14.683  0.00  0.00    +0.000 C 
ATOM     10  C   UNL     1      48.673   6.749  15.639  0.00  0.00    +0.000 C 
ATOM     11  C   UNL     1      49.976   7.287  15.043  0.00  0.00    +0.000 C 
ATOM     12  C   UNL     1      49.766   7.849  13.633  0.00  0.00    +0.000 C 
ATOM     13  C   UNL     1      49.056   6.841  12.720  0.00  0.00    +0.000 C 
ENDBRANCH   6   8
ENDBRANCH   1   2
BRANCH   1  14
ATOM     14  O   UNL     1      43.540   4.308  10.236  0.00  0.00    +0.000 OA
BRANCH  14  18
ATOM     15  C   UNL     1      46.325   2.403   7.778  0.00  0.00    +0.000 A 
ATOM     16  C   UNL     1      45.557   1.622   8.647  0.00  0.00    +0.000 A 
ATOM     17  C   UNL     1      44.612   2.222   9.490  0.00  0.00    +0.000 A 
ATOM     18  C   UNL     1      44.432   3.607   9.471  0.00  0.00    +0.000 A 
ATOM     19  C   UNL     1      45.215   4.384   8.612  0.00  0.00    +0.000 A 
ATOM     20  C   UNL     1      46.163   3.791   7.774  0.00  0.00    +0.000 A 
BRANCH  15  22
ATOM     21  N   UNL     1      48.386   2.582   6.497  0.00  0.00    +0.000 N 
ATOM     22  C   UNL     1      47.333   1.793   6.871  0.00  0.00    +0.000 C 
ATOM     23  O   UNL     1      47.252   0.630   6.505  0.00  0.00    +0.000 OA
ATOM     24  H   UNL     1      49.121   2.127   5.972  0.00  0.00    +0.000 HD
ATOM     25  H   UNL     1      48.620   3.435   6.986  0.00  0.00    +0.000 HD
ENDBRANCH  15  22
ENDBRANCH  14  18
ENDBRANCH   1  14
TORSDOF 5
ENDMDL
MODEL 3
REMARK VINA RESULT:    -7.726      4.036      8.056
REMARK INTER + INTRA:         -10.678
REMARK INTER:                 -10.182
REMARK INTRA:                  -0.496
REMARK UNBOUND:                -0.693
REMARK  Name = 
REMARK  5 active torsions:
REMARK  status: ('A' for Active; 'I' for Inactive)
REMARK    1  A    between atoms: C_2  and  C_4
REMARK    2  A    between atoms: C_7  and  O_8
REMARK    3  A    between atoms: O_8  and  C_9
REMARK    4  A    between atoms: C_9  and  C_10
REMARK    5  A    between atoms: C_14  and  N_15
REMARK                            x       y       z     vdW  Elec       q    Type
REMARK                         _______ _______ _______ _____ _____    ______ ____
ROOT
ATOM      1  C   UNL     1      46.774   4.277  13.651  0.00  0.00    +0.000 C 
ENDROOT
BRANCH   1   2
ATOM      2  C   UNL     1      45.621   3.833  12.784  0.00  0.00    +0.000 A 
ATOM      3  N   UNL     1      44.410   3.716  13.380  0.00  0.00    +0.000 NA
ATOM      4  N   UNL     1      43.357   3.333  12.643  0.00  0.00    +0.000 NA
ATOM      5  C   UNL     1      43.558   3.109  11.328  0.00  0.00    +0.000 A 
ATOM      6  C   UNL     1      44.799   3.235  10.720  0.00  0.00    +0.000 A 
ATOM      7  N   UNL     1      45.858   3.578  11.476  0.00  0.00    +0.000 NA
BRANCH   6   8
ATOM      8  N   UNL     1      44.983   2.992   9.376  0.00  0.00    +0.000 N 
ATOM      9  C   UNL     1      45.041   1.650   8.813  0.00  0.00    +0.000 C 
ATOM     10  C   UNL     1      46.350   1.500   8.042  0.00  0.00    +0.000 C 
ATOM     11  C   UNL     1      46.518   2.620   7.012  0.00  0.00    +0.000 C 
ATOM     12  C   UNL     1      46.326   4.003   7.641  0.00  0.00    +0.000 C 
ATOM     13  C   UNL     1      45.008   4.094   8.422  0.00  0.00    +0.000 C 
ENDBRANCH   6   8
ENDBRANCH   1   2
BRANCH   1  14
ATOM     14  O   UNL     1      47.311   3.159  14.368  0.00  0.00    +0.000 OA
BRANCH  14  18
ATOM     15  C   UNL     1      48.623   4.148  18.205  0.00  0.00    +0.000 A 
ATOM     16  C   UNL     1      48.870   2.857  17.727  0.00  0.00    +0.000 A 
ATOM     17  C   UNL     1      48.446   2.484  16.446  0.00  0.00    +0.000 A 
ATOM     18  C   UNL     1      47.768   3.398  15.635  0.00  0.00    +0.000 A 
ATOM     19  C   UNL     1      47.509   4.682  16.125  0.00  0.00    +0.000 A 
ATOM     20  C   UNL     1      47.925   5.057  17.406  0.00  0.00    +0.000 A 
BRANCH  15  22
ATOM     21  N   UNL     1      48.573   3.865  20.622  0.00  0.00    +0.000 N 
ATOM     22  C   UNL     1      49.066   4.573  19.560  0.00  0.00    +0.000 C 
ATOM     23  O   UNL     1      49.865   5.483  19.722  0.00  0.00    +0.000 OA
ATOM     24  H   UNL     1      48.964   4.089  21.528  0.00  0.00    +0.000 HD
ATOM     25  H   UNL     1      48.138   2.960  20.511  0.00  0.00    +0.000 HD
ENDBRANCH  15  22
ENDBRANCH  14  18
ENDBRANCH   1  14
TORSDOF 5
ENDMDL
MODEL 4
REMARK VINA RESULT:    -7.304      2.628      6.583
REMARK INTER + INTRA:         -10.132
REMARK INTER:                  -9.492
REMARK INTRA:                  -0.641
REMARK UNBOUND:                -0.693
REMARK  Name = 
REMARK  5 active torsions:
REMARK  status: ('A' for Active; 'I' for Inactive)
REMARK    1  A    between atoms: C_2  and  C_4
REMARK    2  A    between atoms: C_7  and  O_8
REMARK    3  A    between atoms: O_8  and  C_9
REMARK    4  A    between atoms: C_9  and  C_10
REMARK    5  A    between atoms: C_14  and  N_15
REMARK                            x       y       z     vdW  Elec       q    Type
REMARK                         _______ _______ _______ _____ _____    ______ ____
ROOT
ATOM      1  C   UNL     1      45.684   5.476  13.339  0.00  0.00    +0.000 C 
ENDROOT
BRANCH   1   2
ATOM      2  C   UNL     1      44.952   4.384  12.598  0.00  0.00    +0.000 A 
ATOM      3  N   UNL     1      44.009   3.696  13.287  0.00  0.00    +0.000 NA
ATOM      4  N   UNL     1      43.329   2.723  12.662  0.00  0.00    +0.000 NA
ATOM      5  C   UNL     1      43.605   2.498  11.362  0.00  0.00    +0.000 A 
ATOM      6  C   UNL     1      44.568   3.207  10.659  0.00  0.00    +0.000 A 
ATOM      7  N   UNL     1      45.276   4.152  11.304  0.00  0.00    +0.000 NA
BRANCH   6   8
ATOM      8  N   UNL     1      44.840   2.954   9.331  0.00  0.00    +0.000 N 
ATOM      9  C   UNL     1      44.973   1.607   8.793  0.00  0.00    +0.000 C 
ATOM     10  C   UNL     1      46.331   1.490   8.103  0.00  0.00    +0.000 C 
ATOM     11  C   UNL     1      46.524   2.601   7.068  0.00  0.00    +0.000 C 
ATOM     12  C   UNL     1      46.252   3.986   7.665  0.00  0.00    +0.000 C 
ATOM     13  C   UNL     1      44.888   4.044   8.364  0.00  0.00    +0.000 C 
ENDBRANCH   6   8
ENDBRANCH   1   2
BRANCH   1  14
ATOM     14  O   UNL     1      45.295   6.760  12.836  0.00  0.00    +0.000 OA
BRANCH  14  18
ATOM     15  C   UNL     1      48.526   9.174  11.761  0.00  0.00    +0.000 A 
ATOM     16  C   UNL     1      47.347   9.789  12.189  0.00  0.00    +0.000 A 
ATOM     17  C   UNL     1      46.238   9.016  12.557  0.00  0.00    +0.000 A 
ATOM     18  C   UNL     1      46.301   7.622  12.497  0.00  0.00    +0.000 A 
ATOM     19  C   UNL     1      47.479   7.012  12.052  0.00  0.00    +0.000 A 
ATOM     20  C   UNL     1      48.586   7.779  11.677  0.00  0.00    +0.000 A 
BRANCH  15  22
ATOM     21  N   UNL     1      50.924   9.319  11.368  0.00  0.00    +0.000 N 
ATOM     22  C   UNL     1      49.720   9.968  11.367  0.00  0.00    +0.000 C 
ATOM     23  O   UNL     1      49.631  11.136  11.016  0.00  0.00    +0.000 OA
ATOM     24  H   UNL     1      51.710   9.834  10.993  0.00  0.00    +0.000 HD
ATOM     25  H   UNL     1      50.992   8.311  11.388  0.00  0.00    +0.000 HD
ENDBRANCH  15  22
ENDBRANCH  14  18
ENDBRANCH   1  14
TORSDOF 5
ENDMDL
MODEL 5
REMARK VINA RESULT:    -6.815      5.266      8.154
REMARK INTER + INTRA:          -9.500
REMARK INTER:                  -9.046
REMARK INTRA:                  -0.454
REMARK UNBOUND:                -0.693
REMARK  Name = 
REMARK  5 active torsions:
REMARK  status: ('A' for Active; 'I' for Inactive)
REMARK    1  A    between atoms: C_2  and  C_4
REMARK    2  A    between atoms: C_7  and  O_8
REMARK    3  A    between atoms: O_8  and  C_9
REMARK    4  A    between atoms: C_9  and  C_10
REMARK    5  A    between atoms: C_14  and  N_15
REMARK                            x       y       z     vdW  Elec       q    Type
REMARK                         _______ _______ _______ _____ _____    ______ ____
ROOT
ATOM      1  C   UNL     1      47.510   3.886  16.680  0.00  0.00    +0.000 C 
ENDROOT
BRANCH   1   2
ATOM      2  C   UNL     1      47.467   4.642  15.375  0.00  0.00    +0.000 A 
ATOM      3  N   UNL     1      48.404   5.603  15.187  0.00  0.00    +0.000 NA
ATOM      4  N   UNL     1      48.407   6.292  14.036  0.00  0.00    +0.000 NA
ATOM      5  C   UNL     1      47.484   5.970  13.108  0.00  0.00    +0.000 A 
ATOM      6  C   UNL     1      46.528   4.982  13.302  0.00  0.00    +0.000 A 
ATOM      7  N   UNL     1      46.505   4.325  14.476  0.00  0.00    +0.000 NA
BRANCH   6   8
ATOM      8  N   UNL     1      45.588   4.675  12.342  0.00  0.00    +0.000 N 
ATOM      9  C   UNL     1      45.163   5.620  11.318  0.00  0.00    +0.000 C 
ATOM     10  C   UNL     1      43.645   5.766  11.389  0.00  0.00    +0.000 C 
ATOM     11  C   UNL     1      42.953   4.404  11.311  0.00  0.00    +0.000 C 
ATOM     12  C   UNL     1      43.527   3.416  12.332  0.00  0.00    +0.000 C 
ATOM     13  C   UNL     1      45.055   3.322  12.234  0.00  0.00    +0.000 C 
ENDBRANCH   6   8
ENDBRANCH   1   2
BRANCH   1  14
ATOM     14  O   UNL     1      48.526   4.429  17.531  0.00  0.00    +0.000 OA
BRANCH  14  18
ATOM     15  C   UNL     1      51.982   2.093  17.692  0.00  0.00    +0.000 A 
ATOM     16  C   UNL     1      52.069   3.438  18.060  0.00  0.00    +0.000 A 
ATOM     17  C   UNL     1      50.933   4.258  18.020  0.00  0.00    +0.000 A 
ATOM     18  C   UNL     1      49.704   3.737  17.607  0.00  0.00    +0.000 A 
ATOM     19  C   UNL     1      49.628   2.395  17.223  0.00  0.00    +0.000 A 
ATOM     20  C   UNL     1      50.759   1.574  17.256  0.00  0.00    +0.000 A 
BRANCH  15  22
ATOM     21  N   UNL     1      52.962  -0.088  18.145  0.00  0.00    +0.000 N 
ATOM     22  C   UNL     1      53.169   1.199  17.729  0.00  0.00    +0.000 C 
ATOM     23  O   UNL     1      54.273   1.576  17.365  0.00  0.00    +0.000 OA
ATOM     24  H   UNL     1      53.751  -0.717  18.062  0.00  0.00    +0.000 HD
ATOM     25  H   UNL     1      52.040  -0.498  18.191  0.00  0.00    +0.000 HD
ENDBRANCH  15  22
ENDBRANCH  14  18
ENDBRANCH   1  14
TORSDOF 5
ENDMDL
MODEL 6
REMARK VINA RESULT:    -6.587      5.077      6.934
REMARK INTER + INTRA:          -9.205
REMARK INTER:                  -8.684
REMARK INTRA:                  -0.521
REMARK UNBOUND:                -0.693
REMARK  Name = 
REMARK  5 active torsions:
REMARK  status: ('A' for Active; 'I' for Inactive)
REMARK    1  A    between atoms: C_2  and  C_4
REMARK    2  A    between atoms: C_7  and  O_8
REMARK    3  A    between atoms: O_8  and  C_9
REMARK    4  A    between atoms: C_9  and  C_10
REMARK    5  A    between atoms: C_14  and  N_15
REMARK                            x       y       z     vdW  Elec       q    Type
REMARK                         _______ _______ _______ _____ _____    ______ ____
ROOT
ATOM      1  C   UNL     1      47.535   4.612  15.955  0.00  0.00    +0.000 C 
ENDROOT
BRANCH   1   2
ATOM      2  C   UNL     1      48.672   3.718  16.387  0.00  0.00    +0.000 A 
ATOM      3  N   UNL     1      48.635   2.430  15.969  0.00  0.00    +0.000 NA
ATOM      4  N   UNL     1      49.631   1.603  16.324  0.00  0.00    +0.000 NA
ATOM      5  C   UNL     1      50.638   2.112  17.063  0.00  0.00    +0.000 A 
ATOM      6  C   UNL     1      50.673   3.433  17.485  0.00  0.00    +0.000 A 
ATOM      7  N   UNL     1      49.650   4.245  17.161  0.00  0.00    +0.000 NA
BRANCH   6   8
ATOM      8  N   UNL     1      51.709   3.930  18.247  0.00  0.00    +0.000 N 
ATOM      9  C   UNL     1      53.085   3.473  18.108  0.00  0.00    +0.000 C 
ATOM     10  C   UNL     1      53.580   2.995  19.471  0.00  0.00    +0.000 C 
ATOM     11  C   UNL     1      53.382   4.071  20.541  0.00  0.00    +0.000 C 
ATOM     12  C   UNL     1      51.943   4.598  20.556  0.00  0.00    +0.000 C 
ATOM     13  C   UNL     1      51.487   5.044  19.161  0.00  0.00    +0.000 C 
ENDBRANCH   6   8
ENDBRANCH   1   2
BRANCH   1  14
ATOM     14  O   UNL     1      47.816   5.181  14.671  0.00  0.00    +0.000 OA
BRANCH  14  18
ATOM     15  C   UNL     1      44.863   5.050  11.723  0.00  0.00    +0.000 A 
ATOM     16  C   UNL     1      45.276   3.849  12.307  0.00  0.00    +0.000 A 
ATOM     17  C   UNL     1      46.266   3.848  13.299  0.00  0.00    +0.000 A 
ATOM     18  C   UNL     1      46.851   5.048  13.710  0.00  0.00    +0.000 A 
ATOM     19  C   UNL     1      46.445   6.245  13.110  0.00  0.00    +0.000 A 
ATOM     20  C   UNL     1      45.463   6.250  12.115  0.00  0.00    +0.000 A 
BRANCH  15  22
ATOM     21  N   UNL     1      44.177   4.659   9.421  0.00  0.00    +0.000 N 
ATOM     22  C   UNL     1      43.813   5.082  10.671  0.00  0.00    +0.000 C 
ATOM     23  O   UNL     1      42.666   5.427  10.914  0.00  0.00    +0.000 OA
ATOM     24  H   UNL     1      43.431   4.580   8.742  0.00  0.00    +0.000 HD
ATOM     25  H   UNL     1      45.018   4.125   9.257  0.00  0.00    +0.000 HD
ENDBRANCH  15  22
ENDBRANCH  14  18
ENDBRANCH   1  14
TORSDOF 5
ENDMDL
MODEL 7
REMARK VINA RESULT:    -6.504      4.341      6.713
REMARK INTER + INTRA:          -9.098
REMARK INTER:                  -8.436
REMARK INTRA:                  -0.661
REMARK UNBOUND:                -0.693
REMARK  Name = 
REMARK  5 active torsions:
REMARK  status: ('A' for Active; 'I' for Inactive)
REMARK    1  A    between atoms: C_2  and  C_4
REMARK    2  A    between atoms: C_7  and  O_8
REMARK    3  A    between atoms: O_8  and  C_9
REMARK    4  A    between atoms: C_9  and  C_10
REMARK    5  A    between atoms: C_14  and  N_15
REMARK                            x       y       z     vdW  Elec       q    Type
REMARK                         _______ _______ _______ _____ _____    ______ ____
ROOT
ATOM      1  C   UNL     1      49.055   7.436  13.981  0.00  0.00    +0.000 C 
ENDROOT
BRANCH   1   2
ATOM      2  C   UNL     1      49.054   7.122  15.457  0.00  0.00    +0.000 A 
ATOM      3  N   UNL     1      48.689   8.119  16.299  0.00  0.00    +0.000 NA
ATOM      4  N   UNL     1      48.666   7.880  17.619  0.00  0.00    +0.000 NA
ATOM      5  C   UNL     1      48.983   6.638  18.038  0.00  0.00    +0.000 A 
ATOM      6  C   UNL     1      49.352   5.618  17.172  0.00  0.00    +0.000 A 
ATOM      7  N   UNL     1      49.414   5.879  15.854  0.00  0.00    +0.000 NA
BRANCH   6   8
ATOM      8  N   UNL     1      49.680   4.358  17.624  0.00  0.00    +0.000 N 
ATOM      9  C   UNL     1      50.883   4.083  18.398  0.00  0.00    +0.000 C 
ATOM     10  C   UNL     1      51.683   2.994  17.686  0.00  0.00    +0.000 C 
ATOM     11  C   UNL     1      50.818   1.761  17.412  0.00  0.00    +0.000 C 
ATOM     12  C   UNL     1      49.511   2.131  16.704  0.00  0.00    +0.000 C 
ATOM     13  C   UNL     1      48.758   3.243  17.445  0.00  0.00    +0.000 C 
ENDBRANCH   6   8
ENDBRANCH   1   2
BRANCH   1  14
ATOM     14  O   UNL     1      48.713   6.266  13.228  0.00  0.00    +0.000 OA
BRANCH  14  18
ATOM     15  C   UNL     1      44.697   5.948  12.134  0.00  0.00    +0.000 A 
ATOM     16  C   UNL     1      45.194   5.079  13.109  0.00  0.00    +0.000 A 
ATOM     17  C   UNL     1      46.536   5.151  13.504  0.00  0.00    +0.000 A 
ATOM     18  C   UNL     1      47.390   6.091  12.924  0.00  0.00    +0.000 A 
ATOM     19  C   UNL     1      46.891   6.947  11.937  0.00  0.00    +0.000 A 
ATOM     20  C   UNL     1      45.555   6.875  11.535  0.00  0.00    +0.000 A 
BRANCH  15  22
ATOM     21  N   UNL     1      42.772   7.019  11.098  0.00  0.00    +0.000 N 
ATOM     22  C   UNL     1      43.276   5.897  11.698  0.00  0.00    +0.000 C 
ATOM     23  O   UNL     1      42.597   4.889  11.828  0.00  0.00    +0.000 OA
ATOM     24  H   UNL     1      41.843   6.936  10.706  0.00  0.00    +0.000 HD
ATOM     25  H   UNL     1      43.368   7.751  10.739  0.00  0.00    +0.000 HD
ENDBRANCH  15  22
ENDBRANCH  14  18
ENDBRANCH   1  14
TORSDOF 5
ENDMDL
MODEL 8
REMARK VINA RESULT:    -6.426      3.291      5.789
REMARK INTER + INTRA:          -8.997
REMARK INTER:                  -8.369
REMARK INTRA:                  -0.628
REMARK UNBOUND:                -0.693
REMARK  Name = 
REMARK  5 active torsions:
REMARK  status: ('A' for Active; 'I' for Inactive)
REMARK    1  A    between atoms: C_2  and  C_4
REMARK    2  A    between atoms: C_7  and  O_8
REMARK    3  A    between atoms: O_8  and  C_9
REMARK    4  A    between atoms: C_9  and  C_10
REMARK    5  A    between atoms: C_14  and  N_15
REMARK                            x       y       z     vdW  Elec       q    Type
REMARK                         _______ _______ _______ _____ _____    ______ ____
ROOT
ATOM      1  C   UNL     1      48.358   7.315  12.732  0.00  0.00    +0.000 C 
ENDROOT
BRANCH   1   2
ATOM      2  C   UNL     1      49.153   7.176  14.007  0.00  0.00    +0.000 A 
ATOM      3  N   UNL     1      50.215   8.003  14.165  0.00  0.00    +0.000 NA
ATOM      4  N   UNL     1      50.943   7.917  15.288  0.00  0.00    +0.000 NA
ATOM      5  C   UNL     1      50.559   7.022  16.221  0.00  0.00    +0.000 A 
ATOM      6  C   UNL     1      49.468   6.180  16.057  0.00  0.00    +0.000 A 
ATOM      7  N   UNL     1      48.769   6.242  14.909  0.00  0.00    +0.000 NA
BRANCH   6   8
ATOM      8  N   UNL     1      49.098   5.266  17.020  0.00  0.00    +0.000 N 
ATOM      9  C   UNL     1      50.040   4.344  17.641  0.00  0.00    +0.000 C 
ATOM     10  C   UNL     1      49.523   2.919  17.454  0.00  0.00    +0.000 C 
ATOM     11  C   UNL     1      48.084   2.781  17.959  0.00  0.00    +0.000 C 
ATOM     12  C   UNL     1      47.168   3.854  17.362  0.00  0.00    +0.000 C 
ATOM     13  C   UNL     1      47.743   5.263  17.557  0.00  0.00    +0.000 C 
ENDBRANCH   6   8
ENDBRANCH   1   2
BRANCH   1  14
ATOM     14  O   UNL     1      46.955   7.249  13.015  0.00  0.00    +0.000 OA
BRANCH  14  18
ATOM     15  C   UNL     1      44.807   4.062  11.386  0.00  0.00    +0.000 A 
ATOM     16  C   UNL     1      45.147   5.133  10.553  0.00  0.00    +0.000 A 
ATOM     17  C   UNL     1      45.866   6.223  11.060  0.00  0.00    +0.000 A 
ATOM     18  C   UNL     1      46.247   6.250  12.404  0.00  0.00    +0.000 A 
ATOM     19  C   UNL     1      45.889   5.184  13.236  0.00  0.00    +0.000 A 
ATOM     20  C   UNL     1      45.166   4.097  12.736  0.00  0.00    +0.000 A 
BRANCH  15  22
ATOM     21  N   UNL     1      44.619   2.181   9.854  0.00  0.00    +0.000 N 
ATOM     22  C   UNL     1      44.047   2.891  10.874  0.00  0.00    +0.000 C 
ATOM     23  O   UNL     1      42.982   2.547  11.365  0.00  0.00    +0.000 OA
ATOM     24  H   UNL     1      44.150   1.324   9.588  0.00  0.00    +0.000 HD
ATOM     25  H   UNL     1      45.596   2.272   9.615  0.00  0.00    +0.000 HD
ENDBRANCH  15  22
ENDBRANCH  14  18
ENDBRANCH   1  14
TORSDOF 5
ENDMDL
MODEL 9
REMARK VINA RESULT:    -6.244      4.200      5.431
REMARK INTER + INTRA:          -8.762
REMARK INTER:                  -8.241
REMARK INTRA:                  -0.522
REMARK UNBOUND:                -0.693
REMARK  Name = 
REMARK  5 active torsions:
REMARK  status: ('A' for Active; 'I' for Inactive)
REMARK    1  A    between atoms: C_2  and  C_4
REMARK    2  A    between atoms: C_7  and  O_8
REMARK    3  A    between atoms: O_8  and  C_9
REMARK    4  A    between atoms: C_9  and  C_10
REMARK    5  A    between atoms: C_14  and  N_15
REMARK                            x       y       z     vdW  Elec       q    Type
REMARK                         _______ _______ _______ _____ _____    ______ ____
ROOT
ATOM      1  C   UNL     1      47.544   5.484  14.256  0.00  0.00    +0.000 C 
ENDROOT
BRANCH   1   2
ATOM      2  C   UNL     1      47.687   4.764  15.574  0.00  0.00    +0.000 A 
ATOM      3  N   UNL     1      46.669   3.950  15.946  0.00  0.00    +0.000 NA
ATOM      4  N   UNL     1      46.760   3.283  17.106  0.00  0.00    +0.000 NA
ATOM      5  C   UNL     1      47.884   3.441  17.835  0.00  0.00    +0.000 A 
ATOM      6  C   UNL     1      48.926   4.272  17.449  0.00  0.00    +0.000 A 
ATOM      7  N   UNL     1      48.808   4.970  16.305  0.00  0.00    +0.000 NA
BRANCH   6   8
ATOM      8  N   UNL     1      50.062   4.424  18.214  0.00  0.00    +0.000 N 
ATOM      9  C   UNL     1      50.027   4.827  19.614  0.00  0.00    +0.000 C 
ATOM     10  C   UNL     1      50.900   6.067  19.787  0.00  0.00    +0.000 C 
ATOM     11  C   UNL     1      52.310   5.834  19.237  0.00  0.00    +0.000 C 
ATOM     12  C   UNL     1      52.277   5.296  17.803  0.00  0.00    +0.000 C 
ATOM     13  C   UNL     1      51.370   4.066  17.678  0.00  0.00    +0.000 C 
ENDBRANCH   6   8
ENDBRANCH   1   2
BRANCH   1  14
ATOM     14  O   UNL     1      46.167   5.527  13.864  0.00  0.00    +0.000 OA
BRANCH  14  18
ATOM     15  C   UNL     1      45.255   4.198  10.013  0.00  0.00    +0.000 A 
ATOM     16  C   UNL     1      45.635   5.532  10.186  0.00  0.00    +0.000 A 
ATOM     17  C   UNL     1      45.948   6.019  11.462  0.00  0.00    +0.000 A 
ATOM     18  C   UNL     1      45.880   5.176  12.573  0.00  0.00    +0.000 A 
ATOM     19  C   UNL     1      45.483   3.846  12.396  0.00  0.00    +0.000 A 
ATOM     20  C   UNL     1      45.164   3.357  11.126  0.00  0.00    +0.000 A 
BRANCH  15  22
ATOM     21  N   UNL     1      44.182   2.501   8.637  0.00  0.00    +0.000 N 
ATOM     22  C   UNL     1      44.921   3.653   8.671  0.00  0.00    +0.000 C 
ATOM     23  O   UNL     1      45.251   4.223   7.642  0.00  0.00    +0.000 OA
ATOM     24  H   UNL     1      43.867   2.200   7.724  0.00  0.00    +0.000 HD
ATOM     25  H   UNL     1      43.676   2.163   9.443  0.00  0.00    +0.000 HD
ENDBRANCH  15  22
ENDBRANCH  14  18
ENDBRANCH   1  14
TORSDOF 5
ENDMDL
