MODEL 1
REMARK VINA RESULT:    -8.784      0.000      0.000
REMARK INTER + INTRA:         -13.299
REMARK INTER:                 -12.379
REMARK INTRA:                  -0.920
REMARK UNBOUND:                -0.920
REMARK  Name = 
REMARK  8 active torsions:
REMARK  status: ('A' for Active; 'I' for Inactive)
REMARK    1  A    between atoms: C_1  and  C_2
REMARK    2  A    between atoms: C_2  and  C_3
REMARK    3  A    between atoms: C_3  and  N_4
REMARK    4  A    between atoms: C_3  and  C_17
REMARK    5  A    between atoms: C_5  and  C_7
REMARK    6  A    between atoms: C_20  and  C_21
REMARK    7  A    between atoms: C_21  and  N_22
REMARK    8  A    between atoms: C_23  and  C_25
REMARK                            x       y       z     vdW  Elec       q    Type
REMARK                         _______ _______ _______ _____ _____    ______ ____
ROOT
ATOM      1  C   UNL     1      47.097   8.412  13.249  0.00  0.00    +0.000 C 
ENDROOT
BRANCH   1   2
ATOM      2  C   UNL     1      46.251   7.392  12.493  0.00  0.00    +0.000 A 
ATOM      3  C   UNL     1      44.926   7.154  12.878  0.00  0.00    +0.000 A 
ATOM      4  C   UNL     1      44.104   6.312  12.118  0.00  0.00    +0.000 A 
ATOM      5  C   UNL     1      44.597   5.674  10.972  0.00  0.00    +0.000 A 
ATOM      6  C   UNL     1      45.926   5.895  10.597  0.00  0.00    +0.000 A 
ATOM      7  C   UNL     1      46.747   6.729  11.357  0.00  0.00    +0.000 A 
BRANCH   5   8
ATOM      8  C   UNL     1      43.717   4.779  10.142  0.00  0.00    +0.000 C 
BRANCH   8   9
ATOM      9  N   UNL     1      44.428   4.225   9.014  0.00  0.00    +0.000 N 
ATOM     10  C   UNL     1      44.704   2.877   8.962  0.00  0.00    +0.000 C 
ATOM     11  O   UNL     1      44.389   2.103   9.861  0.00  0.00    +0.000 OA
ATOM     12  H   UNL     1      44.500   4.780   8.170  0.00  0.00    +0.000 HD
BRANCH  10  13
ATOM     13  C   UNL     1      45.442   2.440   7.702  0.00  0.00    +0.000 C 
ATOM     14  C   UNL     1      46.150   3.633   7.046  0.00  0.00    +0.000 C 
ATOM     15  C   UNL     1      47.007   3.176   5.869  0.00  0.00    +0.000 C 
ATOM     16  C   UNL     1      47.954   2.048   6.273  0.00  0.00    +0.000 C 
ATOM     17  N   UNL     1      47.217   0.922   6.846  0.00  0.00    +0.000 NA
ATOM     18  C   UNL     1      46.457   1.336   8.033  0.00  0.00    +0.000 C 
ATOM     19  H   UNL     1      47.878   0.192   7.115  0.00  0.00    +0.000 HD
ENDBRANCH  10  13
ENDBRANCH   8   9
ENDBRANCH   5   8
ENDBRANCH   1   2
BRANCH   1  20
ATOM     20  N   UNL     1      47.608   7.803  14.464  0.00  0.00    +0.000 N 
ATOM     21  C   UNL     1      48.639   6.904  14.508  0.00  0.00    +0.000 C 
ATOM     22  O   UNL     1      49.334   6.628  13.537  0.00  0.00    +0.000 OA
ATOM     23  H   UNL     1      46.960   7.819  15.238  0.00  0.00    +0.000 HD
BRANCH  21  24
ATOM     24  C   UNL     1      48.890   6.331  15.839  0.00  0.00    +0.000 A 
ATOM     25  C   UNL     1      49.806   6.914  16.704  0.00  0.00    +0.000 A 
ATOM     26  S   UNL     1      49.890   6.134  18.224  0.00  0.00    +0.000 S 
ATOM     27  C   UNL     1      48.748   4.963  17.752  0.00  0.00    +0.000 A 
ATOM     28  N   UNL     1      48.366   3.966  18.597  0.00  0.00    +0.000 NA
ATOM     29  C   UNL     1      47.508   3.139  18.097  0.00  0.00    +0.000 A 
ATOM     30  N   UNL     1      46.999   3.215  16.827  0.00  0.00    +0.000 N 
ATOM     31  C   UNL     1      47.339   4.212  15.947  0.00  0.00    +0.000 A 
ATOM     32  O   UNL     1      46.825   4.272  14.837  0.00  0.00    +0.000 OA
ATOM     33  C   UNL     1      48.301   5.170  16.463  0.00  0.00    +0.000 A 
ATOM     34  H   UNL     1      46.320   2.547  16.497  0.00  0.00    +0.000 HD
ENDBRANCH  21  24
ENDBRANCH   1  20
BRANCH   1  36
ATOM     35  C   UNL     1      48.835  10.243  12.851  0.00  0.00    +0.000 C 
ATOM     36  C   UNL     1      48.264   8.914  12.371  0.00  0.00    +0.000 C 
ENDBRANCH   1  36
TORSDOF 7
ENDMDL
MODEL 2
REMARK VINA RESULT:    -8.447      2.584      4.084
REMARK INTER + INTRA:         -12.824
REMARK INTER:                 -11.334
REMARK INTRA:                  -1.490
REMARK UNBOUND:                -0.920
REMARK  Name = 
REMARK  8 active torsions:
REMARK  status: ('A' for Active; 'I' for Inactive)
REMARK    1  A    between atoms: C_1  and  C_2
REMARK    2  A    between atoms: C_2  and  C_3
REMARK    3  A    between atoms: C_3  and  N_4
REMARK    4  A    between atoms: C_3  and  C_17
REMARK    5  A    between atoms: C_5  and  C_7
REMARK    6  A    between atoms: C_20  and  C_21
REMARK    7  A    between atoms: C_21  and  N_22
REMARK    8  A    between atoms: C_23  and  C_25
REMARK                            x       y       z     vdW  Elec       q    Type
REMARK                         _______ _______ _______ _____ _____    ______ ____
ROOT
ATOM      1  C   UNL     1      47.956   4.863  15.602  0.00  0.00    +0.000 C 
ENDROOT
BRANCH   1   2
ATOM      2  C   UNL     1      47.184   5.241  14.341  0.00  0.00    +0.000 A 
ATOM      3  C   UNL     1      47.680   6.230  13.482  0.00  0.00    +0.000 A 
ATOM      4  C   UNL     1      47.046   6.498  12.263  0.00  0.00    +0.000 A 
ATOM      5  C   UNL     1      45.890   5.800  11.889  0.00  0.00    +0.000 A 
ATOM      6  C   UNL     1      45.382   4.824  12.753  0.00  0.00    +0.000 A 
ATOM      7  C   UNL     1      46.010   4.561  13.971  0.00  0.00    +0.000 A 
BRANCH   5   8
ATOM      8  C   UNL     1      45.210   6.072  10.574  0.00  0.00    +0.000 C 
BRANCH   8   9
ATOM      9  N   UNL     1      45.613   5.130   9.556  0.00  0.00    +0.000 N 
ATOM     10  C   UNL     1      44.803   4.062   9.240  0.00  0.00    +0.000 C 
ATOM     11  O   UNL     1      43.736   3.850   9.809  0.00  0.00    +0.000 OA
ATOM     12  H   UNL     1      46.358   5.393   8.924  0.00  0.00    +0.000 HD
BRANCH  10  13
ATOM     13  C   UNL     1      45.353   3.167   8.135  0.00  0.00    +0.000 C 
ATOM     14  C   UNL     1      46.481   3.876   7.374  0.00  0.00    +0.000 C 
ATOM     15  C   UNL     1      47.132   2.934   6.365  0.00  0.00    +0.000 C 
ATOM     16  C   UNL     1      47.564   1.626   7.022  0.00  0.00    +0.000 C 
ATOM     17  N   UNL     1      46.437   0.974   7.688  0.00  0.00    +0.000 NA
ATOM     18  C   UNL     1      45.859   1.842   8.723  0.00  0.00    +0.000 C 
ATOM     19  H   UNL     1      46.761   0.110   8.126  0.00  0.00    +0.000 HD
ENDBRANCH  10  13
ENDBRANCH   8   9
ENDBRANCH   5   8
ENDBRANCH   1   2
BRANCH   1  20
ATOM     20  N   UNL     1      47.860   5.946  16.563  0.00  0.00    +0.000 N 
ATOM     21  C   UNL     1      48.843   6.286  17.452  0.00  0.00    +0.000 C 
ATOM     22  O   UNL     1      49.968   5.799  17.431  0.00  0.00    +0.000 OA
ATOM     23  H   UNL     1      46.914   6.230  16.772  0.00  0.00    +0.000 HD
BRANCH  21  24
ATOM     24  C   UNL     1      48.461   7.335  18.410  0.00  0.00    +0.000 A 
ATOM     25  C   UNL     1      48.358   7.058  19.766  0.00  0.00    +0.000 A 
ATOM     26  S   UNL     1      47.975   8.434  20.708  0.00  0.00    +0.000 S 
ATOM     27  C   UNL     1      47.881   9.425  19.329  0.00  0.00    +0.000 A 
ATOM     28  N   UNL     1      47.571  10.748  19.427  0.00  0.00    +0.000 NA
ATOM     29  C   UNL     1      47.516  11.371  18.296  0.00  0.00    +0.000 A 
ATOM     30  N   UNL     1      47.738  10.792  17.075  0.00  0.00    +0.000 N 
ATOM     31  C   UNL     1      48.072   9.469  16.927  0.00  0.00    +0.000 A 
ATOM     32  O   UNL     1      48.310   9.002  15.820  0.00  0.00    +0.000 OA
ATOM     33  C   UNL     1      48.148   8.724  18.171  0.00  0.00    +0.000 A 
ATOM     34  H   UNL     1      47.695  11.335  16.225  0.00  0.00    +0.000 HD
ENDBRANCH  21  24
ENDBRANCH   1  20
BRANCH   1  36
ATOM     35  C   UNL     1      48.497   2.662  16.783  0.00  0.00    +0.000 C 
ATOM     36  C   UNL     1      47.403   3.556  16.211  0.00  0.00    +0.000 C 
ENDBRANCH   1  36
TORSDOF 7
ENDMDL
MODEL 3
REMARK VINA RESULT:    -8.407      2.550      3.713
REMARK INTER + INTRA:         -12.767
REMARK INTER:                 -11.276
REMARK INTRA:                  -1.491
REMARK UNBOUND:                -0.920
REMARK  Name = 
REMARK  8 active torsions:
REMARK  status: ('A' for Active; 'I' for Inactive)
REMARK    1  A    between atoms: C_1  and  C_2
REMARK    2  A    between atoms: C_2  and  C_3
REMARK    3  A    between atoms: C_3  and  N_4
REMARK    4  A    between atoms: C_3  and  C_17
REMARK    5  A    between atoms: C_5  and  C_7
REMARK    6  A    between atoms: C_20  and  C_21
REMARK    7  A    between atoms: C_21  and  N_22
REMARK    8  A    between atoms: C_23  and  C_25
REMARK                            x       y       z     vdW  Elec       q    Type
REMARK                         _______ _______ _______ _____ _____    ______ ____
ROOT
ATOM      1  C   UNL     1      47.790   4.895  15.248  0.00  0.00    +0.000 C 
ENDROOT
BRANCH   1   2
ATOM      2  C   UNL     1      46.959   4.840  13.970  0.00  0.00    +0.000 A 
ATOM      3  C   UNL     1      46.321   3.651  13.595  0.00  0.00    +0.000 A 
ATOM      4  C   UNL     1      45.458   3.621  12.494  0.00  0.00    +0.000 A 
ATOM      5  C   UNL     1      45.232   4.775  11.731  0.00  0.00    +0.000 A 
ATOM      6  C   UNL     1      45.881   5.960  12.091  0.00  0.00    +0.000 A 
ATOM      7  C   UNL     1      46.747   5.988  13.186  0.00  0.00    +0.000 A 
BRANCH   5   8
ATOM      8  C   UNL     1      44.294   4.757  10.553  0.00  0.00    +0.000 C 
BRANCH   8   9
ATOM      9  N   UNL     1      44.926   4.212   9.374  0.00  0.00    +0.000 N 
ATOM     10  C   UNL     1      44.732   2.892   9.031  0.00  0.00    +0.000 C 
ATOM     11  O   UNL     1      44.049   2.127   9.706  0.00  0.00    +0.000 OA
ATOM     12  H   UNL     1      45.300   4.853   8.687  0.00  0.00    +0.000 HD
BRANCH  10  13
ATOM     13  C   UNL     1      45.446   2.468   7.753  0.00  0.00    +0.000 C 
ATOM     14  C   UNL     1      46.200   3.653   7.135  0.00  0.00    +0.000 C 
ATOM     15  C   UNL     1      47.033   3.202   5.938  0.00  0.00    +0.000 C 
ATOM     16  C   UNL     1      47.934   2.023   6.298  0.00  0.00    +0.000 C 
ATOM     17  N   UNL     1      47.153   0.909   6.835  0.00  0.00    +0.000 NA
ATOM     18  C   UNL     1      46.416   1.313   8.040  0.00  0.00    +0.000 C 
ATOM     19  H   UNL     1      47.784   0.144   7.076  0.00  0.00    +0.000 HD
ENDBRANCH  10  13
ENDBRANCH   8   9
ENDBRANCH   5   8
ENDBRANCH   1   2
BRANCH   1  20
ATOM     20  N   UNL     1      47.915   6.276  15.678  0.00  0.00    +0.000 N 
ATOM     21  C   UNL     1      49.093   6.875  16.034  0.00  0.00    +0.000 C 
ATOM     22  O   UNL     1      50.189   6.347  15.889  0.00  0.00    +0.000 OA
ATOM     23  H   UNL     1      47.056   6.682  16.016  0.00  0.00    +0.000 HD
BRANCH  21  24
ATOM     24  C   UNL     1      48.945   8.243  16.555  0.00  0.00    +0.000 A 
ATOM     25  C   UNL     1      49.453   9.330  15.857  0.00  0.00    +0.000 A 
ATOM     26  S   UNL     1      49.109  10.831  16.602  0.00  0.00    +0.000 S 
ATOM     27  C   UNL     1      48.322  10.071  17.905  0.00  0.00    +0.000 A 
ATOM     28  N   UNL     1      47.788  10.794  18.929  0.00  0.00    +0.000 NA
ATOM     29  C   UNL     1      47.240  10.082  19.858  0.00  0.00    +0.000 A 
ATOM     30  N   UNL     1      47.178   8.713  19.859  0.00  0.00    +0.000 N 
ATOM     31  C   UNL     1      47.683   7.944  18.841  0.00  0.00    +0.000 A 
ATOM     32  O   UNL     1      47.564   6.725  18.857  0.00  0.00    +0.000 OA
ATOM     33  C   UNL     1      48.310   8.697  17.770  0.00  0.00    +0.000 A 
ATOM     34  H   UNL     1      46.723   8.213  20.608  0.00  0.00    +0.000 HD
ENDBRANCH  21  24
ENDBRANCH   1  20
BRANCH   1  36
ATOM     35  C   UNL     1      48.133   3.120  17.055  0.00  0.00    +0.000 C 
ATOM     36  C   UNL     1      47.140   4.045  16.361  0.00  0.00    +0.000 C 
ENDBRANCH   1  36
TORSDOF 7
ENDMDL
MODEL 4
REMARK VINA RESULT:    -7.997      1.864      2.296
REMARK INTER + INTRA:         -12.190
REMARK INTER:                 -11.722
REMARK INTRA:                  -0.468
REMARK UNBOUND:                -0.920
REMARK  Name = 
REMARK  8 active torsions:
REMARK  status: ('A' for Active; 'I' for Inactive)
REMARK    1  A    between atoms: C_1  and  C_2
REMARK    2  A    between atoms: C_2  and  C_3
REMARK    3  A    between atoms: C_3  and  N_4
REMARK    4  A    between atoms: C_3  and  C_17
REMARK    5  A    between atoms: C_5  and  C_7
REMARK    6  A    between atoms: C_20  and  C_21
REMARK    7  A    between atoms: C_21  and  N_22
REMARK    8  A    between atoms: C_23  and  C_25
REMARK                            x       y       z     vdW  Elec       q    Type
REMARK                         _______ _______ _______ _____ _____    ______ ____
ROOT
ATOM      1  C   UNL     1      47.891   7.509  13.768  0.00  0.00    +0.000 C 
ENDROOT
BRANCH   1   2
ATOM      2  C   UNL     1      46.785   6.833  12.964  0.00  0.00    +0.000 A 
ATOM      3  C   UNL     1      46.013   7.579  12.064  0.00  0.00    +0.000 A 
ATOM      4  C   UNL     1      45.079   6.948  11.233  0.00  0.00    +0.000 A 
ATOM      5  C   UNL     1      44.882   5.562  11.301  0.00  0.00    +0.000 A 
ATOM      6  C   UNL     1      45.638   4.817  12.211  0.00  0.00    +0.000 A 
ATOM      7  C   UNL     1      46.565   5.446  13.044  0.00  0.00    +0.000 A 
BRANCH   5   8
ATOM      8  C   UNL     1      43.891   4.873  10.402  0.00  0.00    +0.000 C 
BRANCH   8   9
ATOM      9  N   UNL     1      44.523   4.330   9.223  0.00  0.00    +0.000 N 
ATOM     10  C   UNL     1      44.771   2.978   9.129  0.00  0.00    +0.000 C 
ATOM     11  O   UNL     1      44.495   2.192  10.031  0.00  0.00    +0.000 OA
ATOM     12  H   UNL     1      44.556   4.900   8.387  0.00  0.00    +0.000 HD
BRANCH  10  13
ATOM     13  C   UNL     1      45.425   2.553   7.820  0.00  0.00    +0.000 C 
ATOM     14  C   UNL     1      46.172   3.731   7.179  0.00  0.00    +0.000 C 
ATOM     15  C   UNL     1      46.948   3.275   5.946  0.00  0.00    +0.000 C 
ATOM     16  C   UNL     1      47.844   2.080   6.261  0.00  0.00    +0.000 C 
ATOM     17  N   UNL     1      47.067   0.974   6.822  0.00  0.00    +0.000 NA
ATOM     18  C   UNL     1      46.387   1.380   8.059  0.00  0.00    +0.000 C 
ATOM     19  H   UNL     1      47.695   0.197   7.031  0.00  0.00    +0.000 HD
ENDBRANCH  10  13
ENDBRANCH   8   9
ENDBRANCH   5   8
ENDBRANCH   1   2
BRANCH   1  20
ATOM     20  N   UNL     1      47.905   6.963  15.113  0.00  0.00    +0.000 N 
ATOM     21  C   UNL     1      49.024   6.502  15.753  0.00  0.00    +0.000 C 
ATOM     22  O   UNL     1      50.158   6.636  15.308  0.00  0.00    +0.000 OA
ATOM     23  H   UNL     1      47.007   6.635  15.435  0.00  0.00    +0.000 HD
BRANCH  21  24
ATOM     24  C   UNL     1      48.764   5.880  17.060  0.00  0.00    +0.000 A 
ATOM     25  C   UNL     1      48.967   4.520  17.254  0.00  0.00    +0.000 A 
ATOM     26  S   UNL     1      48.675   4.018  18.863  0.00  0.00    +0.000 S 
ATOM     27  C   UNL     1      48.216   5.587  19.332  0.00  0.00    +0.000 A 
ATOM     28  N   UNL     1      47.826   5.859  20.609  0.00  0.00    +0.000 NA
ATOM     29  C   UNL     1      47.486   7.089  20.815  0.00  0.00    +0.000 A 
ATOM     30  N   UNL     1      47.497   8.072  19.862  0.00  0.00    +0.000 N 
ATOM     31  C   UNL     1      47.901   7.851  18.569  0.00  0.00    +0.000 A 
ATOM     32  O   UNL     1      47.943   8.769  17.759  0.00  0.00    +0.000 OA
ATOM     33  C   UNL     1      48.294   6.482  18.285  0.00  0.00    +0.000 A 
ATOM     34  H   UNL     1      47.234   9.020  20.087  0.00  0.00    +0.000 HD
ENDBRANCH  21  24
ENDBRANCH   1  20
BRANCH   1  36
ATOM     35  C   UNL     1      49.590   8.384  12.070  0.00  0.00    +0.000 C 
ATOM     36  C   UNL     1      49.264   7.301  13.092  0.00  0.00    +0.000 C 
ENDBRANCH   1  36
TORSDOF 7
ENDMDL
MODEL 5
REMARK VINA RESULT:    -7.765      2.133      2.939
REMARK INTER + INTRA:         -11.863
REMARK INTER:                 -10.678
REMARK INTRA:                  -1.185
REMARK UNBOUND:                -0.920
REMARK  Name = 
REMARK  8 active torsions:
REMARK  status: ('A' for Active; 'I' for Inactive)
REMARK    1  A    between atoms: C_1  and  C_2
REMARK    2  A    between atoms: C_2  and  C_3
REMARK    3  A    between atoms: C_3  and  N_4
REMARK    4  A    between atoms: C_3  and  C_17
REMARK    5  A    between atoms: C_5  and  C_7
REMARK    6  A    between atoms: C_20  and  C_21
REMARK    7  A    between atoms: C_21  and  N_22
REMARK    8  A    between atoms: C_23  and  C_25
REMARK                            x       y       z     vdW  Elec       q    Type
REMARK                         _______ _______ _______ _____ _____    ______ ____
ROOT
ATOM      1  C   UNL     1      47.134   7.559  13.519  0.00  0.00    +0.000 C 
ENDROOT
BRANCH   1   2
ATOM      2  C   UNL     1      46.212   6.441  13.041  0.00  0.00    +0.000 A 
ATOM      3  C   UNL     1      44.964   6.748  12.485  0.00  0.00    +0.000 A 
ATOM      4  C   UNL     1      44.163   5.741  11.932  0.00  0.00    +0.000 A 
ATOM      5  C   UNL     1      44.584   4.404  11.944  0.00  0.00    +0.000 A 
ATOM      6  C   UNL     1      45.822   4.092  12.516  0.00  0.00    +0.000 A 
ATOM      7  C   UNL     1      46.618   5.095  13.073  0.00  0.00    +0.000 A 
BRANCH   5   8
ATOM      8  C   UNL     1      43.737   3.317  11.340  0.00  0.00    +0.000 C 
BRANCH   8   9
ATOM      9  N   UNL     1      44.388   2.695  10.211  0.00  0.00    +0.000 N 
ATOM     10  C   UNL     1      44.480   3.361   9.008  0.00  0.00    +0.000 C 
ATOM     11  O   UNL     1      44.003   4.479   8.835  0.00  0.00    +0.000 OA
ATOM     12  H   UNL     1      44.977   1.889  10.378  0.00  0.00    +0.000 HD
BRANCH  10  13
ATOM     13  C   UNL     1      45.209   2.585   7.919  0.00  0.00    +0.000 C 
ATOM     14  C   UNL     1      46.120   3.515   7.107  0.00  0.00    +0.000 C 
ATOM     15  C   UNL     1      46.960   2.720   6.112  0.00  0.00    +0.000 C 
ATOM     16  C   UNL     1      47.706   1.578   6.798  0.00  0.00    +0.000 C 
ATOM     17  N   UNL     1      46.780   0.700   7.513  0.00  0.00    +0.000 NA
ATOM     18  C   UNL     1      46.029   1.442   8.534  0.00  0.00    +0.000 C 
ATOM     19  H   UNL     1      47.310  -0.044   7.969  0.00  0.00    +0.000 HD
ENDBRANCH  10  13
ENDBRANCH   8   9
ENDBRANCH   5   8
ENDBRANCH   1   2
BRANCH   1  20
ATOM     20  N   UNL     1      48.034   7.035  14.530  0.00  0.00    +0.000 N 
ATOM     21  C   UNL     1      48.610   7.784  15.521  0.00  0.00    +0.000 C 
ATOM     22  O   UNL     1      48.311   8.951  15.743  0.00  0.00    +0.000 OA
ATOM     23  H   UNL     1      48.476   6.163  14.278  0.00  0.00    +0.000 HD
BRANCH  21  24
ATOM     24  C   UNL     1      49.585   7.054  16.346  0.00  0.00    +0.000 A 
ATOM     25  C   UNL     1      49.186   6.381  17.492  0.00  0.00    +0.000 A 
ATOM     26  S   UNL     1      50.462   5.540  18.260  0.00  0.00    +0.000 S 
ATOM     27  C   UNL     1      51.594   6.094  17.117  0.00  0.00    +0.000 A 
ATOM     28  N   UNL     1      52.909   5.749  17.198  0.00  0.00    +0.000 NA
ATOM     29  C   UNL     1      53.655   6.260  16.274  0.00  0.00    +0.000 A 
ATOM     30  N   UNL     1      53.207   7.087  15.278  0.00  0.00    +0.000 N 
ATOM     31  C   UNL     1      51.890   7.447  15.145  0.00  0.00    +0.000 A 
ATOM     32  O   UNL     1      51.522   8.150  14.212  0.00  0.00    +0.000 OA
ATOM     33  C   UNL     1      51.008   6.897  16.160  0.00  0.00    +0.000 A 
ATOM     34  H   UNL     1      53.837   7.444  14.575  0.00  0.00    +0.000 HD
ENDBRANCH  21  24
ENDBRANCH   1  20
BRANCH   1  36
ATOM     35  C   UNL     1      47.721   9.646  12.166  0.00  0.00    +0.000 C 
ATOM     36  C   UNL     1      47.938   8.147  12.340  0.00  0.00    +0.000 C 
ENDBRANCH   1  36
TORSDOF 7
ENDMDL
MODEL 6
REMARK VINA RESULT:    -7.510      3.630      5.898
REMARK INTER + INTRA:         -11.503
REMARK INTER:                 -10.224
REMARK INTRA:                  -1.278
REMARK UNBOUND:                -0.920
REMARK  Name = 
REMARK  8 active torsions:
REMARK  status: ('A' for Active; 'I' for Inactive)
REMARK    1  A    between atoms: C_1  and  C_2
REMARK    2  A    between atoms: C_2  and  C_3
REMARK    3  A    between atoms: C_3  and  N_4
REMARK    4  A    between atoms: C_3  and  C_17
REMARK    5  A    between atoms: C_5  and  C_7
REMARK    6  A    between atoms: C_20  and  C_21
REMARK    7  A    between atoms: C_21  and  N_22
REMARK    8  A    between atoms: C_23  and  C_25
REMARK                            x       y       z     vdW  Elec       q    Type
REMARK                         _______ _______ _______ _____ _____    ______ ____
ROOT
ATOM      1  C   UNL     1      48.556   3.665  18.242  0.00  0.00    +0.000 C 
ENDROOT
BRANCH   1   2
ATOM      2  C   UNL     1      48.178   4.411  16.966  0.00  0.00    +0.000 A 
ATOM      3  C   UNL     1      48.802   5.625  16.650  0.00  0.00    +0.000 A 
ATOM      4  C   UNL     1      48.553   6.256  15.425  0.00  0.00    +0.000 A 
ATOM      5  C   UNL     1      47.658   5.699  14.502  0.00  0.00    +0.000 A 
ATOM      6  C   UNL     1      47.019   4.497  14.823  0.00  0.00    +0.000 A 
ATOM      7  C   UNL     1      47.262   3.870  16.046  0.00  0.00    +0.000 A 
BRANCH   5   8
ATOM      8  C   UNL     1      47.395   6.363  13.177  0.00  0.00    +0.000 C 
BRANCH   8   9
ATOM      9  N   UNL     1      46.588   5.534  12.313  0.00  0.00    +0.000 N 
ATOM     10  C   UNL     1      45.315   5.929  11.964  0.00  0.00    +0.000 C 
ATOM     11  O   UNL     1      44.809   6.968  12.379  0.00  0.00    +0.000 OA
ATOM     12  H   UNL     1      47.043   4.803  11.782  0.00  0.00    +0.000 HD
BRANCH  10  13
ATOM     13  C   UNL     1      44.594   4.962  11.033  0.00  0.00    +0.000 C 
ATOM     14  C   UNL     1      45.284   4.911   9.663  0.00  0.00    +0.000 C 
ATOM     15  C   UNL     1      44.655   3.839   8.778  0.00  0.00    +0.000 C 
ATOM     16  C   UNL     1      44.604   2.488   9.488  0.00  0.00    +0.000 C 
ATOM     17  N   UNL     1      43.893   2.591  10.762  0.00  0.00    +0.000 NA
ATOM     18  C   UNL     1      44.544   3.559  11.655  0.00  0.00    +0.000 C 
ATOM     19  H   UNL     1      43.887   1.676  11.216  0.00  0.00    +0.000 HD
ENDBRANCH  10  13
ENDBRANCH   8   9
ENDBRANCH   5   8
ENDBRANCH   1   2
BRANCH   1  20
ATOM     20  N   UNL     1      49.960   3.300  18.182  0.00  0.00    +0.000 N 
ATOM     21  C   UNL     1      50.480   2.343  17.353  0.00  0.00    +0.000 C 
ATOM     22  O   UNL     1      49.833   1.793  16.470  0.00  0.00    +0.000 OA
ATOM     23  H   UNL     1      50.487   3.549  19.006  0.00  0.00    +0.000 HD
BRANCH  21  24
ATOM     24  C   UNL     1      51.909   2.064  17.568  0.00  0.00    +0.000 A 
ATOM     25  C   UNL     1      52.371   0.759  17.675  0.00  0.00    +0.000 A 
ATOM     26  S   UNL     1      54.070   0.658  17.847  0.00  0.00    +0.000 S 
ATOM     27  C   UNL     1      54.231   2.352  17.839  0.00  0.00    +0.000 A 
ATOM     28  N   UNL     1      55.450   2.948  17.965  0.00  0.00    +0.000 NA
ATOM     29  C   UNL     1      55.416   4.240  17.962  0.00  0.00    +0.000 A 
ATOM     30  N   UNL     1      54.277   4.992  17.849  0.00  0.00    +0.000 N 
ATOM     31  C   UNL     1      53.031   4.437  17.701  0.00  0.00    +0.000 A 
ATOM     32  O   UNL     1      52.042   5.145  17.553  0.00  0.00    +0.000 OA
ATOM     33  C   UNL     1      53.013   2.985  17.696  0.00  0.00    +0.000 A 
ATOM     34  H   UNL     1      54.316   6.000  17.839  0.00  0.00    +0.000 HD
ENDBRANCH  21  24
ENDBRANCH   1  20
BRANCH   1  36
ATOM     35  C   UNL     1      49.557   4.927  20.226  0.00  0.00    +0.000 C 
ATOM     36  C   UNL     1      48.282   4.535  19.487  0.00  0.00    +0.000 C 
ENDBRANCH   1  36
TORSDOF 7
ENDMDL
MODEL 7
REMARK VINA RESULT:    -7.204      2.790      3.728
REMARK INTER + INTRA:         -11.072
REMARK INTER:                  -9.867
REMARK INTRA:                  -1.205
REMARK UNBOUND:                -0.920
REMARK  Name = 
REMARK  8 active torsions:
REMARK  status: ('A' for Active; 'I' for Inactive)
REMARK    1  A    between atoms: C_1  and  C_2
REMARK    2  A    between atoms: C_2  and  C_3
REMARK    3  A    between atoms: C_3  and  N_4
REMARK    4  A    between atoms: C_3  and  C_17
REMARK    5  A    between atoms: C_5  and  C_7
REMARK    6  A    between atoms: C_20  and  C_21
REMARK    7  A    between atoms: C_21  and  N_22
REMARK    8  A    between atoms: C_23  and  C_25
REMARK                            x       y       z     vdW  Elec       q    Type
REMARK                         _______ _______ _______ _____ _____    ______ ____
ROOT
ATOM      1  C   UNL     1      49.307   7.757  15.108  0.00  0.00    +0.000 C 
ENDROOT
BRANCH   1   2
ATOM      2  C   UNL     1      48.051   7.612  14.253  0.00  0.00    +0.000 A 
ATOM      3  C   UNL     1      47.221   8.718  14.029  0.00  0.00    +0.000 A 
ATOM      4  C   UNL     1      46.136   8.628  13.148  0.00  0.00    +0.000 A 
ATOM      5  C   UNL     1      45.846   7.425  12.492  0.00  0.00    +0.000 A 
ATOM      6  C   UNL     1      46.662   6.313  12.727  0.00  0.00    +0.000 A 
ATOM      7  C   UNL     1      47.740   6.401  13.610  0.00  0.00    +0.000 A 
BRANCH   5   8
ATOM      8  C   UNL     1      44.690   7.322  11.533  0.00  0.00    +0.000 C 
BRANCH   8   9
ATOM      9  N   UNL     1      44.840   6.205  10.630  0.00  0.00    +0.000 N 
ATOM     10  C   UNL     1      43.854   5.247  10.541  0.00  0.00    +0.000 C 
ATOM     11  O   UNL     1      42.836   5.282  11.226  0.00  0.00    +0.000 OA
ATOM     12  H   UNL     1      45.542   6.263   9.904  0.00  0.00    +0.000 HD
BRANCH  10  13
ATOM     13  C   UNL     1      44.146   4.142   9.533  0.00  0.00    +0.000 C 
ATOM     14  C   UNL     1      45.347   4.514   8.654  0.00  0.00    +0.000 C 
ATOM     15  C   UNL     1      45.733   3.353   7.742  0.00  0.00    +0.000 C 
ATOM     16  C   UNL     1      45.931   2.063   8.535  0.00  0.00    +0.000 C 
ATOM     17  N   UNL     1      44.736   1.737   9.314  0.00  0.00    +0.000 NA
ATOM     18  C   UNL     1      44.408   2.814  10.257  0.00  0.00    +0.000 C 
ATOM     19  H   UNL     1      44.904   0.878   9.840  0.00  0.00    +0.000 HD
ENDBRANCH  10  13
ENDBRANCH   8   9
ENDBRANCH   5   8
ENDBRANCH   1   2
BRANCH   1  20
ATOM     20  N   UNL     1      49.673   6.457  15.641  0.00  0.00    +0.000 N 
ATOM     21  C   UNL     1      49.678   6.137  16.971  0.00  0.00    +0.000 C 
ATOM     22  O   UNL     1      49.234   6.874  17.844  0.00  0.00    +0.000 OA
ATOM     23  H   UNL     1      50.237   5.899  15.017  0.00  0.00    +0.000 HD
BRANCH  21  24
ATOM     24  C   UNL     1      50.209   4.798  17.273  0.00  0.00    +0.000 A 
ATOM     25  C   UNL     1      49.389   3.679  17.224  0.00  0.00    +0.000 A 
ATOM     26  S   UNL     1      50.223   2.218  17.536  0.00  0.00    +0.000 S 
ATOM     27  C   UNL     1      51.688   3.042  17.799  0.00  0.00    +0.000 A 
ATOM     28  N   UNL     1      52.828   2.371  18.127  0.00  0.00    +0.000 NA
ATOM     29  C   UNL     1      53.858   3.128  18.317  0.00  0.00    +0.000 A 
ATOM     30  N   UNL     1      53.854   4.494  18.214  0.00  0.00    +0.000 N 
ATOM     31  C   UNL     1      52.736   5.211  17.868  0.00  0.00    +0.000 A 
ATOM     32  O   UNL     1      52.785   6.428  17.738  0.00  0.00    +0.000 OA
ATOM     33  C   UNL     1      51.549   4.405  17.641  0.00  0.00    +0.000 A 
ATOM     34  H   UNL     1      54.695   5.031  18.360  0.00  0.00    +0.000 HD
ENDBRANCH  21  24
ENDBRANCH   1  20
BRANCH   1  36
ATOM     35  C   UNL     1      50.553   9.861  14.364  0.00  0.00    +0.000 C 
ATOM     36  C   UNL     1      50.470   8.341  14.278  0.00  0.00    +0.000 C 
ENDBRANCH   1  36
TORSDOF 7
ENDMDL
MODEL 8
REMARK VINA RESULT:    -6.967      3.319      5.230
REMARK INTER + INTRA:         -10.739
REMARK INTER:                  -9.283
REMARK INTRA:                  -1.456
REMARK UNBOUND:                -0.920
REMARK  Name = 
REMARK  8 active torsions:
REMARK  status: ('A' for Active; 'I' for Inactive)
REMARK    1  A    between atoms: C_1  and  C_2
REMARK    2  A    between atoms: C_2  and  C_3
REMARK    3  A    between atoms: C_3  and  N_4
REMARK    4  A    between atoms: C_3  and  C_17
REMARK    5  A    between atoms: C_5  and  C_7
REMARK    6  A    between atoms: C_20  and  C_21
REMARK    7  A    between atoms: C_21  and  N_22
REMARK    8  A    between atoms: C_23  and  C_25
REMARK                            x       y       z     vdW  Elec       q    Type
REMARK                         _______ _______ _______ _____ _____    ______ ____
ROOT
ATOM      1  C   UNL     1      49.201   7.095  14.352  0.00  0.00    +0.000 C 
ENDROOT
BRANCH   1   2
ATOM      2  C   UNL     1      48.128   6.596  13.388  0.00  0.00    +0.000 A 
ATOM      3  C   UNL     1      47.290   5.535  13.756  0.00  0.00    +0.000 A 
ATOM      4  C   UNL     1      46.226   5.150  12.932  0.00  0.00    +0.000 A 
ATOM      5  C   UNL     1      45.991   5.802  11.714  0.00  0.00    +0.000 A 
ATOM      6  C   UNL     1      46.837   6.849  11.336  0.00  0.00    +0.000 A 
ATOM      7  C   UNL     1      47.902   7.229  12.153  0.00  0.00    +0.000 A 
BRANCH   5   8
ATOM      8  C   UNL     1      44.840   5.404  10.830  0.00  0.00    +0.000 C 
BRANCH   8   9
ATOM      9  N   UNL     1      45.288   4.688   9.658  0.00  0.00    +0.000 N 
ATOM     10  C   UNL     1      44.802   3.427   9.388  0.00  0.00    +0.000 C 
ATOM     11  O   UNL     1      44.003   2.855  10.123  0.00  0.00    +0.000 OA
ATOM     12  H   UNL     1      45.759   5.205   8.927  0.00  0.00    +0.000 HD
BRANCH  10  13
ATOM     13  C   UNL     1      45.353   2.808   8.108  0.00  0.00    +0.000 C 
ATOM     14  C   UNL     1      46.343   3.761   7.426  0.00  0.00    +0.000 C 
ATOM     15  C   UNL     1      47.005   3.090   6.226  0.00  0.00    +0.000 C 
ATOM     16  C   UNL     1      47.614   1.743   6.607  0.00  0.00    +0.000 C 
ATOM     17  N   UNL     1      46.612   0.862   7.206  0.00  0.00    +0.000 NA
ATOM     18  C   UNL     1      46.032   1.465   8.413  0.00  0.00    +0.000 C 
ATOM     19  H   UNL     1      47.052  -0.023   7.459  0.00  0.00    +0.000 HD
ENDBRANCH  10  13
ENDBRANCH   8   9
ENDBRANCH   5   8
ENDBRANCH   1   2
BRANCH   1  20
ATOM     20  N   UNL     1      50.099   7.989  13.644  0.00  0.00    +0.000 N 
ATOM     21  C   UNL     1      51.369   8.297  14.051  0.00  0.00    +0.000 C 
ATOM     22  O   UNL     1      51.932   7.736  14.983  0.00  0.00    +0.000 OA
ATOM     23  H   UNL     1      49.635   8.629  13.016  0.00  0.00    +0.000 HD
BRANCH  21  24
ATOM     24  C   UNL     1      52.036   9.325  13.237  0.00  0.00    +0.000 A 
ATOM     25  C   UNL     1      52.515  10.492  13.817  0.00  0.00    +0.000 A 
ATOM     26  S   UNL     1      53.319  11.515  12.707  0.00  0.00    +0.000 S 
ATOM     27  C   UNL     1      53.002  10.458  11.412  0.00  0.00    +0.000 A 
ATOM     28  N   UNL     1      53.415  10.746  10.146  0.00  0.00    +0.000 NA
ATOM     29  C   UNL     1      53.086   9.862   9.262  0.00  0.00    +0.000 A 
ATOM     30  N   UNL     1      52.379   8.719   9.526  0.00  0.00    +0.000 N 
ATOM     31  C   UNL     1      51.960   8.377  10.787  0.00  0.00    +0.000 A 
ATOM     32  O   UNL     1      51.373   7.322  10.989  0.00  0.00    +0.000 OA
ATOM     33  C   UNL     1      52.306   9.339  11.819  0.00  0.00    +0.000 A 
ATOM     34  H   UNL     1      52.165   8.058   8.795  0.00  0.00    +0.000 HD
ENDBRANCH  21  24
ENDBRANCH   1  20
BRANCH   1  36
ATOM     35  C   UNL     1      48.302   9.299  15.282  0.00  0.00    +0.000 C 
ATOM     36  C   UNL     1      48.561   7.822  15.554  0.00  0.00    +0.000 C 
ENDBRANCH   1  36
TORSDOF 7
ENDMDL
MODEL 9
REMARK VINA RESULT:    -6.751      4.035      8.505
REMARK INTER + INTRA:         -10.434
REMARK INTER:                  -9.210
REMARK INTRA:                  -1.224
REMARK UNBOUND:                -0.920
REMARK  Name = 
REMARK  8 active torsions:
REMARK  status: ('A' for Active; 'I' for Inactive)
REMARK    1  A    between atoms: C_1  and  C_2
REMARK    2  A    between atoms: C_2  and  C_3
REMARK    3  A    between atoms: C_3  and  N_4
REMARK    4  A    between atoms: C_3  and  C_17
REMARK    5  A    between atoms: C_5  and  C_7
REMARK    6  A    between atoms: C_20  and  C_21
REMARK    7  A    between atoms: C_21  and  N_22
REMARK    8  A    between atoms: C_23  and  C_25
REMARK                            x       y       z     vdW  Elec       q    Type
REMARK                         _______ _______ _______ _____ _____    ______ ____
ROOT
ATOM      1  C   UNL     1      48.676   7.671  14.783  0.00  0.00    +0.000 C 
ENDROOT
BRANCH   1   2
ATOM      2  C   UNL     1      49.060   6.672  15.870  0.00  0.00    +0.000 A 
ATOM      3  C   UNL     1      48.127   5.732  16.324  0.00  0.00    +0.000 A 
ATOM      4  C   UNL     1      48.503   4.734  17.231  0.00  0.00    +0.000 A 
ATOM      5  C   UNL     1      49.815   4.670  17.720  0.00  0.00    +0.000 A 
ATOM      6  C   UNL     1      50.745   5.619  17.283  0.00  0.00    +0.000 A 
ATOM      7  C   UNL     1      50.368   6.617  16.384  0.00  0.00    +0.000 A 
BRANCH   5   8
ATOM      8  C   UNL     1      50.233   3.592  18.684  0.00  0.00    +0.000 C 
BRANCH   8   9
ATOM      9  N   UNL     1      51.595   3.169  18.459  0.00  0.00    +0.000 N 
ATOM     10  C   UNL     1      51.856   2.046  17.705  0.00  0.00    +0.000 C 
ATOM     11  O   UNL     1      50.966   1.354  17.220  0.00  0.00    +0.000 OA
ATOM     12  H   UNL     1      52.341   3.825  18.647  0.00  0.00    +0.000 HD
BRANCH  10  13
ATOM     13  C   UNL     1      53.339   1.737  17.539  0.00  0.00    +0.000 C 
ATOM     14  C   UNL     1      54.165   2.443  18.623  0.00  0.00    +0.000 C 
ATOM     15  C   UNL     1      55.630   2.022  18.550  0.00  0.00    +0.000 C 
ATOM     16  C   UNL     1      55.775   0.502  18.563  0.00  0.00    +0.000 C 
ATOM     17  N   UNL     1      55.005  -0.108  17.479  0.00  0.00    +0.000 NA
ATOM     18  C   UNL     1      53.579   0.221  17.592  0.00  0.00    +0.000 C 
ATOM     19  H   UNL     1      55.114  -1.123  17.522  0.00  0.00    +0.000 HD
ENDBRANCH  10  13
ENDBRANCH   8   9
ENDBRANCH   5   8
ENDBRANCH   1   2
BRANCH   1  20
ATOM     20  N   UNL     1      47.456   7.225  14.135  0.00  0.00    +0.000 N 
ATOM     21  C   UNL     1      47.413   6.421  13.028  0.00  0.00    +0.000 C 
ATOM     22  O   UNL     1      48.402   5.875  12.553  0.00  0.00    +0.000 OA
ATOM     23  H   UNL     1      46.648   7.796  14.337  0.00  0.00    +0.000 HD
BRANCH  21  24
ATOM     24  C   UNL     1      46.063   6.211  12.481  0.00  0.00    +0.000 A 
ATOM     25  C   UNL     1      45.330   7.272  11.967  0.00  0.00    +0.000 A 
ATOM     26  S   UNL     1      43.821   6.797  11.317  0.00  0.00    +0.000 S 
ATOM     27  C   UNL     1      44.078   5.173  11.753  0.00  0.00    +0.000 A 
ATOM     28  N   UNL     1      43.146   4.214  11.492  0.00  0.00    +0.000 NA
ATOM     29  C   UNL     1      43.469   3.030  11.897  0.00  0.00    +0.000 A 
ATOM     30  N   UNL     1      44.635   2.716  12.543  0.00  0.00    +0.000 N 
ATOM     31  C   UNL     1      45.611   3.643  12.810  0.00  0.00    +0.000 A 
ATOM     32  O   UNL     1      46.662   3.312  13.346  0.00  0.00    +0.000 OA
ATOM     33  C   UNL     1      45.298   4.992  12.372  0.00  0.00    +0.000 A 
ATOM     34  H   UNL     1      44.838   1.768  12.823  0.00  0.00    +0.000 HD
ENDBRANCH  21  24
ENDBRANCH   1  20
BRANCH   1  36
ATOM     35  C   UNL     1      49.463  10.102  14.817  0.00  0.00    +0.000 C 
ATOM     36  C   UNL     1      48.480   9.081  15.379  0.00  0.00    +0.000 C 
ENDBRANCH   1  36
TORSDOF 7
ENDMDL
