MODEL 1
REMARK VINA RESULT:    -7.685      0.000      0.000
REMARK INTER + INTRA:          -9.984
REMARK INTER:                  -9.482
REMARK INTRA:                  -0.502
REMARK UNBOUND:                -0.502
REMARK  Name = 
REMARK  4 active torsions:
REMARK  status: ('A' for Active; 'I' for Inactive)
REMARK    1  A    between atoms: N_5  and  C_6
REMARK    2  A    between atoms: C_6  and  C_7
REMARK    3  A    between atoms: C_7  and  C_8
REMARK    4  A    between atoms: C_12  and  C_13
REMARK                            x       y       z     vdW  Elec       q    Type
REMARK                         _______ _______ _______ _____ _____    ______ ____
ROOT
ATOM      1  C   UNL     1      44.633   6.047  11.686  0.00  0.00    +0.000 A 
ATOM      2  C   UNL     1      45.026   7.380  11.500  0.00  0.00    +0.000 A 
ATOM      3  C   UNL     1      46.103   7.912  12.199  0.00  0.00    +0.000 A 
ATOM      4  C   UNL     1      46.801   7.122  13.107  0.00  0.00    +0.000 A 
ATOM      5  C   UNL     1      46.434   5.788  13.351  0.00  0.00    +0.000 A 
ATOM      6  C   UNL     1      45.355   5.262  12.608  0.00  0.00    +0.000 A 
ENDROOT
BRANCH   5   7
ATOM      7  C   UNL     1      47.137   5.002  14.380  0.00  0.00    +0.000 A 
ATOM      8  C   UNL     1      47.148   3.612  14.380  0.00  0.00    +0.000 A 
ATOM      9  N   UNL     1      47.770   2.838  15.294  0.00  0.00    +0.000 NA
ATOM     10  C   UNL     1      48.425   3.500  16.257  0.00  0.00    +0.000 A 
ATOM     11  N   UNL     1      48.505   4.833  16.376  0.00  0.00    +0.000 NA
ATOM     12  C   UNL     1      47.854   5.550  15.430  0.00  0.00    +0.000 A 
ENDBRANCH   5   7
BRANCH   1  13
ATOM     13  C   UNL     1      43.456   5.427  10.944  0.00  0.00    +0.000 C 
BRANCH  13  14
ATOM     14  C   UNL     1      43.798   4.156  10.156  0.00  0.00    +0.000 C 
BRANCH  14  19
ATOM     15  C   UNL     1      47.020   1.860   7.360  0.00  0.00    +0.000 A 
ATOM     16  C   UNL     1      46.089   1.463   8.282  0.00  0.00    +0.000 A 
ATOM     17  N   UNL     1      45.125   2.273   8.751  0.00  0.00    +0.000 NA
ATOM     18  C   UNL     1      45.088   3.532   8.282  0.00  0.00    +0.000 A 
ATOM     19  N   UNL     1      44.135   4.433   8.766  0.00  0.00    +0.000 N 
ATOM     20  N   UNL     1      45.960   4.015   7.389  0.00  0.00    +0.000 NA
ATOM     21  C   UNL     1      46.904   3.162   6.939  0.00  0.00    +0.000 A 
ATOM     22  H   UNL     1      44.521   5.352   8.576  0.00  0.00    +0.000 HD
ENDBRANCH  14  19
ENDBRANCH  13  14
ENDBRANCH   1  13
TORSDOF 4
ENDMDL
MODEL 2
REMARK VINA RESULT:    -7.352      2.451      3.468
REMARK INTER + INTRA:          -9.573
REMARK INTER:                  -9.073
REMARK INTRA:                  -0.501
REMARK UNBOUND:                -0.502
REMARK  Name = 
REMARK  4 active torsions:
REMARK  status: ('A' for Active; 'I' for Inactive)
REMARK    1  A    between atoms: N_5  and  C_6
REMARK    2  A    between atoms: C_6  and  C_7
REMARK    3  A    between atoms: C_7  and  C_8
REMARK    4  A    between atoms: C_12  and  C_13
REMARK                            x       y       z     vdW  Elec       q    Type
REMARK                         _______ _______ _______ _____ _____    ______ ____
ROOT
ATOM      1  C   UNL     1      45.120   5.373  11.912  0.00  0.00    +0.000 A 
ATOM      2  C   UNL     1      45.426   4.439  12.912  0.00  0.00    +0.000 A 
ATOM      3  C   UNL     1      46.581   4.562  13.677  0.00  0.00    +0.000 A 
ATOM      4  C   UNL     1      47.458   5.617  13.446  0.00  0.00    +0.000 A 
ATOM      5  C   UNL     1      47.213   6.567  12.440  0.00  0.00    +0.000 A 
ATOM      6  C   UNL     1      46.019   6.437  11.697  0.00  0.00    +0.000 A 
ENDROOT
BRANCH   5   7
ATOM      7  C   UNL     1      48.201   7.624  12.162  0.00  0.00    +0.000 A 
ATOM      8  C   UNL     1      49.563   7.364  12.061  0.00  0.00    +0.000 A 
ATOM      9  N   UNL     1      50.516   8.287  11.812  0.00  0.00    +0.000 NA
ATOM     10  C   UNL     1      50.072   9.541  11.646  0.00  0.00    +0.000 A 
ATOM     11  N   UNL     1      48.791   9.932  11.707  0.00  0.00    +0.000 NA
ATOM     12  C   UNL     1      47.888   8.958  11.966  0.00  0.00    +0.000 A 
ENDBRANCH   5   7
BRANCH   1  13
ATOM     13  C   UNL     1      43.869   5.273  11.050  0.00  0.00    +0.000 C 
BRANCH  13  14
ATOM     14  C   UNL     1      43.828   4.048  10.126  0.00  0.00    +0.000 C 
BRANCH  14  19
ATOM     15  C   UNL     1      47.122   1.887   7.306  0.00  0.00    +0.000 A 
ATOM     16  C   UNL     1      46.184   1.448   8.203  0.00  0.00    +0.000 A 
ATOM     17  N   UNL     1      45.202   2.229   8.683  0.00  0.00    +0.000 NA
ATOM     18  C   UNL     1      45.153   3.500   8.252  0.00  0.00    +0.000 A 
ATOM     19  N   UNL     1      44.180   4.373   8.750  0.00  0.00    +0.000 N 
ATOM     20  N   UNL     1      46.029   4.024   7.387  0.00  0.00    +0.000 NA
ATOM     21  C   UNL     1      46.992   3.199   6.923  0.00  0.00    +0.000 A 
ATOM     22  H   UNL     1      44.554   5.303   8.593  0.00  0.00    +0.000 HD
ENDBRANCH  14  19
ENDBRANCH  13  14
ENDBRANCH   1  13
TORSDOF 4
ENDMDL
MODEL 3
REMARK VINA RESULT:    -7.181      2.378      3.984
REMARK INTER + INTRA:          -9.362
REMARK INTER:                  -8.926
REMARK INTRA:                  -0.436
REMARK UNBOUND:                -0.502
REMARK  Name = 
REMARK  4 active torsions:
REMARK  status: ('A' for Active; 'I' for Inactive)
REMARK    1  A    between atoms: N_5  and  C_6
REMARK    2  A    between atoms: C_6  and  C_7
REMARK    3  A    between atoms: C_7  and  C_8
REMARK    4  A    between atoms: C_12  and  C_13
REMARK                            x       y       z     vdW  Elec       q    Type
REMARK                         _______ _______ _______ _____ _____    ______ ____
ROOT
ATOM      1  C   UNL     1      44.801   4.134  11.949  0.00  0.00    +0.000 A 
ATOM      2  C   UNL     1      45.692   3.469  12.804  0.00  0.00    +0.000 A 
ATOM      3  C   UNL     1      46.668   4.167  13.504  0.00  0.00    +0.000 A 
ATOM      4  C   UNL     1      46.779   5.546  13.353  0.00  0.00    +0.000 A 
ATOM      5  C   UNL     1      45.930   6.259  12.490  0.00  0.00    +0.000 A 
ATOM      6  C   UNL     1      44.928   5.532  11.812  0.00  0.00    +0.000 A 
ENDROOT
BRANCH   5   7
ATOM      7  C   UNL     1      46.127   7.705  12.285  0.00  0.00    +0.000 A 
ATOM      8  C   UNL     1      47.363   8.320  12.444  0.00  0.00    +0.000 A 
ATOM      9  N   UNL     1      47.606   9.637  12.274  0.00  0.00    +0.000 NA
ATOM     10  C   UNL     1      46.546  10.375  11.914  0.00  0.00    +0.000 A 
ATOM     11  N   UNL     1      45.303   9.915  11.717  0.00  0.00    +0.000 NA
ATOM     12  C   UNL     1      45.127   8.587  11.911  0.00  0.00    +0.000 A 
ENDBRANCH   5   7
BRANCH   1  13
ATOM     13  C   UNL     1      43.721   3.407  11.160  0.00  0.00    +0.000 C 
BRANCH  13  14
ATOM     14  C   UNL     1      44.126   3.021   9.731  0.00  0.00    +0.000 C 
BRANCH  14  19
ATOM     15  C   UNL     1      47.275   2.276   6.126  0.00  0.00    +0.000 A 
ATOM     16  C   UNL     1      46.689   3.383   6.680  0.00  0.00    +0.000 A 
ATOM     17  N   UNL     1      46.031   3.359   7.852  0.00  0.00    +0.000 NA
ATOM     18  C   UNL     1      45.954   2.184   8.497  0.00  0.00    +0.000 A 
ATOM     19  N   UNL     1      45.244   2.089   9.698  0.00  0.00    +0.000 N 
ATOM     20  N   UNL     1      46.484   1.046   8.032  0.00  0.00    +0.000 NA
ATOM     21  C   UNL     1      47.145   1.121   6.857  0.00  0.00    +0.000 A 
ATOM     22  H   UNL     1      45.009   1.106   9.789  0.00  0.00    +0.000 HD
ENDBRANCH  14  19
ENDBRANCH  13  14
ENDBRANCH   1  13
TORSDOF 4
ENDMDL
MODEL 4
REMARK VINA RESULT:    -6.979      1.887      2.693
REMARK INTER + INTRA:          -9.113
REMARK INTER:                  -8.590
REMARK INTRA:                  -0.523
REMARK UNBOUND:                -0.502
REMARK  Name = 
REMARK  4 active torsions:
REMARK  status: ('A' for Active; 'I' for Inactive)
REMARK    1  A    between atoms: N_5  and  C_6
REMARK    2  A    between atoms: C_6  and  C_7
REMARK    3  A    between atoms: C_7  and  C_8
REMARK    4  A    between atoms: C_12  and  C_13
REMARK                            x       y       z     vdW  Elec       q    Type
REMARK                         _______ _______ _______ _____ _____    ______ ____
ROOT
ATOM      1  C   UNL     1      43.993   5.165  11.333  0.00  0.00    +0.000 A 
ATOM      2  C   UNL     1      43.136   6.264  11.172  0.00  0.00    +0.000 A 
ATOM      3  C   UNL     1      43.599   7.563  11.346  0.00  0.00    +0.000 A 
ATOM      4  C   UNL     1      44.927   7.787  11.695  0.00  0.00    +0.000 A 
ATOM      5  C   UNL     1      45.822   6.722  11.893  0.00  0.00    +0.000 A 
ATOM      6  C   UNL     1      45.336   5.413  11.683  0.00  0.00    +0.000 A 
ENDROOT
BRANCH   5   7
ATOM      7  C   UNL     1      47.199   6.986  12.345  0.00  0.00    +0.000 A 
ATOM      8  C   UNL     1      48.012   7.940  11.746  0.00  0.00    +0.000 A 
ATOM      9  N   UNL     1      49.279   8.226  12.111  0.00  0.00    +0.000 NA
ATOM     10  C   UNL     1      49.752   7.516  13.145  0.00  0.00    +0.000 A 
ATOM     11  N   UNL     1      49.080   6.574  13.821  0.00  0.00    +0.000 NA
ATOM     12  C   UNL     1      47.817   6.333  13.399  0.00  0.00    +0.000 A 
ENDBRANCH   5   7
BRANCH   1  13
ATOM     13  C   UNL     1      43.525   3.727  11.156  0.00  0.00    +0.000 C 
BRANCH  13  14
ATOM     14  C   UNL     1      44.396   2.884  10.215  0.00  0.00    +0.000 C 
BRANCH  14  19
ATOM     15  C   UNL     1      47.484   1.959   6.599  0.00  0.00    +0.000 A 
ATOM     16  C   UNL     1      46.959   1.225   7.629  0.00  0.00    +0.000 A 
ATOM     17  N   UNL     1      45.914   1.635   8.368  0.00  0.00    +0.000 NA
ATOM     18  C   UNL     1      45.370   2.826   8.067  0.00  0.00    +0.000 A 
ATOM     19  N   UNL     1      44.309   3.325   8.829  0.00  0.00    +0.000 N 
ATOM     20  N   UNL     1      45.819   3.619   7.087  0.00  0.00    +0.000 NA
ATOM     21  C   UNL     1      46.863   3.161   6.365  0.00  0.00    +0.000 A 
ATOM     22  H   UNL     1      44.325   4.328   8.678  0.00  0.00    +0.000 HD
ENDBRANCH  14  19
ENDBRANCH  13  14
ENDBRANCH   1  13
TORSDOF 4
ENDMDL
MODEL 5
REMARK VINA RESULT:    -6.975      1.935      2.819
REMARK INTER + INTRA:          -9.108
REMARK INTER:                  -8.615
REMARK INTRA:                  -0.493
REMARK UNBOUND:                -0.502
REMARK  Name = 
REMARK  4 active torsions:
REMARK  status: ('A' for Active; 'I' for Inactive)
REMARK    1  A    between atoms: N_5  and  C_6
REMARK    2  A    between atoms: C_6  and  C_7
REMARK    3  A    between atoms: C_7  and  C_8
REMARK    4  A    between atoms: C_12  and  C_13
REMARK                            x       y       z     vdW  Elec       q    Type
REMARK                         _______ _______ _______ _____ _____    ______ ____
ROOT
ATOM      1  C   UNL     1      44.239   5.082  11.317  0.00  0.00    +0.000 A 
ATOM      2  C   UNL     1      43.367   6.168  11.147  0.00  0.00    +0.000 A 
ATOM      3  C   UNL     1      43.799   7.472  11.355  0.00  0.00    +0.000 A 
ATOM      4  C   UNL     1      45.111   7.715  11.749  0.00  0.00    +0.000 A 
ATOM      5  C   UNL     1      46.020   6.663  11.959  0.00  0.00    +0.000 A 
ATOM      6  C   UNL     1      45.565   5.350  11.713  0.00  0.00    +0.000 A 
ENDROOT
BRANCH   5   7
ATOM      7  C   UNL     1      47.377   6.945  12.459  0.00  0.00    +0.000 A 
ATOM      8  C   UNL     1      47.838   6.465  13.678  0.00  0.00    +0.000 A 
ATOM      9  N   UNL     1      49.066   6.690  14.191  0.00  0.00    +0.000 NA
ATOM     10  C   UNL     1      49.879   7.434  13.428  0.00  0.00    +0.000 A 
ATOM     11  N   UNL     1      49.571   7.954  12.231  0.00  0.00    +0.000 NA
ATOM     12  C   UNL     1      48.322   7.695  11.779  0.00  0.00    +0.000 A 
ENDBRANCH   5   7
BRANCH   1  13
ATOM     13  C   UNL     1      43.805   3.639  11.103  0.00  0.00    +0.000 C 
BRANCH  13  14
ATOM     14  C   UNL     1      44.111   3.081   9.707  0.00  0.00    +0.000 C 
BRANCH  14  19
ATOM     15  C   UNL     1      47.329   2.129   6.213  0.00  0.00    +0.000 A 
ATOM     16  C   UNL     1      46.782   3.271   6.734  0.00  0.00    +0.000 A 
ATOM     17  N   UNL     1      46.088   3.297   7.885  0.00  0.00    +0.000 NA
ATOM     18  C   UNL     1      45.932   2.137   8.542  0.00  0.00    +0.000 A 
ATOM     19  N   UNL     1      45.182   2.094   9.722  0.00  0.00    +0.000 N 
ATOM     20  N   UNL     1      46.419   0.968   8.108  0.00  0.00    +0.000 NA
ATOM     21  C   UNL     1      47.119   0.993   6.955  0.00  0.00    +0.000 A 
ATOM     22  H   UNL     1      44.895   1.125   9.817  0.00  0.00    +0.000 HD
ENDBRANCH  14  19
ENDBRANCH  13  14
ENDBRANCH   1  13
TORSDOF 4
ENDMDL
MODEL 6
REMARK VINA RESULT:    -6.889      2.423      6.820
REMARK INTER + INTRA:          -9.001
REMARK INTER:                  -8.507
REMARK INTRA:                  -0.495
REMARK UNBOUND:                -0.502
REMARK  Name = 
REMARK  4 active torsions:
REMARK  status: ('A' for Active; 'I' for Inactive)
REMARK    1  A    between atoms: N_5  and  C_6
REMARK    2  A    between atoms: C_6  and  C_7
REMARK    3  A    between atoms: C_7  and  C_8
REMARK    4  A    between atoms: C_12  and  C_13
REMARK                            x       y       z     vdW  Elec       q    Type
REMARK                         _______ _______ _______ _____ _____    ______ ____
ROOT
ATOM      1  C   UNL     1      44.481   5.097  10.933  0.00  0.00    +0.000 A 
ATOM      2  C   UNL     1      43.588   4.208  11.549  0.00  0.00    +0.000 A 
ATOM      3  C   UNL     1      43.483   2.890  11.123  0.00  0.00    +0.000 A 
ATOM      4  C   UNL     1      44.262   2.438  10.062  0.00  0.00    +0.000 A 
ATOM      5  C   UNL     1      45.155   3.293   9.392  0.00  0.00    +0.000 A 
ATOM      6  C   UNL     1      45.265   4.619   9.863  0.00  0.00    +0.000 A 
ENDROOT
BRANCH   5   7
ATOM      7  C   UNL     1      45.904   2.810   8.219  0.00  0.00    +0.000 A 
ATOM      8  C   UNL     1      46.221   3.633   7.145  0.00  0.00    +0.000 A 
ATOM      9  N   UNL     1      46.900   3.250   6.044  0.00  0.00    +0.000 NA
ATOM     10  C   UNL     1      47.291   1.968   6.026  0.00  0.00    +0.000 A 
ATOM     11  N   UNL     1      47.063   1.067   6.993  0.00  0.00    +0.000 NA
ATOM     12  C   UNL     1      46.371   1.515   8.066  0.00  0.00    +0.000 A 
ENDBRANCH   5   7
BRANCH   1  13
ATOM     13  C   UNL     1      44.624   6.550  11.366  0.00  0.00    +0.000 C 
BRANCH  13  14
ATOM     14  C   UNL     1      44.813   6.750  12.876  0.00  0.00    +0.000 C 
BRANCH  14  19
ATOM     15  C   UNL     1      49.365   8.371  12.530  0.00  0.00    +0.000 A 
ATOM     16  C   UNL     1      48.152   8.951  12.794  0.00  0.00    +0.000 A 
ATOM     17  N   UNL     1      47.047   8.247  13.088  0.00  0.00    +0.000 NA
ATOM     18  C   UNL     1      47.153   6.908  13.119  0.00  0.00    +0.000 A 
ATOM     19  N   UNL     1      46.027   6.120  13.376  0.00  0.00    +0.000 N 
ATOM     20  N   UNL     1      48.291   6.249  12.866  0.00  0.00    +0.000 NA
ATOM     21  C   UNL     1      49.377   6.999  12.586  0.00  0.00    +0.000 A 
ATOM     22  H   UNL     1      46.249   5.209  12.990  0.00  0.00    +0.000 HD
ENDBRANCH  14  19
ENDBRANCH  13  14
ENDBRANCH   1  13
TORSDOF 4
ENDMDL
MODEL 7
REMARK VINA RESULT:    -6.874      1.278      7.190
REMARK INTER + INTRA:          -8.984
REMARK INTER:                  -8.574
REMARK INTRA:                  -0.410
REMARK UNBOUND:                -0.502
REMARK  Name = 
REMARK  4 active torsions:
REMARK  status: ('A' for Active; 'I' for Inactive)
REMARK    1  A    between atoms: N_5  and  C_6
REMARK    2  A    between atoms: C_6  and  C_7
REMARK    3  A    between atoms: C_7  and  C_8
REMARK    4  A    between atoms: C_12  and  C_13
REMARK                            x       y       z     vdW  Elec       q    Type
REMARK                         _______ _______ _______ _____ _____    ______ ____
ROOT
ATOM      1  C   UNL     1      45.110   5.788  12.252  0.00  0.00    +0.000 A 
ATOM      2  C   UNL     1      43.713   5.892  12.315  0.00  0.00    +0.000 A 
ATOM      3  C   UNL     1      42.905   5.262  11.376  0.00  0.00    +0.000 A 
ATOM      4  C   UNL     1      43.481   4.525  10.347  0.00  0.00    +0.000 A 
ATOM      5  C   UNL     1      44.876   4.409  10.220  0.00  0.00    +0.000 A 
ATOM      6  C   UNL     1      45.674   5.034  11.203  0.00  0.00    +0.000 A 
ENDROOT
BRANCH   5   7
ATOM      7  C   UNL     1      45.459   3.694   9.072  0.00  0.00    +0.000 A 
ATOM      8  C   UNL     1      45.942   4.353   7.948  0.00  0.00    +0.000 A 
ATOM      9  N   UNL     1      46.483   3.756   6.866  0.00  0.00    +0.000 NA
ATOM     10  C   UNL     1      46.551   2.419   6.922  0.00  0.00    +0.000 A 
ATOM     11  N   UNL     1      46.134   1.656   7.942  0.00  0.00    +0.000 NA
ATOM     12  C   UNL     1      45.596   2.318   8.993  0.00  0.00    +0.000 A 
ENDBRANCH   5   7
BRANCH   1  13
ATOM     13  C   UNL     1      46.031   6.466  13.257  0.00  0.00    +0.000 C 
BRANCH  13  14
ATOM     14  C   UNL     1      47.097   5.546  13.867  0.00  0.00    +0.000 C 
BRANCH  14  19
ATOM     15  C   UNL     1      49.330   3.730  17.763  0.00  0.00    +0.000 A 
ATOM     16  C   UNL     1      49.307   4.954  17.149  0.00  0.00    +0.000 A 
ATOM     17  N   UNL     1      48.404   5.291  16.213  0.00  0.00    +0.000 NA
ATOM     18  C   UNL     1      47.487   4.369  15.874  0.00  0.00    +0.000 A 
ATOM     19  N   UNL     1      46.550   4.647  14.874  0.00  0.00    +0.000 N 
ATOM     20  N   UNL     1      47.436   3.144  16.409  0.00  0.00    +0.000 NA
ATOM     21  C   UNL     1      48.356   2.854  17.353  0.00  0.00    +0.000 A 
ATOM     22  H   UNL     1      46.241   3.740  14.542  0.00  0.00    +0.000 HD
ENDBRANCH  14  19
ENDBRANCH  13  14
ENDBRANCH   1  13
TORSDOF 4
ENDMDL
MODEL 8
REMARK VINA RESULT:    -6.649      3.140      4.117
REMARK INTER + INTRA:          -8.706
REMARK INTER:                  -8.209
REMARK INTRA:                  -0.497
REMARK UNBOUND:                -0.502
REMARK  Name = 
REMARK  4 active torsions:
REMARK  status: ('A' for Active; 'I' for Inactive)
REMARK    1  A    between atoms: N_5  and  C_6
REMARK    2  A    between atoms: C_6  and  C_7
REMARK    3  A    between atoms: C_7  and  C_8
REMARK    4  A    between atoms: C_12  and  C_13
REMARK                            x       y       z     vdW  Elec       q    Type
REMARK                         _______ _______ _______ _____ _____    ______ ____
ROOT
ATOM      1  C   UNL     1      46.085   6.520  12.124  0.00  0.00    +0.000 A 
ATOM      2  C   UNL     1      45.174   7.472  12.604  0.00  0.00    +0.000 A 
ATOM      3  C   UNL     1      45.533   8.809  12.725  0.00  0.00    +0.000 A 
ATOM      4  C   UNL     1      46.817   9.217  12.378  0.00  0.00    +0.000 A 
ATOM      5  C   UNL     1      47.778   8.301  11.916  0.00  0.00    +0.000 A 
ATOM      6  C   UNL     1      47.380   6.954  11.775  0.00  0.00    +0.000 A 
ENDROOT
BRANCH   5   7
ATOM      7  C   UNL     1      49.154   8.748  11.638  0.00  0.00    +0.000 A 
ATOM      8  C   UNL     1      49.468  10.073  11.364  0.00  0.00    +0.000 A 
ATOM      9  N   UNL     1      50.705  10.543  11.100  0.00  0.00    +0.000 NA
ATOM     10  C   UNL     1      51.684   9.628  11.122  0.00  0.00    +0.000 A 
ATOM     11  N   UNL     1      51.528   8.322  11.379  0.00  0.00    +0.000 NA
ATOM     12  C   UNL     1      50.261   7.916  11.630  0.00  0.00    +0.000 A 
ENDBRANCH   5   7
BRANCH   1  13
ATOM     13  C   UNL     1      45.733   5.045  11.981  0.00  0.00    +0.000 C 
BRANCH  13  14
ATOM     14  C   UNL     1      44.444   4.771  11.194  0.00  0.00    +0.000 C 
BRANCH  14  19
ATOM     15  C   UNL     1      46.416   2.252   7.556  0.00  0.00    +0.000 A 
ATOM     16  C   UNL     1      45.622   1.937   8.627  0.00  0.00    +0.000 A 
ATOM     17  N   UNL     1      44.987   2.860   9.369  0.00  0.00    +0.000 NA
ATOM     18  C   UNL     1      45.151   4.149   9.031  0.00  0.00    +0.000 A 
ATOM     19  N   UNL     1      44.551   5.156   9.794  0.00  0.00    +0.000 N 
ATOM     20  N   UNL     1      45.914   4.557   8.010  0.00  0.00    +0.000 NA
ATOM     21  C   UNL     1      46.523   3.594   7.286  0.00  0.00    +0.000 A 
ATOM     22  H   UNL     1      45.093   5.992   9.601  0.00  0.00    +0.000 HD
ENDBRANCH  14  19
ENDBRANCH  13  14
ENDBRANCH   1  13
TORSDOF 4
ENDMDL
MODEL 9
REMARK VINA RESULT:    -6.545      1.702      7.021
REMARK INTER + INTRA:          -8.578
REMARK INTER:                  -8.128
REMARK INTRA:                  -0.450
REMARK UNBOUND:                -0.502
REMARK  Name = 
REMARK  4 active torsions:
REMARK  status: ('A' for Active; 'I' for Inactive)
REMARK    1  A    between atoms: N_5  and  C_6
REMARK    2  A    between atoms: C_6  and  C_7
REMARK    3  A    between atoms: C_7  and  C_8
REMARK    4  A    between atoms: C_12  and  C_13
REMARK                            x       y       z     vdW  Elec       q    Type
REMARK                         _______ _______ _______ _____ _____    ______ ____
ROOT
ATOM      1  C   UNL     1      47.559   7.284  12.982  0.00  0.00    +0.000 A 
ATOM      2  C   UNL     1      46.713   8.386  13.168  0.00  0.00    +0.000 A 
ATOM      3  C   UNL     1      45.466   8.443  12.556  0.00  0.00    +0.000 A 
ATOM      4  C   UNL     1      45.047   7.401  11.735  0.00  0.00    +0.000 A 
ATOM      5  C   UNL     1      45.866   6.284  11.493  0.00  0.00    +0.000 A 
ATOM      6  C   UNL     1      47.115   6.236  12.150  0.00  0.00    +0.000 A 
ENDROOT
BRANCH   5   7
ATOM      7  C   UNL     1      45.431   5.237  10.553  0.00  0.00    +0.000 A 
ATOM      8  C   UNL     1      45.761   5.262   9.203  0.00  0.00    +0.000 A 
ATOM      9  N   UNL     1      45.392   4.337   8.293  0.00  0.00    +0.000 NA
ATOM     10  C   UNL     1      44.657   3.323   8.770  0.00  0.00    +0.000 A 
ATOM     11  N   UNL     1      44.273   3.167  10.045  0.00  0.00    +0.000 NA
ATOM     12  C   UNL     1      44.672   4.134  10.904  0.00  0.00    +0.000 A 
ENDBRANCH   5   7
BRANCH   1  13
ATOM     13  C   UNL     1      48.933   7.184  13.630  0.00  0.00    +0.000 C 
BRANCH  13  14
ATOM     14  C   UNL     1      48.909   7.063  15.160  0.00  0.00    +0.000 C 
BRANCH  14  19
ATOM     15  C   UNL     1      49.461   2.839  17.467  0.00  0.00    +0.000 A 
ATOM     16  C   UNL     1      50.070   4.063  17.539  0.00  0.00    +0.000 A 
ATOM     17  N   UNL     1      49.570   5.170  16.965  0.00  0.00    +0.000 NA
ATOM     18  C   UNL     1      48.415   5.052  16.289  0.00  0.00    +0.000 A 
ATOM     19  N   UNL     1      47.870   6.160  15.633  0.00  0.00    +0.000 N 
ATOM     20  N   UNL     1      47.751   3.898  16.154  0.00  0.00    +0.000 NA
ATOM     21  C   UNL     1      48.285   2.815  16.757  0.00  0.00    +0.000 A 
ATOM     22  H   UNL     1      47.259   5.771  14.923  0.00  0.00    +0.000 HD
ENDBRANCH  14  19
ENDBRANCH  13  14
ENDBRANCH   1  13
TORSDOF 4
ENDMDL
