MODEL 1
REMARK VINA RESULT:    -8.787      0.000      0.000
REMARK INTER + INTRA:         -13.269
REMARK INTER:                 -12.383
REMARK INTRA:                  -0.886
REMARK UNBOUND:                -0.886
REMARK  Name = 
REMARK  7 active torsions:
REMARK  status: ('A' for Active; 'I' for Inactive)
REMARK    1  A    between atoms: C_2  and  C_20
REMARK    2  A    between atoms: N_3  and  C_4
REMARK    3  A    between atoms: C_4  and  C_5
REMARK    4  A    between atoms: C_8  and  O_9
REMARK    5  A    between atoms: O_9  and  C_10
REMARK    6  A    between atoms: C_10  and  C_11
REMARK    7  A    between atoms: C_11  and  C_12
REMARK                            x       y       z     vdW  Elec       q    Type
REMARK                         _______ _______ _______ _____ _____    ______ ____
ROOT
ATOM      1  C   UNL     1      46.726   7.895  13.201  0.00  0.00    +0.000 C 
ENDROOT
BRANCH   1   2
ATOM      2  C   UNL     1      45.918   6.921  12.374  0.00  0.00    +0.000 A 
ATOM      3  C   UNL     1      46.438   6.432  11.181  0.00  0.00    +0.000 A 
ATOM      4  C   UNL     1      45.696   5.514  10.438  0.00  0.00    +0.000 A 
ATOM      5  C   UNL     1      44.441   5.109  10.884  0.00  0.00    +0.000 A 
ATOM      6  C   UNL     1      43.982   5.680  12.065  0.00  0.00    +0.000 A 
ATOM      7  N   UNL     1      44.688   6.561  12.823  0.00  0.00    +0.000 NA
BRANCH   5   8
ATOM      8  O   UNL     1      43.615   4.228  10.235  0.00  0.00    +0.000 OA
BRANCH   8   9
ATOM      9  C   UNL     1      44.296   3.170   9.541  0.00  0.00    +0.000 C 
BRANCH   9  10
ATOM     10  C   UNL     1      44.701   3.621   8.134  0.00  0.00    +0.000 C 
BRANCH  10  11
ATOM     11  C   UNL     1      45.854   2.813   7.576  0.00  0.00    +0.000 A 
ATOM     12  C   UNL     1      46.145   1.552   8.104  0.00  0.00    +0.000 A 
ATOM     13  C   UNL     1      47.209   0.831   7.578  0.00  0.00    +0.000 A 
ATOM     14  N   UNL     1      47.999   1.279   6.581  0.00  0.00    +0.000 NA
ATOM     15  C   UNL     1      47.710   2.503   6.085  0.00  0.00    +0.000 A 
ATOM     16  C   UNL     1      46.668   3.297   6.545  0.00  0.00    +0.000 A 
ENDBRANCH  10  11
ENDBRANCH   9  10
ENDBRANCH   8   9
ENDBRANCH   5   8
ENDBRANCH   1   2
BRANCH   1  19
ATOM     17  O   UNL     1      49.257   6.692  13.417  0.00  0.00    +0.000 OA
ATOM     18  C   UNL     1      48.542   6.756  14.415  0.00  0.00    +0.000 C 
ATOM     19  N   UNL     1      47.280   7.289  14.388  0.00  0.00    +0.000 N 
ATOM     20  H   UNL     1      46.841   7.580  15.253  0.00  0.00    +0.000 HD
BRANCH  18  21
ATOM     21  C   UNL     1      48.972   6.214  15.705  0.00  0.00    +0.000 A 
ATOM     22  C   UNL     1      50.012   6.791  16.416  0.00  0.00    +0.000 A 
ATOM     23  S   UNL     1      50.344   5.996  17.891  0.00  0.00    +0.000 S 
ATOM     24  C   UNL     1      49.093   4.874  17.631  0.00  0.00    +0.000 A 
ATOM     25  N   UNL     1      48.809   3.902  18.536  0.00  0.00    +0.000 NA
ATOM     26  C   UNL     1      47.812   3.143  18.221  0.00  0.00    +0.000 A 
ATOM     27  N   UNL     1      47.072   3.263  17.075  0.00  0.00    +0.000 N 
ATOM     28  C   UNL     1      47.358   4.188  16.102  0.00  0.00    +0.000 A 
ATOM     29  O   UNL     1      46.750   4.183  15.033  0.00  0.00    +0.000 OA
ATOM     30  C   UNL     1      48.446   5.089  16.427  0.00  0.00    +0.000 A 
ATOM     31  H   UNL     1      46.329   2.619  16.853  0.00  0.00    +0.000 HD
ENDBRANCH  18  21
ENDBRANCH   1  19
TORSDOF 7
ENDMDL
MODEL 2
REMARK VINA RESULT:    -7.416      3.374      7.833
REMARK INTER + INTRA:         -11.337
REMARK INTER:                 -10.123
REMARK INTRA:                  -1.214
REMARK UNBOUND:                -0.886
REMARK  Name = 
REMARK  7 active torsions:
REMARK  status: ('A' for Active; 'I' for Inactive)
REMARK    1  A    between atoms: C_2  and  C_20
REMARK    2  A    between atoms: N_3  and  C_4
REMARK    3  A    between atoms: C_4  and  C_5
REMARK    4  A    between atoms: C_8  and  O_9
REMARK    5  A    between atoms: O_9  and  C_10
REMARK    6  A    between atoms: C_10  and  C_11
REMARK    7  A    between atoms: C_11  and  C_12
REMARK                            x       y       z     vdW  Elec       q    Type
REMARK                         _______ _______ _______ _____ _____    ______ ____
ROOT
ATOM      1  C   UNL     1      48.120   8.020  12.383  0.00  0.00    +0.000 C 
ENDROOT
BRANCH   1   2
ATOM      2  C   UNL     1      48.429   7.749  13.838  0.00  0.00    +0.000 A 
ATOM      3  C   UNL     1      48.318   8.775  14.770  0.00  0.00    +0.000 A 
ATOM      4  C   UNL     1      48.580   8.508  16.113  0.00  0.00    +0.000 A 
ATOM      5  C   UNL     1      48.964   7.230  16.508  0.00  0.00    +0.000 A 
ATOM      6  C   UNL     1      49.090   6.277  15.505  0.00  0.00    +0.000 A 
ATOM      7  N   UNL     1      48.822   6.498  14.190  0.00  0.00    +0.000 NA
BRANCH   5   8
ATOM      8  O   UNL     1      49.263   6.853  17.792  0.00  0.00    +0.000 OA
BRANCH   8   9
ATOM      9  C   UNL     1      48.198   6.177  18.480  0.00  0.00    +0.000 C 
BRANCH   9  10
ATOM     10  C   UNL     1      48.709   4.888  19.132  0.00  0.00    +0.000 C 
BRANCH  10  11
ATOM     11  C   UNL     1      49.020   3.809  18.116  0.00  0.00    +0.000 A 
ATOM     12  C   UNL     1      48.003   3.296  17.305  0.00  0.00    +0.000 A 
ATOM     13  C   UNL     1      48.313   2.306  16.383  0.00  0.00    +0.000 A 
ATOM     14  N   UNL     1      49.549   1.791  16.220  0.00  0.00    +0.000 NA
ATOM     15  C   UNL     1      50.521   2.292  17.014  0.00  0.00    +0.000 A 
ATOM     16  C   UNL     1      50.308   3.282  17.965  0.00  0.00    +0.000 A 
ENDBRANCH  10  11
ENDBRANCH   9  10
ENDBRANCH   8   9
ENDBRANCH   5   8
ENDBRANCH   1   2
BRANCH   1  19
ATOM     17  O   UNL     1      45.361   7.848  11.876  0.00  0.00    +0.000 OA
ATOM     18  C   UNL     1      46.093   6.932  11.503  0.00  0.00    +0.000 C 
ATOM     19  N   UNL     1      47.440   6.919  11.745  0.00  0.00    +0.000 N 
ATOM     20  H   UNL     1      48.041   6.315  11.197  0.00  0.00    +0.000 HD
BRANCH  18  21
ATOM     21  C   UNL     1      45.561   5.756  10.813  0.00  0.00    +0.000 A 
ATOM     22  C   UNL     1      45.809   5.539   9.467  0.00  0.00    +0.000 A 
ATOM     23  S   UNL     1      45.092   4.107   8.872  0.00  0.00    +0.000 S 
ATOM     24  C   UNL     1      44.451   3.727  10.400  0.00  0.00    +0.000 A 
ATOM     25  N   UNL     1      43.727   2.597  10.607  0.00  0.00    +0.000 NA
ATOM     26  C   UNL     1      43.332   2.422  11.825  0.00  0.00    +0.000 A 
ATOM     27  N   UNL     1      43.590   3.281  12.860  0.00  0.00    +0.000 N 
ATOM     28  C   UNL     1      44.262   4.465  12.689  0.00  0.00    +0.000 A 
ATOM     29  O   UNL     1      44.366   5.268  13.614  0.00  0.00    +0.000 OA
ATOM     30  C   UNL     1      44.760   4.689  11.346  0.00  0.00    +0.000 A 
ATOM     31  H   UNL     1      43.224   3.123  13.784  0.00  0.00    +0.000 HD
ENDBRANCH  18  21
ENDBRANCH   1  19
TORSDOF 7
ENDMDL
MODEL 3
REMARK VINA RESULT:    -7.387      2.147      2.687
REMARK INTER + INTRA:         -11.295
REMARK INTER:                 -10.361
REMARK INTRA:                  -0.934
REMARK UNBOUND:                -0.886
REMARK  Name = 
REMARK  7 active torsions:
REMARK  status: ('A' for Active; 'I' for Inactive)
REMARK    1  A    between atoms: C_2  and  C_20
REMARK    2  A    between atoms: N_3  and  C_4
REMARK    3  A    between atoms: C_4  and  C_5
REMARK    4  A    between atoms: C_8  and  O_9
REMARK    5  A    between atoms: O_9  and  C_10
REMARK    6  A    between atoms: C_10  and  C_11
REMARK    7  A    between atoms: C_11  and  C_12
REMARK                            x       y       z     vdW  Elec       q    Type
REMARK                         _______ _______ _______ _____ _____    ______ ____
ROOT
ATOM      1  C   UNL     1      47.824   7.836  13.545  0.00  0.00    +0.000 C 
ENDROOT
BRANCH   1   2
ATOM      2  C   UNL     1      46.802   7.122  12.690  0.00  0.00    +0.000 A 
ATOM      3  C   UNL     1      45.766   7.842  12.106  0.00  0.00    +0.000 A 
ATOM      4  C   UNL     1      44.844   7.178  11.298  0.00  0.00    +0.000 A 
ATOM      5  C   UNL     1      44.956   5.805  11.095  0.00  0.00    +0.000 A 
ATOM      6  C   UNL     1      45.997   5.159  11.750  0.00  0.00    +0.000 A 
ATOM      7  N   UNL     1      46.925   5.779  12.527  0.00  0.00    +0.000 NA
BRANCH   5   8
ATOM      8  O   UNL     1      44.104   5.043  10.338  0.00  0.00    +0.000 OA
BRANCH   8   9
ATOM      9  C   UNL     1      44.623   3.756   9.965  0.00  0.00    +0.000 C 
BRANCH   9  10
ATOM     10  C   UNL     1      44.582   3.578   8.443  0.00  0.00    +0.000 C 
BRANCH  10  11
ATOM     11  C   UNL     1      45.768   2.797   7.919  0.00  0.00    +0.000 A 
ATOM     12  C   UNL     1      46.749   3.440   7.157  0.00  0.00    +0.000 A 
ATOM     13  C   UNL     1      47.826   2.703   6.686  0.00  0.00    +0.000 A 
ATOM     14  N   UNL     1      47.988   1.383   6.910  0.00  0.00    +0.000 NA
ATOM     15  C   UNL     1      47.030   0.773   7.643  0.00  0.00    +0.000 A 
ATOM     16  C   UNL     1      45.917   1.426   8.157  0.00  0.00    +0.000 A 
ENDBRANCH  10  11
ENDBRANCH   9  10
ENDBRANCH   8   9
ENDBRANCH   5   8
ENDBRANCH   1   2
BRANCH   1  19
ATOM     17  O   UNL     1      50.173   7.258  14.976  0.00  0.00    +0.000 OA
ATOM     18  C   UNL     1      49.085   7.087  15.524  0.00  0.00    +0.000 C 
ATOM     19  N   UNL     1      47.893   7.306  14.885  0.00  0.00    +0.000 N 
ATOM     20  H   UNL     1      47.049   7.430  15.431  0.00  0.00    +0.000 HD
BRANCH  18  21
ATOM     21  C   UNL     1      48.986   6.584  16.895  0.00  0.00    +0.000 A 
ATOM     22  C   UNL     1      49.409   5.306  17.224  0.00  0.00    +0.000 A 
ATOM     23  S   UNL     1      49.199   4.931  18.878  0.00  0.00    +0.000 S 
ATOM     24  C   UNL     1      48.560   6.473  19.203  0.00  0.00    +0.000 A 
ATOM     25  N   UNL     1      48.183   6.837  20.456  0.00  0.00    +0.000 NA
ATOM     26  C   UNL     1      47.746   8.048  20.559  0.00  0.00    +0.000 A 
ATOM     27  N   UNL     1      47.645   8.933  19.519  0.00  0.00    +0.000 N 
ATOM     28  C   UNL     1      47.955   8.593  18.226  0.00  0.00    +0.000 A 
ATOM     29  O   UNL     1      47.735   9.374  17.302  0.00  0.00    +0.000 OA
ATOM     30  C   UNL     1      48.487   7.255  18.064  0.00  0.00    +0.000 A 
ATOM     31  H   UNL     1      47.259   9.855  19.642  0.00  0.00    +0.000 HD
ENDBRANCH  18  21
ENDBRANCH   1  19
TORSDOF 7
ENDMDL
MODEL 4
REMARK VINA RESULT:    -7.083      2.874      8.132
REMARK INTER + INTRA:         -10.867
REMARK INTER:                  -9.472
REMARK INTRA:                  -1.395
REMARK UNBOUND:                -0.886
REMARK  Name = 
REMARK  7 active torsions:
REMARK  status: ('A' for Active; 'I' for Inactive)
REMARK    1  A    between atoms: C_2  and  C_20
REMARK    2  A    between atoms: N_3  and  C_4
REMARK    3  A    between atoms: C_4  and  C_5
REMARK    4  A    between atoms: C_8  and  O_9
REMARK    5  A    between atoms: O_9  and  C_10
REMARK    6  A    between atoms: C_10  and  C_11
REMARK    7  A    between atoms: C_11  and  C_12
REMARK                            x       y       z     vdW  Elec       q    Type
REMARK                         _______ _______ _______ _____ _____    ______ ____
ROOT
ATOM      1  C   UNL     1      47.712   7.773  11.975  0.00  0.00    +0.000 C 
ENDROOT
BRANCH   1   2
ATOM      2  C   UNL     1      48.330   7.919  13.347  0.00  0.00    +0.000 A 
ATOM      3  C   UNL     1      47.771   8.802  14.265  0.00  0.00    +0.000 A 
ATOM      4  C   UNL     1      48.333   8.910  15.537  0.00  0.00    +0.000 A 
ATOM      5  C   UNL     1      49.452   8.151  15.871  0.00  0.00    +0.000 A 
ATOM      6  C   UNL     1      49.968   7.327  14.879  0.00  0.00    +0.000 A 
ATOM      7  N   UNL     1      49.433   7.183  13.637  0.00  0.00    +0.000 NA
BRANCH   5   8
ATOM      8  O   UNL     1      50.099   8.184  17.079  0.00  0.00    +0.000 OA
BRANCH   8   9
ATOM      9  C   UNL     1      50.652   6.925  17.496  0.00  0.00    +0.000 C 
BRANCH   9  10
ATOM     10  C   UNL     1      49.617   6.116  18.285  0.00  0.00    +0.000 C 
BRANCH  10  11
ATOM     11  C   UNL     1      49.195   4.854  17.562  0.00  0.00    +0.000 A 
ATOM     12  C   UNL     1      48.018   4.838  16.809  0.00  0.00    +0.000 A 
ATOM     13  C   UNL     1      47.651   3.668  16.158  0.00  0.00    +0.000 A 
ATOM     14  N   UNL     1      48.363   2.524  16.211  0.00  0.00    +0.000 NA
ATOM     15  C   UNL     1      49.496   2.552  16.949  0.00  0.00    +0.000 A 
ATOM     16  C   UNL     1      49.943   3.673  17.635  0.00  0.00    +0.000 A 
ENDBRANCH  10  11
ENDBRANCH   9  10
ENDBRANCH   8   9
ENDBRANCH   5   8
ENDBRANCH   1   2
BRANCH   1  19
ATOM     17  O   UNL     1      44.909   7.555  11.932  0.00  0.00    +0.000 OA
ATOM     18  C   UNL     1      45.588   6.539  11.785  0.00  0.00    +0.000 C 
ATOM     19  N   UNL     1      46.956   6.552  11.833  0.00  0.00    +0.000 N 
ATOM     20  H   UNL     1      47.478   5.778  11.438  0.00  0.00    +0.000 HD
BRANCH  18  21
ATOM     21  C   UNL     1      44.972   5.225  11.599  0.00  0.00    +0.000 A 
ATOM     22  C   UNL     1      44.272   4.607  12.624  0.00  0.00    +0.000 A 
ATOM     23  S   UNL     1      43.640   3.081  12.185  0.00  0.00    +0.000 S 
ATOM     24  C   UNL     1      44.265   3.215  10.609  0.00  0.00    +0.000 A 
ATOM     25  N   UNL     1      44.068   2.243   9.681  0.00  0.00    +0.000 NA
ATOM     26  C   UNL     1      44.571   2.495   8.518  0.00  0.00    +0.000 A 
ATOM     27  N   UNL     1      45.262   3.633   8.196  0.00  0.00    +0.000 N 
ATOM     28  C   UNL     1      45.540   4.614   9.114  0.00  0.00    +0.000 A 
ATOM     29  O   UNL     1      46.268   5.560   8.821  0.00  0.00    +0.000 OA
ATOM     30  C   UNL     1      44.963   4.395  10.426  0.00  0.00    +0.000 A 
ATOM     31  H   UNL     1      45.672   3.765   7.286  0.00  0.00    +0.000 HD
ENDBRANCH  18  21
ENDBRANCH   1  19
TORSDOF 7
ENDMDL
MODEL 5
REMARK VINA RESULT:    -6.764      1.642      2.275
REMARK INTER + INTRA:         -10.418
REMARK INTER:                  -9.498
REMARK INTRA:                  -0.920
REMARK UNBOUND:                -0.886
REMARK  Name = 
REMARK  7 active torsions:
REMARK  status: ('A' for Active; 'I' for Inactive)
REMARK    1  A    between atoms: C_2  and  C_20
REMARK    2  A    between atoms: N_3  and  C_4
REMARK    3  A    between atoms: C_4  and  C_5
REMARK    4  A    between atoms: C_8  and  O_9
REMARK    5  A    between atoms: O_9  and  C_10
REMARK    6  A    between atoms: C_10  and  C_11
REMARK    7  A    between atoms: C_11  and  C_12
REMARK                            x       y       z     vdW  Elec       q    Type
REMARK                         _______ _______ _______ _____ _____    ______ ____
ROOT
ATOM      1  C   UNL     1      48.181   8.832  14.695  0.00  0.00    +0.000 C 
ENDROOT
BRANCH   1   2
ATOM      2  C   UNL     1      47.343   8.169  13.626  0.00  0.00    +0.000 A 
ATOM      3  C   UNL     1      46.166   8.774  13.196  0.00  0.00    +0.000 A 
ATOM      4  C   UNL     1      45.414   8.166  12.191  0.00  0.00    +0.000 A 
ATOM      5  C   UNL     1      45.834   6.959  11.640  0.00  0.00    +0.000 A 
ATOM      6  C   UNL     1      46.998   6.405  12.158  0.00  0.00    +0.000 A 
ATOM      7  N   UNL     1      47.766   6.981  13.122  0.00  0.00    +0.000 NA
BRANCH   5   8
ATOM      8  O   UNL     1      45.172   6.261  10.662  0.00  0.00    +0.000 OA
BRANCH   8   9
ATOM      9  C   UNL     1      44.944   4.876  10.966  0.00  0.00    +0.000 C 
BRANCH   9  10
ATOM     10  C   UNL     1      44.211   4.184   9.811  0.00  0.00    +0.000 C 
BRANCH  10  11
ATOM     11  C   UNL     1      45.155   3.443   8.888  0.00  0.00    +0.000 A 
ATOM     12  C   UNL     1      45.301   2.057   9.001  0.00  0.00    +0.000 A 
ATOM     13  C   UNL     1      46.174   1.401   8.144  0.00  0.00    +0.000 A 
ATOM     14  N   UNL     1      46.910   2.022   7.200  0.00  0.00    +0.000 NA
ATOM     15  C   UNL     1      46.763   3.363   7.106  0.00  0.00    +0.000 A 
ATOM     16  C   UNL     1      45.915   4.106   7.917  0.00  0.00    +0.000 A 
ENDBRANCH  10  11
ENDBRANCH   9  10
ENDBRANCH   8   9
ENDBRANCH   5   8
ENDBRANCH   1   2
BRANCH   1  19
ATOM     17  O   UNL     1      50.426   8.664  16.378  0.00  0.00    +0.000 OA
ATOM     18  C   UNL     1      49.410   8.038  16.677  0.00  0.00    +0.000 C 
ATOM     19  N   UNL     1      48.288   8.034  15.892  0.00  0.00    +0.000 N 
ATOM     20  H   UNL     1      47.399   7.753  16.291  0.00  0.00    +0.000 HD
BRANCH  18  21
ATOM     21  C   UNL     1      49.347   7.205  17.878  0.00  0.00    +0.000 A 
ATOM     22  C   UNL     1      49.611   7.730  19.132  0.00  0.00    +0.000 A 
ATOM     23  S   UNL     1      49.479   6.579  20.388  0.00  0.00    +0.000 S 
ATOM     24  C   UNL     1      49.043   5.354  19.292  0.00  0.00    +0.000 A 
ATOM     25  N   UNL     1      48.762   4.093  19.711  0.00  0.00    +0.000 NA
ATOM     26  C   UNL     1      48.414   3.276  18.772  0.00  0.00    +0.000 A 
ATOM     27  N   UNL     1      48.326   3.603  17.446  0.00  0.00    +0.000 N 
ATOM     28  C   UNL     1      48.659   4.845  16.966  0.00  0.00    +0.000 A 
ATOM     29  O   UNL     1      48.687   5.065  15.757  0.00  0.00    +0.000 OA
ATOM     30  C   UNL     1      49.020   5.810  17.986  0.00  0.00    +0.000 A 
ATOM     31  H   UNL     1      48.090   2.919  16.745  0.00  0.00    +0.000 HD
ENDBRANCH  18  21
ENDBRANCH   1  19
TORSDOF 7
ENDMDL
MODEL 6
REMARK VINA RESULT:    -6.738      3.868      7.879
REMARK INTER + INTRA:         -10.381
REMARK INTER:                  -8.278
REMARK INTRA:                  -2.103
REMARK UNBOUND:                -0.886
REMARK  Name = 
REMARK  7 active torsions:
REMARK  status: ('A' for Active; 'I' for Inactive)
REMARK    1  A    between atoms: C_2  and  C_20
REMARK    2  A    between atoms: N_3  and  C_4
REMARK    3  A    between atoms: C_4  and  C_5
REMARK    4  A    between atoms: C_8  and  O_9
REMARK    5  A    between atoms: O_9  and  C_10
REMARK    6  A    between atoms: C_10  and  C_11
REMARK    7  A    between atoms: C_11  and  C_12
REMARK                            x       y       z     vdW  Elec       q    Type
REMARK                         _______ _______ _______ _____ _____    ______ ____
ROOT
ATOM      1  C   UNL     1      48.224   9.340  15.067  0.00  0.00    +0.000 C 
ENDROOT
BRANCH   1   2
ATOM      2  C   UNL     1      49.242   8.552  15.859  0.00  0.00    +0.000 A 
ATOM      3  C   UNL     1      49.325   8.721  17.237  0.00  0.00    +0.000 A 
ATOM      4  C   UNL     1      50.251   7.970  17.962  0.00  0.00    +0.000 A 
ATOM      5  C   UNL     1      51.091   7.076  17.304  0.00  0.00    +0.000 A 
ATOM      6  C   UNL     1      50.967   7.002  15.922  0.00  0.00    +0.000 A 
ATOM      7  N   UNL     1      50.062   7.703  15.188  0.00  0.00    +0.000 NA
BRANCH   5   8
ATOM      8  O   UNL     1      52.047   6.298  17.905  0.00  0.00    +0.000 OA
BRANCH   8   9
ATOM      9  C   UNL     1      51.884   4.886  17.703  0.00  0.00    +0.000 C 
BRANCH   9  10
ATOM     10  C   UNL     1      50.859   4.314  18.689  0.00  0.00    +0.000 C 
BRANCH  10  11
ATOM     11  C   UNL     1      49.550   3.952  18.019  0.00  0.00    +0.000 A 
ATOM     12  C   UNL     1      49.478   2.839  17.177  0.00  0.00    +0.000 A 
ATOM     13  C   UNL     1      48.268   2.529  16.573  0.00  0.00    +0.000 A 
ATOM     14  N   UNL     1      47.139   3.248  16.740  0.00  0.00    +0.000 NA
ATOM     15  C   UNL     1      47.225   4.326  17.552  0.00  0.00    +0.000 A 
ATOM     16  C   UNL     1      48.390   4.714  18.200  0.00  0.00    +0.000 A 
ENDBRANCH  10  11
ENDBRANCH   9  10
ENDBRANCH   8   9
ENDBRANCH   5   8
ENDBRANCH   1   2
BRANCH   1  19
ATOM     17  O   UNL     1      48.046   8.772  12.320  0.00  0.00    +0.000 OA
ATOM     18  C   UNL     1      47.246   8.243  13.090  0.00  0.00    +0.000 C 
ATOM     19  N   UNL     1      47.238   8.496  14.436  0.00  0.00    +0.000 N 
ATOM     20  H   UNL     1      46.773   7.850  15.063  0.00  0.00    +0.000 HD
BRANCH  18  21
ATOM     21  C   UNL     1      46.203   7.335  12.610  0.00  0.00    +0.000 A 
ATOM     22  C   UNL     1      45.150   7.796  11.836  0.00  0.00    +0.000 A 
ATOM     23  S   UNL     1      44.052   6.565  11.389  0.00  0.00    +0.000 S 
ATOM     24  C   UNL     1      44.966   5.381  12.197  0.00  0.00    +0.000 A 
ATOM     25  N   UNL     1      44.595   4.074  12.197  0.00  0.00    +0.000 NA
ATOM     26  C   UNL     1      45.403   3.283  12.823  0.00  0.00    +0.000 A 
ATOM     27  N   UNL     1      46.550   3.680  13.457  0.00  0.00    +0.000 N 
ATOM     28  C   UNL     1      46.934   4.995  13.537  0.00  0.00    +0.000 A 
ATOM     29  O   UNL     1      47.902   5.326  14.219  0.00  0.00    +0.000 OA
ATOM     30  C   UNL     1      46.080   5.919  12.817  0.00  0.00    +0.000 A 
ATOM     31  H   UNL     1      47.125   3.031  13.969  0.00  0.00    +0.000 HD
ENDBRANCH  18  21
ENDBRANCH   1  19
TORSDOF 7
ENDMDL
MODEL 7
REMARK VINA RESULT:    -6.374      4.520      7.422
REMARK INTER + INTRA:          -9.867
REMARK INTER:                  -8.918
REMARK INTRA:                  -0.949
REMARK UNBOUND:                -0.886
REMARK  Name = 
REMARK  7 active torsions:
REMARK  status: ('A' for Active; 'I' for Inactive)
REMARK    1  A    between atoms: C_2  and  C_20
REMARK    2  A    between atoms: N_3  and  C_4
REMARK    3  A    between atoms: C_4  and  C_5
REMARK    4  A    between atoms: C_8  and  O_9
REMARK    5  A    between atoms: O_9  and  C_10
REMARK    6  A    between atoms: C_10  and  C_11
REMARK    7  A    between atoms: C_11  and  C_12
REMARK                            x       y       z     vdW  Elec       q    Type
REMARK                         _______ _______ _______ _____ _____    ______ ____
ROOT
ATOM      1  C   UNL     1      46.080   8.168  12.806  0.00  0.00    +0.000 C 
ENDROOT
BRANCH   1   2
ATOM      2  C   UNL     1      47.560   8.381  12.580  0.00  0.00    +0.000 A 
ATOM      3  C   UNL     1      48.346   7.331  12.118  0.00  0.00    +0.000 A 
ATOM      4  C   UNL     1      49.704   7.546  11.887  0.00  0.00    +0.000 A 
ATOM      5  C   UNL     1      50.264   8.796  12.135  0.00  0.00    +0.000 A 
ATOM      6  C   UNL     1      49.414   9.775  12.635  0.00  0.00    +0.000 A 
ATOM      7  N   UNL     1      48.082   9.605  12.850  0.00  0.00    +0.000 NA
BRANCH   5   8
ATOM      8  O   UNL     1      51.585   9.122  11.963  0.00  0.00    +0.000 OA
BRANCH   8   9
ATOM      9  C   UNL     1      52.073   8.953  10.622  0.00  0.00    +0.000 C 
BRANCH   9  10
ATOM     10  C   UNL     1      53.009   7.742  10.537  0.00  0.00    +0.000 C 
BRANCH  10  11
ATOM     11  C   UNL     1      53.099   7.177   9.135  0.00  0.00    +0.000 A 
ATOM     12  C   UNL     1      52.783   7.980   8.035  0.00  0.00    +0.000 A 
ATOM     13  C   UNL     1      52.871   7.438   6.760  0.00  0.00    +0.000 A 
ATOM     14  N   UNL     1      53.239   6.165   6.508  0.00  0.00    +0.000 NA
ATOM     15  C   UNL     1      53.535   5.399   7.582  0.00  0.00    +0.000 A 
ATOM     16  C   UNL     1      53.477   5.851   8.893  0.00  0.00    +0.000 A 
ENDBRANCH  10  11
ENDBRANCH   9  10
ENDBRANCH   8   9
ENDBRANCH   5   8
ENDBRANCH   1   2
BRANCH   1  19
ATOM     17  O   UNL     1      43.891   7.482  11.181  0.00  0.00    +0.000 OA
ATOM     18  C   UNL     1      44.595   6.585  11.642  0.00  0.00    +0.000 C 
ATOM     19  N   UNL     1      45.655   6.830  12.474  0.00  0.00    +0.000 N 
ATOM     20  H   UNL     1      46.365   6.119  12.602  0.00  0.00    +0.000 HD
BRANCH  18  21
ATOM     21  C   UNL     1      44.314   5.174  11.372  0.00  0.00    +0.000 A 
ATOM     22  C   UNL     1      43.519   4.423  12.224  0.00  0.00    +0.000 A 
ATOM     23  S   UNL     1      43.327   2.804  11.715  0.00  0.00    +0.000 S 
ATOM     24  C   UNL     1      44.281   3.068  10.332  0.00  0.00    +0.000 A 
ATOM     25  N   UNL     1      44.512   2.080   9.429  0.00  0.00    +0.000 NA
ATOM     26  C   UNL     1      45.226   2.433   8.411  0.00  0.00    +0.000 A 
ATOM     27  N   UNL     1      45.738   3.688   8.215  0.00  0.00    +0.000 N 
ATOM     28  C   UNL     1      45.584   4.701   9.128  0.00  0.00    +0.000 A 
ATOM     29  O   UNL     1      46.162   5.776   8.977  0.00  0.00    +0.000 OA
ATOM     30  C   UNL     1      44.757   4.365  10.270  0.00  0.00    +0.000 A 
ATOM     31  H   UNL     1      46.325   3.904   7.426  0.00  0.00    +0.000 HD
ENDBRANCH  18  21
ENDBRANCH   1  19
TORSDOF 7
ENDMDL
MODEL 8
REMARK VINA RESULT:    -6.058      3.813      8.953
REMARK INTER + INTRA:          -9.422
REMARK INTER:                  -8.208
REMARK INTRA:                  -1.214
REMARK UNBOUND:                -0.886
REMARK  Name = 
REMARK  7 active torsions:
REMARK  status: ('A' for Active; 'I' for Inactive)
REMARK    1  A    between atoms: C_2  and  C_20
REMARK    2  A    between atoms: N_3  and  C_4
REMARK    3  A    between atoms: C_4  and  C_5
REMARK    4  A    between atoms: C_8  and  O_9
REMARK    5  A    between atoms: O_9  and  C_10
REMARK    6  A    between atoms: C_10  and  C_11
REMARK    7  A    between atoms: C_11  and  C_12
REMARK                            x       y       z     vdW  Elec       q    Type
REMARK                         _______ _______ _______ _____ _____    ______ ____
ROOT
ATOM      1  C   UNL     1      48.468   6.844  14.535  0.00  0.00    +0.000 C 
ENDROOT
BRANCH   1   2
ATOM      2  C   UNL     1      48.580   6.367  15.966  0.00  0.00    +0.000 A 
ATOM      3  C   UNL     1      48.213   5.066  16.290  0.00  0.00    +0.000 A 
ATOM      4  C   UNL     1      48.345   4.628  17.607  0.00  0.00    +0.000 A 
ATOM      5  C   UNL     1      48.823   5.495  18.586  0.00  0.00    +0.000 A 
ATOM      6  C   UNL     1      49.126   6.790  18.181  0.00  0.00    +0.000 A 
ATOM      7  N   UNL     1      49.029   7.242  16.902  0.00  0.00    +0.000 NA
BRANCH   5   8
ATOM      8  O   UNL     1      48.980   5.185  19.912  0.00  0.00    +0.000 OA
BRANCH   8   9
ATOM      9  C   UNL     1      50.115   5.801  20.540  0.00  0.00    +0.000 C 
BRANCH   9  10
ATOM     10  C   UNL     1      51.241   4.781  20.740  0.00  0.00    +0.000 C 
BRANCH  10  11
ATOM     11  C   UNL     1      52.212   4.755  19.577  0.00  0.00    +0.000 A 
ATOM     12  C   UNL     1      52.560   5.943  18.928  0.00  0.00    +0.000 A 
ATOM     13  C   UNL     1      53.449   5.894  17.864  0.00  0.00    +0.000 A 
ATOM     14  N   UNL     1      54.003   4.754  17.401  0.00  0.00    +0.000 NA
ATOM     15  C   UNL     1      53.653   3.612  18.034  0.00  0.00    +0.000 A 
ATOM     16  C   UNL     1      52.772   3.562  19.107  0.00  0.00    +0.000 A 
ENDBRANCH  10  11
ENDBRANCH   9  10
ENDBRANCH   8   9
ENDBRANCH   5   8
ENDBRANCH   1   2
BRANCH   1  19
ATOM     17  O   UNL     1      47.840   6.975  11.798  0.00  0.00    +0.000 OA
ATOM     18  C   UNL     1      46.984   6.575  12.587  0.00  0.00    +0.000 C 
ATOM     19  N   UNL     1      47.195   6.518  13.939  0.00  0.00    +0.000 N 
ATOM     20  H   UNL     1      46.598   5.936  14.515  0.00  0.00    +0.000 HD
BRANCH  18  21
ATOM     21  C   UNL     1      45.650   6.176  12.136  0.00  0.00    +0.000 A 
ATOM     22  C   UNL     1      44.780   7.093  11.569  0.00  0.00    +0.000 A 
ATOM     23  S   UNL     1      43.280   6.409  11.117  0.00  0.00    +0.000 S 
ATOM     24  C   UNL     1      43.762   4.867  11.646  0.00  0.00    +0.000 A 
ATOM     25  N   UNL     1      42.945   3.788  11.532  0.00  0.00    +0.000 NA
ATOM     26  C   UNL     1      43.456   2.676  11.946  0.00  0.00    +0.000 A 
ATOM     27  N   UNL     1      44.713   2.542  12.471  0.00  0.00    +0.000 N 
ATOM     28  C   UNL     1      45.552   3.610  12.663  0.00  0.00    +0.000 A 
ATOM     29  O   UNL     1      46.624   3.470  13.251  0.00  0.00    +0.000 OA
ATOM     30  C   UNL     1      45.039   4.877  12.180  0.00  0.00    +0.000 A 
ATOM     31  H   UNL     1      45.052   1.659  12.818  0.00  0.00    +0.000 HD
ENDBRANCH  18  21
ENDBRANCH   1  19
TORSDOF 7
ENDMDL
MODEL 9
REMARK VINA RESULT:    -5.988      3.320      5.101
REMARK INTER + INTRA:          -9.323
REMARK INTER:                  -8.301
REMARK INTRA:                  -1.022
REMARK UNBOUND:                -0.886
REMARK  Name = 
REMARK  7 active torsions:
REMARK  status: ('A' for Active; 'I' for Inactive)
REMARK    1  A    between atoms: C_2  and  C_20
REMARK    2  A    between atoms: N_3  and  C_4
REMARK    3  A    between atoms: C_4  and  C_5
REMARK    4  A    between atoms: C_8  and  O_9
REMARK    5  A    between atoms: O_9  and  C_10
REMARK    6  A    between atoms: C_10  and  C_11
REMARK    7  A    between atoms: C_11  and  C_12
REMARK                            x       y       z     vdW  Elec       q    Type
REMARK                         _______ _______ _______ _____ _____    ______ ____
ROOT
ATOM      1  C   UNL     1      49.049   7.161  17.308  0.00  0.00    +0.000 C 
ENDROOT
BRANCH   1   2
ATOM      2  C   UNL     1      48.702   7.356  15.849  0.00  0.00    +0.000 A 
ATOM      3  C   UNL     1      48.247   8.593  15.407  0.00  0.00    +0.000 A 
ATOM      4  C   UNL     1      47.954   8.769  14.055  0.00  0.00    +0.000 A 
ATOM      5  C   UNL     1      48.102   7.708  13.166  0.00  0.00    +0.000 A 
ATOM      6  C   UNL     1      48.522   6.496  13.701  0.00  0.00    +0.000 A 
ATOM      7  N   UNL     1      48.836   6.297  15.010  0.00  0.00    +0.000 NA
BRANCH   5   8
ATOM      8  O   UNL     1      47.831   7.755  11.822  0.00  0.00    +0.000 OA
BRANCH   8   9
ATOM      9  C   UNL     1      47.023   6.672  11.337  0.00  0.00    +0.000 C 
BRANCH   9  10
ATOM     10  C   UNL     1      45.543   6.922  11.645  0.00  0.00    +0.000 C 
BRANCH  10  11
ATOM     11  C   UNL     1      44.716   5.655  11.587  0.00  0.00    +0.000 A 
ATOM     12  C   UNL     1      44.740   4.855  10.440  0.00  0.00    +0.000 A 
ATOM     13  C   UNL     1      43.972   3.700  10.409  0.00  0.00    +0.000 A 
ATOM     14  N   UNL     1      43.184   3.294  11.426  0.00  0.00    +0.000 NA
ATOM     15  C   UNL     1      43.166   4.080  12.526  0.00  0.00    +0.000 A 
ATOM     16  C   UNL     1      43.899   5.253  12.649  0.00  0.00    +0.000 A 
ENDBRANCH  10  11
ENDBRANCH   9  10
ENDBRANCH   8   9
ENDBRANCH   5   8
ENDBRANCH   1   2
BRANCH   1  19
ATOM     17  O   UNL     1      49.970   6.182  19.777  0.00  0.00    +0.000 OA
ATOM     18  C   UNL     1      50.495   5.775  18.741  0.00  0.00    +0.000 C 
ATOM     19  N   UNL     1      50.134   6.230  17.501  0.00  0.00    +0.000 N 
ATOM     20  H   UNL     1      50.373   5.687  16.680  0.00  0.00    +0.000 HD
BRANCH  18  21
ATOM     21  C   UNL     1      51.589   4.803  18.766  0.00  0.00    +0.000 A 
ATOM     22  C   UNL     1      52.780   5.078  19.418  0.00  0.00    +0.000 A 
ATOM     23  S   UNL     1      53.914   3.804  19.318  0.00  0.00    +0.000 S 
ATOM     24  C   UNL     1      52.837   2.843  18.421  0.00  0.00    +0.000 A 
ATOM     25  N   UNL     1      53.171   1.591  18.014  0.00  0.00    +0.000 NA
ATOM     26  C   UNL     1      52.242   0.965  17.369  0.00  0.00    +0.000 A 
ATOM     27  N   UNL     1      51.005   1.480  17.088  0.00  0.00    +0.000 N 
ATOM     28  C   UNL     1      50.643   2.760  17.423  0.00  0.00    +0.000 A 
ATOM     29  O   UNL     1      49.571   3.229  17.045  0.00  0.00    +0.000 OA
ATOM     30  C   UNL     1      51.638   3.491  18.182  0.00  0.00    +0.000 A 
ATOM     31  H   UNL     1      50.328   0.968  16.545  0.00  0.00    +0.000 HD
ENDBRANCH  18  21
ENDBRANCH   1  19
TORSDOF 7
ENDMDL
