MODEL 1
REMARK VINA RESULT:    -8.225      0.000      0.000
REMARK INTER + INTRA:         -11.888
REMARK INTER:                 -11.110
REMARK INTRA:                  -0.778
REMARK UNBOUND:                -0.778
REMARK  Name = 
REMARK  7 active torsions:
REMARK  status: ('A' for Active; 'I' for Inactive)
REMARK    1  A    between atoms: C_1  and  C_2
REMARK    2  A    between atoms: C_2  and  O_3
REMARK    3  A    between atoms: C_2  and  C_25
REMARK    4  A    between atoms: O_3  and  C_4
REMARK    5  A    between atoms: C_7  and  C_8
REMARK    6  A    between atoms: C_8  and  N_9
REMARK    7  A    between atoms: C_10  and  C_12
REMARK                            x       y       z     vdW  Elec       q    Type
REMARK                         _______ _______ _______ _____ _____    ______ ____
ROOT
ATOM      1  N   UNL     1      47.526   7.748  14.469  0.00  0.00    +0.000 N 
ATOM      2  C   UNL     1      48.802   7.241  14.487  0.00  0.00    +0.000 C 
ATOM      3  O   UNL     1      49.541   7.311  13.508  0.00  0.00    +0.000 OA
ATOM      4  H   UNL     1      46.870   7.482  15.198  0.00  0.00    +0.000 HD
ENDROOT
BRANCH   2   5
ATOM      5  C   UNL     1      49.268   6.663  15.754  0.00  0.00    +0.000 A 
ATOM      6  C   UNL     1      50.394   7.189  16.374  0.00  0.00    +0.000 A 
ATOM      7  S   UNL     1      50.776   6.430  17.853  0.00  0.00    +0.000 S 
ATOM      8  C   UNL     1      49.490   5.330  17.684  0.00  0.00    +0.000 A 
ATOM      9  N   UNL     1      49.282   4.351  18.603  0.00  0.00    +0.000 NA
ATOM     10  C   UNL     1      48.309   3.535  18.333  0.00  0.00    +0.000 A 
ATOM     11  N   UNL     1      48.035   2.497  19.160  0.00  0.00    +0.000 N 
ATOM     12  N   UNL     1      47.512   3.663  17.229  0.00  0.00    +0.000 N 
ATOM     13  C   UNL     1      47.659   4.653  16.286  0.00  0.00    +0.000 A 
ATOM     14  O   UNL     1      46.899   4.743  15.326  0.00  0.00    +0.000 OA
ATOM     15  C   UNL     1      48.762   5.557  16.533  0.00  0.00    +0.000 A 
ATOM     16  H   UNL     1      48.483   2.573  20.068  0.00  0.00    +0.000 HD
ATOM     17  H   UNL     1      47.097   2.123  19.192  0.00  0.00    +0.000 HD
ATOM     18  H   UNL     1      46.778   2.998  17.055  0.00  0.00    +0.000 HD
ENDBRANCH   2   5
BRANCH   1  19
ATOM     19  C   UNL     1      46.984   8.325  13.266  0.00  0.00    +0.000 C 
BRANCH  19  23
ATOM     20  C   UNL     1      44.737   5.501  10.875  0.00  0.00    +0.000 A 
ATOM     21  C   UNL     1      44.210   5.993  12.070  0.00  0.00    +0.000 A 
ATOM     22  C   UNL     1      44.937   6.898  12.853  0.00  0.00    +0.000 A 
ATOM     23  C   UNL     1      46.212   7.316  12.455  0.00  0.00    +0.000 A 
ATOM     24  C   UNL     1      46.761   6.767  11.290  0.00  0.00    +0.000 A 
ATOM     25  C   UNL     1      46.030   5.866  10.504  0.00  0.00    +0.000 A 
BRANCH  20  26
ATOM     26  O   UNL     1      43.912   4.663  10.173  0.00  0.00    +0.000 OA
BRANCH  26  28
ATOM     27  C   UNL     1      44.969   2.858  11.448  0.00  0.00    +0.000 C 
ATOM     28  C   UNL     1      44.206   3.254  10.180  0.00  0.00    +0.000 C 
BRANCH  28  29
ATOM     29  C   UNL     1      45.068   2.885   8.973  0.00  0.00    +0.000 A 
ATOM     30  C   UNL     1      45.339   3.805   7.960  0.00  0.00    +0.000 A 
ATOM     31  C   UNL     1      46.197   3.436   6.923  0.00  0.00    +0.000 A 
ATOM     32  C   UNL     1      46.769   2.170   6.927  0.00  0.00    +0.000 A 
ATOM     33  C   UNL     1      46.453   1.315   7.966  0.00  0.00    +0.000 A 
ATOM     34  N   UNL     1      45.623   1.642   8.985  0.00  0.00    +0.000 NA
ENDBRANCH  28  29
ENDBRANCH  26  28
ENDBRANCH  20  26
ENDBRANCH  19  23
ENDBRANCH   1  19
TORSDOF 6
ENDMDL
MODEL 2
REMARK VINA RESULT:    -8.134      2.612      3.107
REMARK INTER + INTRA:         -11.764
REMARK INTER:                 -10.721
REMARK INTRA:                  -1.043
REMARK UNBOUND:                -0.778
REMARK  Name = 
REMARK  7 active torsions:
REMARK  status: ('A' for Active; 'I' for Inactive)
REMARK    1  A    between atoms: C_1  and  C_2
REMARK    2  A    between atoms: C_2  and  O_3
REMARK    3  A    between atoms: C_2  and  C_25
REMARK    4  A    between atoms: O_3  and  C_4
REMARK    5  A    between atoms: C_7  and  C_8
REMARK    6  A    between atoms: C_8  and  N_9
REMARK    7  A    between atoms: C_10  and  C_12
REMARK                            x       y       z     vdW  Elec       q    Type
REMARK                         _______ _______ _______ _____ _____    ______ ____
ROOT
ATOM      1  N   UNL     1      50.018   6.370  15.852  0.00  0.00    +0.000 N 
ATOM      2  C   UNL     1      50.002   5.950  17.160  0.00  0.00    +0.000 C 
ATOM      3  O   UNL     1      49.057   6.194  17.908  0.00  0.00    +0.000 OA
ATOM      4  H   UNL     1      50.889   6.354  15.331  0.00  0.00    +0.000 HD
ENDROOT
BRANCH   2   5
ATOM      5  C   UNL     1      51.141   5.140  17.610  0.00  0.00    +0.000 A 
ATOM      6  C   UNL     1      52.302   5.770  18.040  0.00  0.00    +0.000 A 
ATOM      7  S   UNL     1      53.511   4.687  18.564  0.00  0.00    +0.000 S 
ATOM      8  C   UNL     1      52.550   3.339  18.175  0.00  0.00    +0.000 A 
ATOM      9  N   UNL     1      53.022   2.074  18.333  0.00  0.00    +0.000 NA
ATOM     10  C   UNL     1      52.221   1.131  17.942  0.00  0.00    +0.000 A 
ATOM     11  N   UNL     1      52.601  -0.168  18.019  0.00  0.00    +0.000 N 
ATOM     12  N   UNL     1      50.970   1.372  17.445  0.00  0.00    +0.000 N 
ATOM     13  C   UNL     1      50.432   2.628  17.294  0.00  0.00    +0.000 A 
ATOM     14  O   UNL     1      49.292   2.792  16.869  0.00  0.00    +0.000 OA
ATOM     15  C   UNL     1      51.315   3.708  17.680  0.00  0.00    +0.000 A 
ATOM     16  H   UNL     1      53.421  -0.316  18.599  0.00  0.00    +0.000 HD
ATOM     17  H   UNL     1      51.897  -0.887  18.105  0.00  0.00    +0.000 HD
ATOM     18  H   UNL     1      50.389   0.608  17.143  0.00  0.00    +0.000 HD
ENDBRANCH   2   5
BRANCH   1  19
ATOM     19  C   UNL     1      48.945   7.177  15.329  0.00  0.00    +0.000 C 
BRANCH  19  23
ATOM     20  C   UNL     1      46.190   4.935  12.855  0.00  0.00    +0.000 A 
ATOM     21  C   UNL     1      46.637   4.412  14.068  0.00  0.00    +0.000 A 
ATOM     22  C   UNL     1      47.536   5.127  14.867  0.00  0.00    +0.000 A 
ATOM     23  C   UNL     1      48.013   6.377  14.455  0.00  0.00    +0.000 A 
ATOM     24  C   UNL     1      47.612   6.866  13.206  0.00  0.00    +0.000 A 
ATOM     25  C   UNL     1      46.707   6.151  12.410  0.00  0.00    +0.000 A 
BRANCH  20  26
ATOM     26  O   UNL     1      45.274   4.167  12.187  0.00  0.00    +0.000 OA
BRANCH  26  28
ATOM     27  C   UNL     1      43.129   4.593  11.084  0.00  0.00    +0.000 C 
ATOM     28  C   UNL     1      44.655   4.713  11.008  0.00  0.00    +0.000 C 
BRANCH  28  29
ATOM     29  C   UNL     1      45.128   3.962   9.763  0.00  0.00    +0.000 A 
ATOM     30  C   UNL     1      45.742   4.626   8.701  0.00  0.00    +0.000 A 
ATOM     31  C   UNL     1      46.224   3.878   7.625  0.00  0.00    +0.000 A 
ATOM     32  C   UNL     1      46.091   2.496   7.639  0.00  0.00    +0.000 A 
ATOM     33  C   UNL     1      45.471   1.912   8.729  0.00  0.00    +0.000 A 
ATOM     34  N   UNL     1      44.992   2.608   9.786  0.00  0.00    +0.000 NA
ENDBRANCH  28  29
ENDBRANCH  26  28
ENDBRANCH  20  26
ENDBRANCH  19  23
ENDBRANCH   1  19
TORSDOF 6
ENDMDL
MODEL 3
REMARK VINA RESULT:    -7.792      4.639      9.188
REMARK INTER + INTRA:         -11.302
REMARK INTER:                 -10.363
REMARK INTRA:                  -0.939
REMARK UNBOUND:                -0.778
REMARK  Name = 
REMARK  7 active torsions:
REMARK  status: ('A' for Active; 'I' for Inactive)
REMARK    1  A    between atoms: C_1  and  C_2
REMARK    2  A    between atoms: C_2  and  O_3
REMARK    3  A    between atoms: C_2  and  C_25
REMARK    4  A    between atoms: O_3  and  C_4
REMARK    5  A    between atoms: C_7  and  C_8
REMARK    6  A    between atoms: C_8  and  N_9
REMARK    7  A    between atoms: C_10  and  C_12
REMARK                            x       y       z     vdW  Elec       q    Type
REMARK                         _______ _______ _______ _____ _____    ______ ____
ROOT
ATOM      1  N   UNL     1      47.089   4.441  16.054  0.00  0.00    +0.000 N 
ATOM      2  C   UNL     1      47.145   4.199  14.703  0.00  0.00    +0.000 C 
ATOM      3  O   UNL     1      47.379   3.079  14.254  0.00  0.00    +0.000 OA
ATOM      4  H   UNL     1      47.119   5.397  16.394  0.00  0.00    +0.000 HD
ENDROOT
BRANCH   2   5
ATOM      5  C   UNL     1      46.851   5.330  13.814  0.00  0.00    +0.000 A 
ATOM      6  C   UNL     1      47.822   6.299  13.593  0.00  0.00    +0.000 A 
ATOM      7  S   UNL     1      47.333   7.520  12.508  0.00  0.00    +0.000 S 
ATOM      8  C   UNL     1      45.785   6.833  12.346  0.00  0.00    +0.000 A 
ATOM      9  N   UNL     1      44.832   7.429  11.583  0.00  0.00    +0.000 NA
ATOM     10  C   UNL     1      43.673   6.845  11.588  0.00  0.00    +0.000 A 
ATOM     11  N   UNL     1      42.636   7.372  10.891  0.00  0.00    +0.000 N 
ATOM     12  N   UNL     1      43.422   5.688  12.274  0.00  0.00    +0.000 N 
ATOM     13  C   UNL     1      44.359   5.028  13.034  0.00  0.00    +0.000 A 
ATOM     14  O   UNL     1      44.093   3.976  13.608  0.00  0.00    +0.000 OA
ATOM     15  C   UNL     1      45.653   5.674  13.085  0.00  0.00    +0.000 A 
ATOM     16  H   UNL     1      42.917   8.081  10.222  0.00  0.00    +0.000 HD
ATOM     17  H   UNL     1      41.898   6.764  10.566  0.00  0.00    +0.000 HD
ATOM     18  H   UNL     1      42.504   5.279  12.258  0.00  0.00    +0.000 HD
ENDBRANCH   2   5
BRANCH   1  19
ATOM     19  C   UNL     1      47.373   3.391  16.998  0.00  0.00    +0.000 C 
BRANCH  19  23
ATOM     20  C   UNL     1      51.640   3.004  17.615  0.00  0.00    +0.000 A 
ATOM     21  C   UNL     1      50.902   1.941  17.094  0.00  0.00    +0.000 A 
ATOM     22  C   UNL     1      49.520   2.056  16.903  0.00  0.00    +0.000 A 
ATOM     23  C   UNL     1      48.853   3.238  17.243  0.00  0.00    +0.000 A 
ATOM     24  C   UNL     1      49.589   4.276  17.827  0.00  0.00    +0.000 A 
ATOM     25  C   UNL     1      50.974   4.161  18.013  0.00  0.00    +0.000 A 
BRANCH  20  26
ATOM     26  O   UNL     1      52.990   2.789  17.709  0.00  0.00    +0.000 OA
BRANCH  26  28
ATOM     27  C   UNL     1      54.596   2.488  19.533  0.00  0.00    +0.000 C 
ATOM     28  C   UNL     1      53.467   1.867  18.704  0.00  0.00    +0.000 C 
BRANCH  28  29
ATOM     29  C   UNL     1      54.008   0.600  18.041  0.00  0.00    +0.000 A 
ATOM     30  C   UNL     1      54.724   0.652  16.845  0.00  0.00    +0.000 A 
ATOM     31  C   UNL     1      55.261  -0.528  16.327  0.00  0.00    +0.000 A 
ATOM     32  C   UNL     1      55.082  -1.720  17.016  0.00  0.00    +0.000 A 
ATOM     33  C   UNL     1      54.361  -1.690  18.196  0.00  0.00    +0.000 A 
ATOM     34  N   UNL     1      53.826  -0.564  18.723  0.00  0.00    +0.000 NA
ENDBRANCH  28  29
ENDBRANCH  26  28
ENDBRANCH  20  26
ENDBRANCH  19  23
ENDBRANCH   1  19
TORSDOF 6
ENDMDL
MODEL 4
REMARK VINA RESULT:    -7.567      4.765      9.058
REMARK INTER + INTRA:         -10.999
REMARK INTER:                 -10.318
REMARK INTRA:                  -0.681
REMARK UNBOUND:                -0.778
REMARK  Name = 
REMARK  7 active torsions:
REMARK  status: ('A' for Active; 'I' for Inactive)
REMARK    1  A    between atoms: C_1  and  C_2
REMARK    2  A    between atoms: C_2  and  O_3
REMARK    3  A    between atoms: C_2  and  C_25
REMARK    4  A    between atoms: O_3  and  C_4
REMARK    5  A    between atoms: C_7  and  C_8
REMARK    6  A    between atoms: C_8  and  N_9
REMARK    7  A    between atoms: C_10  and  C_12
REMARK                            x       y       z     vdW  Elec       q    Type
REMARK                         _______ _______ _______ _____ _____    ______ ____
ROOT
ATOM      1  N   UNL     1      47.939   5.578  16.290  0.00  0.00    +0.000 N 
ATOM      2  C   UNL     1      48.409   6.133  15.125  0.00  0.00    +0.000 C 
ATOM      3  O   UNL     1      49.554   6.570  15.031  0.00  0.00    +0.000 OA
ATOM      4  H   UNL     1      46.941   5.434  16.410  0.00  0.00    +0.000 HD
ENDROOT
BRANCH   2   5
ATOM      5  C   UNL     1      47.499   6.125  13.973  0.00  0.00    +0.000 A 
ATOM      6  C   UNL     1      47.186   7.322  13.339  0.00  0.00    +0.000 A 
ATOM      7  S   UNL     1      46.150   7.132  11.998  0.00  0.00    +0.000 S 
ATOM      8  C   UNL     1      46.031   5.455  12.257  0.00  0.00    +0.000 A 
ATOM      9  N   UNL     1      45.235   4.682  11.473  0.00  0.00    +0.000 NA
ATOM     10  C   UNL     1      45.178   3.429  11.807  0.00  0.00    +0.000 A 
ATOM     11  N   UNL     1      44.387   2.571  11.118  0.00  0.00    +0.000 N 
ATOM     12  N   UNL     1      45.894   2.899  12.845  0.00  0.00    +0.000 N 
ATOM     13  C   UNL     1      46.737   3.630  13.648  0.00  0.00    +0.000 A 
ATOM     14  O   UNL     1      47.381   3.103  14.550  0.00  0.00    +0.000 OA
ATOM     15  C   UNL     1      46.793   5.042  13.331  0.00  0.00    +0.000 A 
ATOM     16  H   UNL     1      44.063   2.942  10.231  0.00  0.00    +0.000 HD
ATOM     17  H   UNL     1      44.622   1.589  11.096  0.00  0.00    +0.000 HD
ATOM     18  H   UNL     1      45.807   1.924  13.075  0.00  0.00    +0.000 HD
ENDBRANCH   2   5
BRANCH   1  19
ATOM     19  C   UNL     1      48.761   5.551  17.473  0.00  0.00    +0.000 C 
BRANCH  19  23
ATOM     20  C   UNL     1      51.514   2.211  17.374  0.00  0.00    +0.000 A 
ATOM     21  C   UNL     1      50.146   2.006  17.190  0.00  0.00    +0.000 A 
ATOM     22  C   UNL     1      49.250   3.080  17.232  0.00  0.00    +0.000 A 
ATOM     23  C   UNL     1      49.711   4.380  17.472  0.00  0.00    +0.000 A 
ATOM     24  C   UNL     1      51.075   4.569  17.722  0.00  0.00    +0.000 A 
ATOM     25  C   UNL     1      51.972   3.493  17.674  0.00  0.00    +0.000 A 
BRANCH  20  26
ATOM     26  O   UNL     1      52.294   1.091  17.261  0.00  0.00    +0.000 OA
BRANCH  26  28
ATOM     27  C   UNL     1      54.608   1.851  17.522  0.00  0.00    +0.000 C 
ATOM     28  C   UNL     1      53.470   0.993  18.085  0.00  0.00    +0.000 C 
BRANCH  28  29
ATOM     29  C   UNL     1      53.955  -0.455  18.150  0.00  0.00    +0.000 A 
ATOM     30  C   UNL     1      54.674  -1.031  17.103  0.00  0.00    +0.000 A 
ATOM     31  C   UNL     1      55.159  -2.332  17.251  0.00  0.00    +0.000 A 
ATOM     32  C   UNL     1      54.926  -3.017  18.436  0.00  0.00    +0.000 A 
ATOM     33  C   UNL     1      54.206  -2.378  19.429  0.00  0.00    +0.000 A 
ATOM     34  N   UNL     1      53.721  -1.119  19.315  0.00  0.00    +0.000 NA
ENDBRANCH  28  29
ENDBRANCH  26  28
ENDBRANCH  20  26
ENDBRANCH  19  23
ENDBRANCH   1  19
TORSDOF 6
ENDMDL
MODEL 5
REMARK VINA RESULT:    -7.414      2.360      2.955
REMARK INTER + INTRA:         -10.792
REMARK INTER:                  -9.647
REMARK INTRA:                  -1.146
REMARK UNBOUND:                -0.778
REMARK  Name = 
REMARK  7 active torsions:
REMARK  status: ('A' for Active; 'I' for Inactive)
REMARK    1  A    between atoms: C_1  and  C_2
REMARK    2  A    between atoms: C_2  and  O_3
REMARK    3  A    between atoms: C_2  and  C_25
REMARK    4  A    between atoms: O_3  and  C_4
REMARK    5  A    between atoms: C_7  and  C_8
REMARK    6  A    between atoms: C_8  and  N_9
REMARK    7  A    between atoms: C_10  and  C_12
REMARK                            x       y       z     vdW  Elec       q    Type
REMARK                         _______ _______ _______ _____ _____    ______ ____
ROOT
ATOM      1  N   UNL     1      50.524   7.394  14.304  0.00  0.00    +0.000 N 
ATOM      2  C   UNL     1      51.128   7.946  15.407  0.00  0.00    +0.000 C 
ATOM      3  O   UNL     1      50.776   9.032  15.863  0.00  0.00    +0.000 OA
ATOM      4  H   UNL     1      50.973   6.621  13.821  0.00  0.00    +0.000 HD
ENDROOT
BRANCH   2   5
ATOM      5  C   UNL     1      52.176   7.150  16.058  0.00  0.00    +0.000 A 
ATOM      6  C   UNL     1      53.499   7.567  15.983  0.00  0.00    +0.000 A 
ATOM      7  S   UNL     1      54.583   6.554  16.823  0.00  0.00    +0.000 S 
ATOM      8  C   UNL     1      53.332   5.488  17.261  0.00  0.00    +0.000 A 
ATOM      9  N   UNL     1      53.593   4.353  17.962  0.00  0.00    +0.000 NA
ATOM     10  C   UNL     1      52.567   3.589  18.182  0.00  0.00    +0.000 A 
ATOM     11  N   UNL     1      52.717   2.413  18.839  0.00  0.00    +0.000 N 
ATOM     12  N   UNL     1      51.299   3.908  17.782  0.00  0.00    +0.000 N 
ATOM     13  C   UNL     1      50.975   5.057  17.100  0.00  0.00    +0.000 A 
ATOM     14  O   UNL     1      49.816   5.313  16.788  0.00  0.00    +0.000 OA
ATOM     15  C   UNL     1      52.102   5.914  16.799  0.00  0.00    +0.000 A 
ATOM     16  H   UNL     1      53.609   2.326  19.316  0.00  0.00    +0.000 HD
ATOM     17  H   UNL     1      51.935   2.027  19.349  0.00  0.00    +0.000 HD
ATOM     18  H   UNL     1      50.537   3.278  17.964  0.00  0.00    +0.000 HD
ENDBRANCH   2   5
BRANCH   1  19
ATOM     19  C   UNL     1      49.492   8.109  13.598  0.00  0.00    +0.000 C 
BRANCH  19  23
ATOM     20  C   UNL     1      46.238   5.470  12.511  0.00  0.00    +0.000 A 
ATOM     21  C   UNL     1      46.588   6.537  11.685  0.00  0.00    +0.000 A 
ATOM     22  C   UNL     1      47.632   7.401  12.037  0.00  0.00    +0.000 A 
ATOM     23  C   UNL     1      48.336   7.214  13.232  0.00  0.00    +0.000 A 
ATOM     24  C   UNL     1      47.935   6.181  14.087  0.00  0.00    +0.000 A 
ATOM     25  C   UNL     1      46.894   5.313  13.731  0.00  0.00    +0.000 A 
BRANCH  20  26
ATOM     26  O   UNL     1      45.235   4.666  12.036  0.00  0.00    +0.000 OA
BRANCH  26  28
ATOM     27  C   UNL     1      43.080   4.897  10.897  0.00  0.00    +0.000 C 
ATOM     28  C   UNL     1      44.603   5.025  10.795  0.00  0.00    +0.000 C 
BRANCH  28  29
ATOM     29  C   UNL     1      45.081   4.108   9.669  0.00  0.00    +0.000 A 
ATOM     30  C   UNL     1      45.753   4.609   8.554  0.00  0.00    +0.000 A 
ATOM     31  C   UNL     1      46.234   3.715   7.597  0.00  0.00    +0.000 A 
ATOM     32  C   UNL     1      46.044   2.352   7.779  0.00  0.00    +0.000 A 
ATOM     33  C   UNL     1      45.370   1.932   8.910  0.00  0.00    +0.000 A 
ATOM     34  N   UNL     1      44.889   2.773   9.856  0.00  0.00    +0.000 NA
ENDBRANCH  28  29
ENDBRANCH  26  28
ENDBRANCH  20  26
ENDBRANCH  19  23
ENDBRANCH   1  19
TORSDOF 6
ENDMDL
MODEL 6
REMARK VINA RESULT:    -7.293      1.859      2.806
REMARK INTER + INTRA:         -10.629
REMARK INTER:                 -10.137
REMARK INTRA:                  -0.492
REMARK UNBOUND:                -0.778
REMARK  Name = 
REMARK  7 active torsions:
REMARK  status: ('A' for Active; 'I' for Inactive)
REMARK    1  A    between atoms: C_1  and  C_2
REMARK    2  A    between atoms: C_2  and  O_3
REMARK    3  A    between atoms: C_2  and  C_25
REMARK    4  A    between atoms: O_3  and  C_4
REMARK    5  A    between atoms: C_7  and  C_8
REMARK    6  A    between atoms: C_8  and  N_9
REMARK    7  A    between atoms: C_10  and  C_12
REMARK                            x       y       z     vdW  Elec       q    Type
REMARK                         _______ _______ _______ _____ _____    ______ ____
ROOT
ATOM      1  N   UNL     1      47.855   6.863  14.417  0.00  0.00    +0.000 N 
ATOM      2  C   UNL     1      48.553   7.374  15.483  0.00  0.00    +0.000 C 
ATOM      3  O   UNL     1      48.536   8.572  15.756  0.00  0.00    +0.000 OA
ATOM      4  H   UNL     1      48.062   5.926  14.084  0.00  0.00    +0.000 HD
ENDROOT
BRANCH   2   5
ATOM      5  C   UNL     1      49.277   6.411  16.324  0.00  0.00    +0.000 A 
ATOM      6  C   UNL     1      48.562   5.521  17.117  0.00  0.00    +0.000 A 
ATOM      7  S   UNL     1      49.552   4.449  18.000  0.00  0.00    +0.000 S 
ATOM      8  C   UNL     1      50.968   5.178  17.405  0.00  0.00    +0.000 A 
ATOM      9  N   UNL     1      52.195   4.763  17.817  0.00  0.00    +0.000 NA
ATOM     10  C   UNL     1      53.197   5.438  17.342  0.00  0.00    +0.000 A 
ATOM     11  N   UNL     1      54.465   5.136  17.714  0.00  0.00    +0.000 N 
ATOM     12  N   UNL     1      53.050   6.469  16.455  0.00  0.00    +0.000 N 
ATOM     13  C   UNL     1      51.836   6.907  15.982  0.00  0.00    +0.000 A 
ATOM     14  O   UNL     1      51.757   7.818  15.163  0.00  0.00    +0.000 OA
ATOM     15  C   UNL     1      50.692   6.205  16.523  0.00  0.00    +0.000 A 
ATOM     16  H   UNL     1      54.548   4.236  18.176  0.00  0.00    +0.000 HD
ATOM     17  H   UNL     1      55.229   5.354  17.090  0.00  0.00    +0.000 HD
ATOM     18  H   UNL     1      53.856   6.971  16.124  0.00  0.00    +0.000 HD
ENDBRANCH   2   5
BRANCH   1  19
ATOM     19  C   UNL     1      47.124   7.736  13.534  0.00  0.00    +0.000 C 
BRANCH  19  23
ATOM     20  C   UNL     1      44.704   5.436  10.779  0.00  0.00    +0.000 A 
ATOM     21  C   UNL     1      45.974   5.877  10.406  0.00  0.00    +0.000 A 
ATOM     22  C   UNL     1      46.757   6.630  11.288  0.00  0.00    +0.000 A 
ATOM     23  C   UNL     1      46.272   6.965  12.558  0.00  0.00    +0.000 A 
ATOM     24  C   UNL     1      44.971   6.576  12.900  0.00  0.00    +0.000 A 
ATOM     25  C   UNL     1      44.191   5.817  12.018  0.00  0.00    +0.000 A 
BRANCH  20  26
ATOM     26  O   UNL     1      44.055   4.666   9.850  0.00  0.00    +0.000 OA
BRANCH  26  28
ATOM     27  C   UNL     1      44.910   2.812  11.204  0.00  0.00    +0.000 C 
ATOM     28  C   UNL     1      44.253   3.241   9.888  0.00  0.00    +0.000 C 
BRANCH  28  29
ATOM     29  C   UNL     1      45.161   2.799   8.739  0.00  0.00    +0.000 A 
ATOM     30  C   UNL     1      45.503   3.669   7.704  0.00  0.00    +0.000 A 
ATOM     31  C   UNL     1      46.398   3.235   6.725  0.00  0.00    +0.000 A 
ATOM     32  C   UNL     1      46.934   1.956   6.807  0.00  0.00    +0.000 A 
ATOM     33  C   UNL     1      46.547   1.154   7.865  0.00  0.00    +0.000 A 
ATOM     34  N   UNL     1      45.680   1.544   8.829  0.00  0.00    +0.000 NA
ENDBRANCH  28  29
ENDBRANCH  26  28
ENDBRANCH  20  26
ENDBRANCH  19  23
ENDBRANCH   1  19
TORSDOF 6
ENDMDL
MODEL 7
REMARK VINA RESULT:    -7.211      2.829      3.589
REMARK INTER + INTRA:         -10.518
REMARK INTER:                 -10.402
REMARK INTRA:                  -0.115
REMARK UNBOUND:                -0.778
REMARK  Name = 
REMARK  7 active torsions:
REMARK  status: ('A' for Active; 'I' for Inactive)
REMARK    1  A    between atoms: C_1  and  C_2
REMARK    2  A    between atoms: C_2  and  O_3
REMARK    3  A    between atoms: C_2  and  C_25
REMARK    4  A    between atoms: O_3  and  C_4
REMARK    5  A    between atoms: C_7  and  C_8
REMARK    6  A    between atoms: C_8  and  N_9
REMARK    7  A    between atoms: C_10  and  C_12
REMARK                            x       y       z     vdW  Elec       q    Type
REMARK                         _______ _______ _______ _____ _____    ______ ____
ROOT
ATOM      1  N   UNL     1      48.150   6.660  15.535  0.00  0.00    +0.000 N 
ATOM      2  C   UNL     1      48.631   5.928  16.593  0.00  0.00    +0.000 C 
ATOM      3  O   UNL     1      49.403   4.986  16.432  0.00  0.00    +0.000 OA
ATOM      4  H   UNL     1      47.354   7.276  15.672  0.00  0.00    +0.000 HD
ENDROOT
BRANCH   2   5
ATOM      5  C   UNL     1      48.229   6.363  17.937  0.00  0.00    +0.000 A 
ATOM      6  C   UNL     1      47.950   5.410  18.910  0.00  0.00    +0.000 A 
ATOM      7  S   UNL     1      47.537   6.081  20.422  0.00  0.00    +0.000 S 
ATOM      8  C   UNL     1      47.653   7.665  19.813  0.00  0.00    +0.000 A 
ATOM      9  N   UNL     1      47.365   8.738  20.596  0.00  0.00    +0.000 NA
ATOM     10  C   UNL     1      47.428   9.890  20.001  0.00  0.00    +0.000 A 
ATOM     11  N   UNL     1      47.125  11.027  20.675  0.00  0.00    +0.000 N 
ATOM     12  N   UNL     1      47.798  10.037  18.693  0.00  0.00    +0.000 N 
ATOM     13  C   UNL     1      48.130   8.989  17.867  0.00  0.00    +0.000 A 
ATOM     14  O   UNL     1      48.484   9.173  16.706  0.00  0.00    +0.000 OA
ATOM     15  C   UNL     1      48.030   7.683  18.485  0.00  0.00    +0.000 A 
ATOM     16  H   UNL     1      47.087  10.903  21.682  0.00  0.00    +0.000 HD
ATOM     17  H   UNL     1      47.535  11.902  20.380  0.00  0.00    +0.000 HD
ATOM     18  H   UNL     1      47.820  10.950  18.272  0.00  0.00    +0.000 HD
ENDBRANCH   2   5
BRANCH   1  19
ATOM     19  C   UNL     1      48.486   6.299  14.182  0.00  0.00    +0.000 C 
BRANCH  19  23
ATOM     20  C   UNL     1      45.002   5.557  11.722  0.00  0.00    +0.000 A 
ATOM     21  C   UNL     1      45.969   6.478  11.319  0.00  0.00    +0.000 A 
ATOM     22  C   UNL     1      47.092   6.731  12.115  0.00  0.00    +0.000 A 
ATOM     23  C   UNL     1      47.258   6.070  13.338  0.00  0.00    +0.000 A 
ATOM     24  C   UNL     1      46.251   5.197  13.767  0.00  0.00    +0.000 A 
ATOM     25  C   UNL     1      45.130   4.941  12.966  0.00  0.00    +0.000 A 
BRANCH  20  26
ATOM     26  O   UNL     1      43.976   5.359  10.837  0.00  0.00    +0.000 OA
BRANCH  26  28
ATOM     27  C   UNL     1      43.685   3.061  11.633  0.00  0.00    +0.000 C 
ATOM     28  C   UNL     1      43.676   4.011  10.431  0.00  0.00    +0.000 C 
BRANCH  28  29
ATOM     29  C   UNL     1      44.715   3.513   9.426  0.00  0.00    +0.000 A 
ATOM     30  C   UNL     1      45.093   2.172   9.371  0.00  0.00    +0.000 A 
ATOM     31  C   UNL     1      45.987   1.762   8.381  0.00  0.00    +0.000 A 
ATOM     32  C   UNL     1      46.471   2.691   7.470  0.00  0.00    +0.000 A 
ATOM     33  C   UNL     1      46.048   4.002   7.589  0.00  0.00    +0.000 A 
ATOM     34  N   UNL     1      45.184   4.432   8.538  0.00  0.00    +0.000 NA
ENDBRANCH  28  29
ENDBRANCH  26  28
ENDBRANCH  20  26
ENDBRANCH  19  23
ENDBRANCH   1  19
TORSDOF 6
ENDMDL
MODEL 8
REMARK VINA RESULT:    -7.077      3.321      7.830
REMARK INTER + INTRA:         -10.337
REMARK INTER:                  -8.904
REMARK INTRA:                  -1.433
REMARK UNBOUND:                -0.778
REMARK  Name = 
REMARK  7 active torsions:
REMARK  status: ('A' for Active; 'I' for Inactive)
REMARK    1  A    between atoms: C_1  and  C_2
REMARK    2  A    between atoms: C_2  and  O_3
REMARK    3  A    between atoms: C_2  and  C_25
REMARK    4  A    between atoms: O_3  and  C_4
REMARK    5  A    between atoms: C_7  and  C_8
REMARK    6  A    between atoms: C_8  and  N_9
REMARK    7  A    between atoms: C_10  and  C_12
REMARK                            x       y       z     vdW  Elec       q    Type
REMARK                         _______ _______ _______ _____ _____    ______ ____
ROOT
ATOM      1  N   UNL     1      47.106   8.530  14.116  0.00  0.00    +0.000 N 
ATOM      2  C   UNL     1      47.200   7.914  12.893  0.00  0.00    +0.000 C 
ATOM      3  O   UNL     1      48.250   7.894  12.255  0.00  0.00    +0.000 OA
ATOM      4  H   UNL     1      46.191   8.726  14.511  0.00  0.00    +0.000 HD
ENDROOT
BRANCH   2   5
ATOM      5  C   UNL     1      45.999   7.222  12.406  0.00  0.00    +0.000 A 
ATOM      6  C   UNL     1      45.000   7.949  11.770  0.00  0.00    +0.000 A 
ATOM      7  S   UNL     1      43.696   6.991  11.233  0.00  0.00    +0.000 S 
ATOM      8  C   UNL     1      44.389   5.582  11.887  0.00  0.00    +0.000 A 
ATOM      9  N   UNL     1      43.743   4.388  11.820  0.00  0.00    +0.000 NA
ATOM     10  C   UNL     1      44.344   3.400  12.410  0.00  0.00    +0.000 A 
ATOM     11  N   UNL     1      43.774   2.171  12.439  0.00  0.00    +0.000 N 
ATOM     12  N   UNL     1      45.560   3.523  13.023  0.00  0.00    +0.000 N 
ATOM     13  C   UNL     1      46.270   4.699  13.091  0.00  0.00    +0.000 A 
ATOM     14  O   UNL     1      47.372   4.752  13.628  0.00  0.00    +0.000 OA
ATOM     15  C   UNL     1      45.611   5.834  12.480  0.00  0.00    +0.000 A 
ATOM     16  H   UNL     1      43.004   2.066  11.785  0.00  0.00    +0.000 HD
ATOM     17  H   UNL     1      44.361   1.354  12.521  0.00  0.00    +0.000 HD
ATOM     18  H   UNL     1      45.980   2.731  13.478  0.00  0.00    +0.000 HD
ENDBRANCH   2   5
BRANCH   1  19
ATOM     19  C   UNL     1      48.233   9.240  14.666  0.00  0.00    +0.000 C 
BRANCH  19  23
ATOM     20  C   UNL     1      50.380   6.978  17.669  0.00  0.00    +0.000 A 
ATOM     21  C   UNL     1      50.676   6.815  16.315  0.00  0.00    +0.000 A 
ATOM     22  C   UNL     1      49.977   7.535  15.339  0.00  0.00    +0.000 A 
ATOM     23  C   UNL     1      48.960   8.424  15.705  0.00  0.00    +0.000 A 
ATOM     24  C   UNL     1      48.624   8.533  17.060  0.00  0.00    +0.000 A 
ATOM     25  C   UNL     1      49.328   7.815  18.037  0.00  0.00    +0.000 A 
BRANCH  20  26
ATOM     26  O   UNL     1      51.164   6.258  18.530  0.00  0.00    +0.000 OA
BRANCH  26  28
ATOM     27  C   UNL     1      51.530   4.669  20.358  0.00  0.00    +0.000 C 
ATOM     28  C   UNL     1      50.533   5.265  19.359  0.00  0.00    +0.000 C 
BRANCH  28  29
ATOM     29  C   UNL     1      49.984   4.126  18.500  0.00  0.00    +0.000 A 
ATOM     30  C   UNL     1      48.616   3.978  18.271  0.00  0.00    +0.000 A 
ATOM     31  C   UNL     1      48.179   2.967  17.415  0.00  0.00    +0.000 A 
ATOM     32  C   UNL     1      49.112   2.138  16.804  0.00  0.00    +0.000 A 
ATOM     33  C   UNL     1      50.451   2.348  17.081  0.00  0.00    +0.000 A 
ATOM     34  N   UNL     1      50.906   3.319  17.907  0.00  0.00    +0.000 NA
ENDBRANCH  28  29
ENDBRANCH  26  28
ENDBRANCH  20  26
ENDBRANCH  19  23
ENDBRANCH   1  19
TORSDOF 6
ENDMDL
MODEL 9
REMARK VINA RESULT:    -6.945      4.637      7.580
REMARK INTER + INTRA:         -10.159
REMARK INTER:                  -9.138
REMARK INTRA:                  -1.021
REMARK UNBOUND:                -0.778
REMARK  Name = 
REMARK  7 active torsions:
REMARK  status: ('A' for Active; 'I' for Inactive)
REMARK    1  A    between atoms: C_1  and  C_2
REMARK    2  A    between atoms: C_2  and  O_3
REMARK    3  A    between atoms: C_2  and  C_25
REMARK    4  A    between atoms: O_3  and  C_4
REMARK    5  A    between atoms: C_7  and  C_8
REMARK    6  A    between atoms: C_8  and  N_9
REMARK    7  A    between atoms: C_10  and  C_12
REMARK                            x       y       z     vdW  Elec       q    Type
REMARK                         _______ _______ _______ _____ _____    ______ ____
ROOT
ATOM      1  N   UNL     1      46.384   7.656  12.249  0.00  0.00    +0.000 N 
ATOM      2  C   UNL     1      45.131   7.440  11.728  0.00  0.00    +0.000 C 
ATOM      3  O   UNL     1      44.490   8.337  11.186  0.00  0.00    +0.000 OA
ATOM      4  H   UNL     1      46.790   6.972  12.879  0.00  0.00    +0.000 HD
ENDROOT
BRANCH   2   5
ATOM      5  C   UNL     1      44.615   6.066  11.792  0.00  0.00    +0.000 A 
ATOM      6  C   UNL     1      43.894   5.657  12.907  0.00  0.00    +0.000 A 
ATOM      7  S   UNL     1      43.335   4.049  12.805  0.00  0.00    +0.000 S 
ATOM      8  C   UNL     1      44.092   3.823  11.298  0.00  0.00    +0.000 A 
ATOM      9  N   UNL     1      44.048   2.621  10.666  0.00  0.00    +0.000 NA
ATOM     10  C   UNL     1      44.715   2.555   9.555  0.00  0.00    +0.000 A 
ATOM     11  N   UNL     1      44.772   1.393   8.858  0.00  0.00    +0.000 N 
ATOM     12  N   UNL     1      45.384   3.621   9.020  0.00  0.00    +0.000 N 
ATOM     13  C   UNL     1      45.434   4.866   9.601  0.00  0.00    +0.000 A 
ATOM     14  O   UNL     1      46.025   5.800   9.068  0.00  0.00    +0.000 OA
ATOM     15  C   UNL     1      44.736   4.966  10.865  0.00  0.00    +0.000 A 
ATOM     16  H   UNL     1      44.084   0.708   9.155  0.00  0.00    +0.000 HD
ATOM     17  H   UNL     1      44.924   1.421   7.860  0.00  0.00    +0.000 HD
ATOM     18  H   UNL     1      45.898   3.517   8.162  0.00  0.00    +0.000 HD
ENDBRANCH   2   5
BRANCH   1  19
ATOM     19  C   UNL     1      46.964   8.975  12.237  0.00  0.00    +0.000 C 
BRANCH  19  23
ATOM     20  C   UNL     1      51.126   8.891  11.049  0.00  0.00    +0.000 A 
ATOM     21  C   UNL     1      50.472   7.715  11.416  0.00  0.00    +0.000 A 
ATOM     22  C   UNL     1      49.129   7.738  11.812  0.00  0.00    +0.000 A 
ATOM     23  C   UNL     1      48.422   8.945  11.857  0.00  0.00    +0.000 A 
ATOM     24  C   UNL     1      49.104  10.129  11.552  0.00  0.00    +0.000 A 
ATOM     25  C   UNL     1      50.447  10.104  11.150  0.00  0.00    +0.000 A 
BRANCH  20  26
ATOM     26  O   UNL     1      52.421   8.736  10.633  0.00  0.00    +0.000 OA
BRANCH  26  28
ATOM     27  C   UNL     1      54.381   7.449  11.341  0.00  0.00    +0.000 C 
ATOM     28  C   UNL     1      53.000   7.419  10.680  0.00  0.00    +0.000 C 
BRANCH  28  29
ATOM     29  C   UNL     1      53.163   6.858   9.267  0.00  0.00    +0.000 A 
ATOM     30  C   UNL     1      52.902   7.636   8.139  0.00  0.00    +0.000 A 
ATOM     31  C   UNL     1      53.144   7.096   6.875  0.00  0.00    +0.000 A 
ATOM     32  C   UNL     1      53.647   5.806   6.768  0.00  0.00    +0.000 A 
ATOM     33  C   UNL     1      53.882   5.098   7.933  0.00  0.00    +0.000 A 
ATOM     34  N   UNL     1      53.655   5.593   9.173  0.00  0.00    +0.000 NA
ENDBRANCH  28  29
ENDBRANCH  26  28
ENDBRANCH  20  26
ENDBRANCH  19  23
ENDBRANCH   1  19
TORSDOF 6
ENDMDL
