MODEL 1
REMARK VINA RESULT:    -7.286      0.000      0.000
REMARK INTER + INTRA:          -9.332
REMARK INTER:                  -9.203
REMARK INTRA:                  -0.129
REMARK UNBOUND:                -0.129
REMARK  Name = 
REMARK  5 active torsions:
REMARK  status: ('A' for Active; 'I' for Inactive)
REMARK    1  A    between atoms: N_1  and  C_2
REMARK    2  A    between atoms: C_2  and  C_3
REMARK    3  A    between atoms: C_3  and  C_4
REMARK    4  A    between atoms: N_8  and  C_9
REMARK    5  A    between atoms: C_9  and  C_10
REMARK                            x       y       z     vdW  Elec       q    Type
REMARK                         _______ _______ _______ _____ _____    ______ ____
ROOT
ATOM      1  C   UNL     1      45.745   3.078   7.980  0.00  0.00    +0.000 A 
ATOM      2  C   UNL     1      45.336   1.947   8.680  0.00  0.00    +0.000 A 
ATOM      3  C   UNL     1      44.519   2.091   9.798  0.00  0.00    +0.000 A 
ATOM      4  C   UNL     1      44.151   3.361  10.231  0.00  0.00    +0.000 A 
ATOM      5  N   UNL     1      43.376   3.441  11.390  0.00  0.00    +0.000 N 
ATOM      6  N   UNL     1      44.534   4.468   9.567  0.00  0.00    +0.000 NA
ATOM      7  C   UNL     1      45.298   4.306   8.457  0.00  0.00    +0.000 A 
ATOM      8  H   UNL     1      42.451   3.045  11.228  0.00  0.00    +0.000 HD
ENDROOT
BRANCH   1   9
ATOM      9  C   UNL     1      46.616   2.969   6.757  0.00  0.00    +0.000 C 
BRANCH   9  10
ATOM     10  C   UNL     1      47.629   1.825   6.873  0.00  0.00    +0.000 C 
BRANCH  10  11
ATOM     11  N   UNL     1      48.538   1.810   5.728  0.00  0.00    +0.000 NA
ATOM     12  H   UNL     1      48.805   2.767   5.498  0.00  0.00    +0.000 HD
ATOM     13  H   UNL     1      48.053   1.449   4.906  0.00  0.00    +0.000 HD
ENDBRANCH  10  11
ENDBRANCH   9  10
ENDBRANCH   1   9
BRANCH   5  14
ATOM     14  C   UNL     1      43.263   4.759  12.021  0.00  0.00    +0.000 C 
BRANCH  14  15
ATOM     15  C   UNL     1      44.587   5.163  12.659  0.00  0.00    +0.000 A 
ATOM     16  N   UNL     1      45.068   6.402  12.414  0.00  0.00    +0.000 NA
ATOM     17  C   UNL     1      46.249   6.716  12.982  0.00  0.00    +0.000 A 
ATOM     18  C   UNL     1      46.957   5.860  13.790  0.00  0.00    +0.000 A 
ATOM     19  C   UNL     1      46.380   4.630  13.996  0.00  0.00    +0.000 A 
ATOM     20  N   UNL     1      45.206   4.254  13.460  0.00  0.00    +0.000 NA
ENDBRANCH  14  15
ENDBRANCH   5  14
TORSDOF 5
ENDMDL
MODEL 2
REMARK VINA RESULT:    -6.788      1.684      6.244
REMARK INTER + INTRA:          -8.703
REMARK INTER:                  -8.335
REMARK INTRA:                  -0.368
REMARK UNBOUND:                -0.129
REMARK  Name = 
REMARK  5 active torsions:
REMARK  status: ('A' for Active; 'I' for Inactive)
REMARK    1  A    between atoms: N_1  and  C_2
REMARK    2  A    between atoms: C_2  and  C_3
REMARK    3  A    between atoms: C_3  and  C_4
REMARK    4  A    between atoms: N_8  and  C_9
REMARK    5  A    between atoms: C_9  and  C_10
REMARK                            x       y       z     vdW  Elec       q    Type
REMARK                         _______ _______ _______ _____ _____    ______ ____
ROOT
ATOM      1  C   UNL     1      46.732   5.112  13.697  0.00  0.00    +0.000 A 
ATOM      2  C   UNL     1      46.800   6.240  12.886  0.00  0.00    +0.000 A 
ATOM      3  C   UNL     1      46.088   6.269  11.690  0.00  0.00    +0.000 A 
ATOM      4  C   UNL     1      45.348   5.158  11.295  0.00  0.00    +0.000 A 
ATOM      5  N   UNL     1      44.700   5.229  10.060  0.00  0.00    +0.000 N 
ATOM      6  N   UNL     1      45.266   4.058  12.067  0.00  0.00    +0.000 NA
ATOM      7  C   UNL     1      45.937   4.063  13.247  0.00  0.00    +0.000 A 
ATOM      8  H   UNL     1      43.956   5.926  10.087  0.00  0.00    +0.000 HD
ENDROOT
BRANCH   1   9
ATOM      9  C   UNL     1      47.474   5.042  15.005  0.00  0.00    +0.000 C 
BRANCH   9  10
ATOM     10  C   UNL     1      47.441   3.636  15.611  0.00  0.00    +0.000 C 
BRANCH  10  11
ATOM     11  N   UNL     1      46.740   3.632  16.894  0.00  0.00    +0.000 NA
ATOM     12  H   UNL     1      46.853   4.542  17.342  0.00  0.00    +0.000 HD
ATOM     13  H   UNL     1      47.173   2.955  17.522  0.00  0.00    +0.000 HD
ENDBRANCH  10  11
ENDBRANCH   9  10
ENDBRANCH   1   9
BRANCH   5  14
ATOM     14  C   UNL     1      44.200   3.970   9.502  0.00  0.00    +0.000 C 
BRANCH  14  15
ATOM     15  C   UNL     1      45.254   3.320   8.615  0.00  0.00    +0.000 A 
ATOM     16  N   UNL     1      45.879   4.084   7.692  0.00  0.00    +0.000 NA
ATOM     17  C   UNL     1      46.793   3.469   6.916  0.00  0.00    +0.000 A 
ATOM     18  C   UNL     1      47.120   2.140   7.030  0.00  0.00    +0.000 A 
ATOM     19  C   UNL     1      46.446   1.449   8.009  0.00  0.00    +0.000 A 
ATOM     20  N   UNL     1      45.524   2.001   8.816  0.00  0.00    +0.000 NA
ENDBRANCH  14  15
ENDBRANCH   5  14
TORSDOF 5
ENDMDL
MODEL 3
REMARK VINA RESULT:    -6.349      2.649      3.766
REMARK INTER + INTRA:          -8.148
REMARK INTER:                  -7.888
REMARK INTRA:                  -0.259
REMARK UNBOUND:                -0.129
REMARK  Name = 
REMARK  5 active torsions:
REMARK  status: ('A' for Active; 'I' for Inactive)
REMARK    1  A    between atoms: N_1  and  C_2
REMARK    2  A    between atoms: C_2  and  C_3
REMARK    3  A    between atoms: C_3  and  C_4
REMARK    4  A    between atoms: N_8  and  C_9
REMARK    5  A    between atoms: C_9  and  C_10
REMARK                            x       y       z     vdW  Elec       q    Type
REMARK                         _______ _______ _______ _____ _____    ______ ____
ROOT
ATOM      1  C   UNL     1      44.886   4.127   9.895  0.00  0.00    +0.000 A 
ATOM      2  C   UNL     1      44.454   3.095  10.722  0.00  0.00    +0.000 A 
ATOM      3  C   UNL     1      44.744   3.139  12.083  0.00  0.00    +0.000 A 
ATOM      4  C   UNL     1      45.496   4.190  12.600  0.00  0.00    +0.000 A 
ATOM      5  N   UNL     1      45.800   4.149  13.962  0.00  0.00    +0.000 N 
ATOM      6  N   UNL     1      45.921   5.200  11.818  0.00  0.00    +0.000 NA
ATOM      7  C   UNL     1      45.596   5.159  10.500  0.00  0.00    +0.000 A 
ATOM      8  H   UNL     1      44.953   4.258  14.519  0.00  0.00    +0.000 HD
ENDROOT
BRANCH   1   9
ATOM      9  C   UNL     1      44.582   4.128   8.422  0.00  0.00    +0.000 C 
BRANCH   9  10
ATOM     10  C   UNL     1      45.640   3.367   7.616  0.00  0.00    +0.000 C 
BRANCH  10  11
ATOM     11  N   UNL     1      46.698   4.265   7.155  0.00  0.00    +0.000 NA
ATOM     12  H   UNL     1      46.283   5.150   6.861  0.00  0.00    +0.000 HD
ATOM     13  H   UNL     1      47.145   3.876   6.325  0.00  0.00    +0.000 HD
ENDBRANCH  10  11
ENDBRANCH   9  10
ENDBRANCH   1   9
BRANCH   5  14
ATOM     14  C   UNL     1      46.844   5.062  14.435  0.00  0.00    +0.000 C 
BRANCH  14  15
ATOM     15  C   UNL     1      47.471   4.539  15.722  0.00  0.00    +0.000 A 
ATOM     16  N   UNL     1      46.860   3.522  16.369  0.00  0.00    +0.000 NA
ATOM     17  C   UNL     1      47.436   3.098  17.511  0.00  0.00    +0.000 A 
ATOM     18  C   UNL     1      48.594   3.631  18.023  0.00  0.00    +0.000 A 
ATOM     19  C   UNL     1      49.151   4.648  17.287  0.00  0.00    +0.000 A 
ATOM     20  N   UNL     1      48.630   5.117  16.141  0.00  0.00    +0.000 NA
ENDBRANCH  14  15
ENDBRANCH   5  14
TORSDOF 5
ENDMDL
MODEL 4
REMARK VINA RESULT:    -5.402      1.658      2.542
REMARK INTER + INTRA:          -6.952
REMARK INTER:                  -6.842
REMARK INTRA:                  -0.110
REMARK UNBOUND:                -0.129
REMARK  Name = 
REMARK  5 active torsions:
REMARK  status: ('A' for Active; 'I' for Inactive)
REMARK    1  A    between atoms: N_1  and  C_2
REMARK    2  A    between atoms: C_2  and  C_3
REMARK    3  A    between atoms: C_3  and  C_4
REMARK    4  A    between atoms: N_8  and  C_9
REMARK    5  A    between atoms: C_9  and  C_10
REMARK                            x       y       z     vdW  Elec       q    Type
REMARK                         _______ _______ _______ _____ _____    ______ ____
ROOT
ATOM      1  C   UNL     1      45.309   2.503   8.974  0.00  0.00    +0.000 A 
ATOM      2  C   UNL     1      45.407   3.625   8.158  0.00  0.00    +0.000 A 
ATOM      3  C   UNL     1      45.429   4.893   8.734  0.00  0.00    +0.000 A 
ATOM      4  C   UNL     1      45.314   5.031  10.114  0.00  0.00    +0.000 A 
ATOM      5  N   UNL     1      45.288   6.330  10.626  0.00  0.00    +0.000 N 
ATOM      6  N   UNL     1      45.222   3.958  10.922  0.00  0.00    +0.000 NA
ATOM      7  C   UNL     1      45.239   2.729  10.345  0.00  0.00    +0.000 A 
ATOM      8  H   UNL     1      46.189   6.786  10.486  0.00  0.00    +0.000 HD
ENDROOT
BRANCH   1   9
ATOM      9  C   UNL     1      45.296   1.114   8.396  0.00  0.00    +0.000 C 
BRANCH   9  10
ATOM     10  C   UNL     1      46.642   0.739   7.767  0.00  0.00    +0.000 C 
BRANCH  10  11
ATOM     11  N   UNL     1      46.822  -0.711   7.732  0.00  0.00    +0.000 NA
ATOM     12  H   UNL     1      46.744  -1.082   8.679  0.00  0.00    +0.000 HD
ATOM     13  H   UNL     1      47.766  -0.935   7.419  0.00  0.00    +0.000 HD
ENDBRANCH  10  11
ENDBRANCH   9  10
ENDBRANCH   1   9
BRANCH   5  14
ATOM     14  C   UNL     1      44.847   6.485  12.015  0.00  0.00    +0.000 C 
BRANCH  14  15
ATOM     15  C   UNL     1      46.041   6.462  12.962  0.00  0.00    +0.000 A 
ATOM     16  N   UNL     1      46.265   5.345  13.689  0.00  0.00    +0.000 NA
ATOM     17  C   UNL     1      47.320   5.368  14.527  0.00  0.00    +0.000 A 
ATOM     18  C   UNL     1      48.164   6.444  14.658  0.00  0.00    +0.000 A 
ATOM     19  C   UNL     1      47.868   7.527  13.865  0.00  0.00    +0.000 A 
ATOM     20  N   UNL     1      46.832   7.568  13.009  0.00  0.00    +0.000 NA
ENDBRANCH  14  15
ENDBRANCH   5  14
TORSDOF 5
ENDMDL
MODEL 5
REMARK VINA RESULT:    -5.352      2.687      3.833
REMARK INTER + INTRA:          -6.888
REMARK INTER:                  -6.597
REMARK INTRA:                  -0.291
REMARK UNBOUND:                -0.129
REMARK  Name = 
REMARK  5 active torsions:
REMARK  status: ('A' for Active; 'I' for Inactive)
REMARK    1  A    between atoms: N_1  and  C_2
REMARK    2  A    between atoms: C_2  and  C_3
REMARK    3  A    between atoms: C_3  and  C_4
REMARK    4  A    between atoms: N_8  and  C_9
REMARK    5  A    between atoms: C_9  and  C_10
REMARK                            x       y       z     vdW  Elec       q    Type
REMARK                         _______ _______ _______ _____ _____    ______ ____
ROOT
ATOM      1  C   UNL     1      44.867   4.261   9.058  0.00  0.00    +0.000 A 
ATOM      2  C   UNL     1      43.760   4.186   9.897  0.00  0.00    +0.000 A 
ATOM      3  C   UNL     1      43.661   5.054  10.981  0.00  0.00    +0.000 A 
ATOM      4  C   UNL     1      44.685   5.960  11.242  0.00  0.00    +0.000 A 
ATOM      5  N   UNL     1      44.553   6.766  12.375  0.00  0.00    +0.000 N 
ATOM      6  N   UNL     1      45.764   6.050  10.441  0.00  0.00    +0.000 NA
ATOM      7  C   UNL     1      45.825   5.222   9.368  0.00  0.00    +0.000 A 
ATOM      8  H   UNL     1      43.777   7.418  12.260  0.00  0.00    +0.000 HD
ENDROOT
BRANCH   1   9
ATOM      9  C   UNL     1      45.009   3.353   7.867  0.00  0.00    +0.000 C 
BRANCH   9  10
ATOM     10  C   UNL     1      46.292   2.517   7.929  0.00  0.00    +0.000 C 
BRANCH  10  11
ATOM     11  N   UNL     1      46.020   1.170   8.429  0.00  0.00    +0.000 NA
ATOM     12  H   UNL     1      45.201   1.198   9.038  0.00  0.00    +0.000 HD
ATOM     13  H   UNL     1      46.794   0.856   9.014  0.00  0.00    +0.000 HD
ENDBRANCH  10  11
ENDBRANCH   9  10
ENDBRANCH   1   9
BRANCH   5  14
ATOM     14  C   UNL     1      45.753   7.474  12.827  0.00  0.00    +0.000 C 
BRANCH  14  15
ATOM     15  C   UNL     1      45.726   8.925  12.361  0.00  0.00    +0.000 A 
ATOM     16  N   UNL     1      46.895   9.600  12.288  0.00  0.00    +0.000 NA
ATOM     17  C   UNL     1      46.828  10.884  11.888  0.00  0.00    +0.000 A 
ATOM     18  C   UNL     1      45.657  11.516  11.544  0.00  0.00    +0.000 A 
ATOM     19  C   UNL     1      44.523  10.744  11.632  0.00  0.00    +0.000 A 
ATOM     20  N   UNL     1      44.520   9.458  12.024  0.00  0.00    +0.000 NA
ENDBRANCH  14  15
ENDBRANCH   5  14
TORSDOF 5
ENDMDL
MODEL 6
REMARK VINA RESULT:    -5.200      1.501      2.094
REMARK INTER + INTRA:          -6.697
REMARK INTER:                  -6.509
REMARK INTRA:                  -0.188
REMARK UNBOUND:                -0.129
REMARK  Name = 
REMARK  5 active torsions:
REMARK  status: ('A' for Active; 'I' for Inactive)
REMARK    1  A    between atoms: N_1  and  C_2
REMARK    2  A    between atoms: C_2  and  C_3
REMARK    3  A    between atoms: C_3  and  C_4
REMARK    4  A    between atoms: N_8  and  C_9
REMARK    5  A    between atoms: C_9  and  C_10
REMARK                            x       y       z     vdW  Elec       q    Type
REMARK                         _______ _______ _______ _____ _____    ______ ____
ROOT
ATOM      1  C   UNL     1      45.405   3.326   8.967  0.00  0.00    +0.000 A 
ATOM      2  C   UNL     1      44.755   2.847  10.099  0.00  0.00    +0.000 A 
ATOM      3  C   UNL     1      44.365   3.737  11.095  0.00  0.00    +0.000 A 
ATOM      4  C   UNL     1      44.663   5.092  10.972  0.00  0.00    +0.000 A 
ATOM      5  N   UNL     1      44.293   5.926  12.030  0.00  0.00    +0.000 N 
ATOM      6  N   UNL     1      45.288   5.577   9.883  0.00  0.00    +0.000 NA
ATOM      7  C   UNL     1      45.627   4.699   8.905  0.00  0.00    +0.000 A 
ATOM      8  H   UNL     1      43.278   5.983  12.101  0.00  0.00    +0.000 HD
ENDROOT
BRANCH   1   9
ATOM      9  C   UNL     1      45.832   2.402   7.859  0.00  0.00    +0.000 C 
BRANCH   9  10
ATOM     10  C   UNL     1      46.503   3.156   6.706  0.00  0.00    +0.000 C 
BRANCH  10  11
ATOM     11  N   UNL     1      47.949   2.941   6.708  0.00  0.00    +0.000 NA
ATOM     12  H   UNL     1      48.418   3.815   6.467  0.00  0.00    +0.000 HD
ATOM     13  H   UNL     1      48.201   2.277   5.976  0.00  0.00    +0.000 HD
ENDBRANCH  10  11
ENDBRANCH   9  10
ENDBRANCH   1   9
BRANCH   5  14
ATOM     14  C   UNL     1      44.882   7.267  12.051  0.00  0.00    +0.000 C 
BRANCH  14  15
ATOM     15  C   UNL     1      46.135   7.289  12.918  0.00  0.00    +0.000 A 
ATOM     16  N   UNL     1      46.620   8.485  13.320  0.00  0.00    +0.000 NA
ATOM     17  C   UNL     1      47.738   8.463  14.071  0.00  0.00    +0.000 A 
ATOM     18  C   UNL     1      48.380   7.309  14.449  0.00  0.00    +0.000 A 
ATOM     19  C   UNL     1      47.804   6.142  14.008  0.00  0.00    +0.000 A 
ATOM     20  N   UNL     1      46.690   6.093  13.257  0.00  0.00    +0.000 NA
ENDBRANCH  14  15
ENDBRANCH   5  14
TORSDOF 5
ENDMDL
MODEL 7
REMARK VINA RESULT:    -5.065      2.401      3.632
REMARK INTER + INTRA:          -6.526
REMARK INTER:                  -6.229
REMARK INTRA:                  -0.297
REMARK UNBOUND:                -0.129
REMARK  Name = 
REMARK  5 active torsions:
REMARK  status: ('A' for Active; 'I' for Inactive)
REMARK    1  A    between atoms: N_1  and  C_2
REMARK    2  A    between atoms: C_2  and  C_3
REMARK    3  A    between atoms: C_3  and  C_4
REMARK    4  A    between atoms: N_8  and  C_9
REMARK    5  A    between atoms: C_9  and  C_10
REMARK                            x       y       z     vdW  Elec       q    Type
REMARK                         _______ _______ _______ _____ _____    ______ ____
ROOT
ATOM      1  C   UNL     1      44.735   3.543  10.507  0.00  0.00    +0.000 A 
ATOM      2  C   UNL     1      45.109   3.212  11.806  0.00  0.00    +0.000 A 
ATOM      3  C   UNL     1      45.386   4.225  12.719  0.00  0.00    +0.000 A 
ATOM      4  C   UNL     1      45.326   5.557  12.319  0.00  0.00    +0.000 A 
ATOM      5  N   UNL     1      45.668   6.525  13.266  0.00  0.00    +0.000 N 
ATOM      6  N   UNL     1      44.964   5.899  11.068  0.00  0.00    +0.000 NA
ATOM      7  C   UNL     1      44.661   4.898  10.203  0.00  0.00    +0.000 A 
ATOM      8  H   UNL     1      44.980   6.545  14.019  0.00  0.00    +0.000 HD
ENDROOT
BRANCH   1   9
ATOM      9  C   UNL     1      44.412   2.481   9.491  0.00  0.00    +0.000 C 
BRANCH   9  10
ATOM     10  C   UNL     1      45.659   2.010   8.735  0.00  0.00    +0.000 C 
BRANCH  10  11
ATOM     11  N   UNL     1      45.935   2.872   7.586  0.00  0.00    +0.000 NA
ATOM     12  H   UNL     1      46.641   3.562   7.846  0.00  0.00    +0.000 HD
ATOM     13  H   UNL     1      45.099   3.403   7.344  0.00  0.00    +0.000 HD
ENDBRANCH  10  11
ENDBRANCH   9  10
ENDBRANCH   1   9
BRANCH   5  14
ATOM     14  C   UNL     1      45.918   7.879  12.768  0.00  0.00    +0.000 C 
BRANCH  14  15
ATOM     15  C   UNL     1      47.407   8.092  12.519  0.00  0.00    +0.000 A 
ATOM     16  N   UNL     1      47.795   9.192  11.836  0.00  0.00    +0.000 NA
ATOM     17  C   UNL     1      49.117   9.337  11.622  0.00  0.00    +0.000 A 
ATOM     18  C   UNL     1      50.063   8.447  12.069  0.00  0.00    +0.000 A 
ATOM     19  C   UNL     1      49.575   7.369  12.769  0.00  0.00    +0.000 A 
ATOM     20  N   UNL     1      48.270   7.165  13.017  0.00  0.00    +0.000 NA
ENDBRANCH  14  15
ENDBRANCH   5  14
TORSDOF 5
ENDMDL
MODEL 8
REMARK VINA RESULT:    -4.996      3.371      5.973
REMARK INTER + INTRA:          -6.439
REMARK INTER:                  -6.150
REMARK INTRA:                  -0.289
REMARK UNBOUND:                -0.129
REMARK  Name = 
REMARK  5 active torsions:
REMARK  status: ('A' for Active; 'I' for Inactive)
REMARK    1  A    between atoms: N_1  and  C_2
REMARK    2  A    between atoms: C_2  and  C_3
REMARK    3  A    between atoms: C_3  and  C_4
REMARK    4  A    between atoms: N_8  and  C_9
REMARK    5  A    between atoms: C_9  and  C_10
REMARK                            x       y       z     vdW  Elec       q    Type
REMARK                         _______ _______ _______ _____ _____    ______ ____
ROOT
ATOM      1  C   UNL     1      49.537   8.367  11.902  0.00  0.00    +0.000 A 
ATOM      2  C   UNL     1      48.337   9.058  11.770  0.00  0.00    +0.000 A 
ATOM      3  C   UNL     1      47.166   8.502  12.277  0.00  0.00    +0.000 A 
ATOM      4  C   UNL     1      47.196   7.244  12.873  0.00  0.00    +0.000 A 
ATOM      5  N   UNL     1      45.979   6.716  13.313  0.00  0.00    +0.000 N 
ATOM      6  N   UNL     1      48.347   6.560  13.013  0.00  0.00    +0.000 NA
ATOM      7  C   UNL     1      49.484   7.136  12.547  0.00  0.00    +0.000 A 
ATOM      8  H   UNL     1      45.615   7.264  14.092  0.00  0.00    +0.000 HD
ENDROOT
BRANCH   1   9
ATOM      9  C   UNL     1      50.829   8.938  11.382  0.00  0.00    +0.000 C 
BRANCH   9  10
ATOM     10  C   UNL     1      51.669   7.886  10.650  0.00  0.00    +0.000 C 
BRANCH  10  11
ATOM     11  N   UNL     1      52.852   7.522  11.428  0.00  0.00    +0.000 NA
ATOM     12  H   UNL     1      53.363   8.369  11.678  0.00  0.00    +0.000 HD
ATOM     13  H   UNL     1      53.488   6.970  10.853  0.00  0.00    +0.000 HD
ENDBRANCH  10  11
ENDBRANCH   9  10
ENDBRANCH   1   9
BRANCH   5  14
ATOM     14  C   UNL     1      45.957   5.288  13.637  0.00  0.00    +0.000 C 
BRANCH  14  15
ATOM     15  C   UNL     1      45.147   4.516  12.602  0.00  0.00    +0.000 A 
ATOM     16  N   UNL     1      45.334   4.802  11.294  0.00  0.00    +0.000 NA
ATOM     17  C   UNL     1      44.588   4.110  10.411  0.00  0.00    +0.000 A 
ATOM     18  C   UNL     1      43.682   3.142  10.772  0.00  0.00    +0.000 A 
ATOM     19  C   UNL     1      43.574   2.909  12.121  0.00  0.00    +0.000 A 
ATOM     20  N   UNL     1      44.288   3.562  13.055  0.00  0.00    +0.000 NA
ENDBRANCH  14  15
ENDBRANCH   5  14
TORSDOF 5
ENDMDL
MODEL 9
REMARK VINA RESULT:    -4.872      3.087      5.148
REMARK INTER + INTRA:          -6.282
REMARK INTER:                  -5.941
REMARK INTRA:                  -0.341
REMARK UNBOUND:                -0.129
REMARK  Name = 
REMARK  5 active torsions:
REMARK  status: ('A' for Active; 'I' for Inactive)
REMARK    1  A    between atoms: N_1  and  C_2
REMARK    2  A    between atoms: C_2  and  C_3
REMARK    3  A    between atoms: C_3  and  C_4
REMARK    4  A    between atoms: N_8  and  C_9
REMARK    5  A    between atoms: C_9  and  C_10
REMARK                            x       y       z     vdW  Elec       q    Type
REMARK                         _______ _______ _______ _____ _____    ______ ____
ROOT
ATOM      1  C   UNL     1      44.935   4.183  11.974  0.00  0.00    +0.000 A 
ATOM      2  C   UNL     1      45.844   3.477  12.756  0.00  0.00    +0.000 A 
ATOM      3  C   UNL     1      46.734   4.172  13.570  0.00  0.00    +0.000 A 
ATOM      4  C   UNL     1      46.738   5.564  13.565  0.00  0.00    +0.000 A 
ATOM      5  N   UNL     1      47.691   6.204  14.361  0.00  0.00    +0.000 N 
ATOM      6  N   UNL     1      45.865   6.266  12.817  0.00  0.00    +0.000 NA
ATOM      7  C   UNL     1      44.980   5.571  12.060  0.00  0.00    +0.000 A 
ATOM      8  H   UNL     1      47.498   6.040  15.349  0.00  0.00    +0.000 HD
ENDROOT
BRANCH   1   9
ATOM      9  C   UNL     1      43.946   3.472  11.091  0.00  0.00    +0.000 C 
BRANCH   9  10
ATOM     10  C   UNL     1      44.433   3.374   9.642  0.00  0.00    +0.000 C 
BRANCH  10  11
ATOM     11  N   UNL     1      43.844   4.426   8.815  0.00  0.00    +0.000 NA
ATOM     12  H   UNL     1      43.534   4.023   7.931  0.00  0.00    +0.000 HD
ATOM     13  H   UNL     1      44.556   5.116   8.575  0.00  0.00    +0.000 HD
ENDBRANCH  10  11
ENDBRANCH   9  10
ENDBRANCH   1   9
BRANCH   5  14
ATOM     14  C   UNL     1      47.909   7.631  14.114  0.00  0.00    +0.000 C 
BRANCH  14  15
ATOM     15  C   UNL     1      49.196   7.848  13.326  0.00  0.00    +0.000 A 
ATOM     16  N   UNL     1      50.284   8.307  13.984  0.00  0.00    +0.000 NA
ATOM     17  C   UNL     1      51.397   8.502  13.251  0.00  0.00    +0.000 A 
ATOM     18  C   UNL     1      51.477   8.245  11.904  0.00  0.00    +0.000 A 
ATOM     19  C   UNL     1      50.326   7.764  11.326  0.00  0.00    +0.000 A 
ATOM     20  N   UNL     1      49.184   7.547  11.999  0.00  0.00    +0.000 NA
ENDBRANCH  14  15
ENDBRANCH   5  14
TORSDOF 5
ENDMDL
