MODEL 1
REMARK VINA RESULT:    -8.397      0.000      0.000
REMARK INTER + INTRA:         -12.791
REMARK INTER:                 -11.833
REMARK INTRA:                  -0.958
REMARK UNBOUND:                -0.958
REMARK  Name = 
REMARK  9 active torsions:
REMARK  status: ('A' for Active; 'I' for Inactive)
REMARK    1  A    between atoms: C_1  and  C_2
REMARK    2  A    between atoms: C_2  and  C_3
REMARK    3  A    between atoms: C_2  and  C_4
REMARK    4  A    between atoms: C_2  and  C_19
REMARK    5  A    between atoms: C_4  and  S_5
REMARK    6  A    between atoms: S_5  and  C_6
REMARK    7  A    between atoms: C_10  and  O_11
REMARK    8  A    between atoms: O_11  and  C_12
REMARK    9  A    between atoms: C_22  and  C_23
REMARK                            x       y       z     vdW  Elec       q    Type
REMARK                         _______ _______ _______ _____ _____    ______ ____
ROOT
ATOM      1  C   UNL     1      44.989   4.419  12.182  0.00  0.00    +0.000 C 
ENDROOT
BRANCH   1   3
ATOM      2  C   UNL     1      43.204   2.725  11.554  0.00  0.00    +0.000 C 
ATOM      3  C   UNL     1      44.097   3.876  11.020  0.00  0.00    +0.000 C 
ATOM      4  C   UNL     1      43.121   5.008  10.606  0.00  0.00    +0.000 C 
BRANCH   3   5
ATOM      5  C   UNL     1      44.936   3.476   9.785  0.00  0.00    +0.000 A 
ATOM      6  C   UNL     1      45.486   4.435   8.917  0.00  0.00    +0.000 A 
ATOM      7  C   UNL     1      46.245   4.064   7.803  0.00  0.00    +0.000 A 
ATOM      8  C   UNL     1      46.485   2.718   7.526  0.00  0.00    +0.000 A 
ATOM      9  C   UNL     1      45.940   1.743   8.364  0.00  0.00    +0.000 A 
ATOM     10  C   UNL     1      45.175   2.121   9.479  0.00  0.00    +0.000 A 
BRANCH   8  11
ATOM     11  C   UNL     1      47.300   2.390   6.327  0.00  0.00    +0.000 C 
ATOM     12  N   UNL     1      47.240   3.247   5.264  0.00  0.00    +0.000 N 
ATOM     13  O   UNL     1      47.973   1.367   6.262  0.00  0.00    +0.000 OA
ATOM     14  H   UNL     1      46.518   3.947   5.175  0.00  0.00    +0.000 HD
ATOM     15  H   UNL     1      47.698   2.932   4.418  0.00  0.00    +0.000 HD
ENDBRANCH   8  11
ENDBRANCH   3   5
ENDBRANCH   1   3
BRANCH   1  16
ATOM     16  S   UNL     1      45.046   6.251  12.290  0.00  0.00    +0.000 S 
BRANCH  16  17
ATOM     17  C   UNL     1      46.715   6.512  12.862  0.00  0.00    +0.000 A 
ATOM     18  C   UNL     1      47.555   7.300  12.086  0.00  0.00    +0.000 A 
ATOM     19  C   UNL     1      48.839   7.566  12.549  0.00  0.00    +0.000 A 
ATOM     20  C   UNL     1      49.245   7.028  13.769  0.00  0.00    +0.000 A 
ATOM     21  C   UNL     1      48.355   6.226  14.466  0.00  0.00    +0.000 A 
ATOM     22  N   UNL     1      47.102   5.968  14.035  0.00  0.00    +0.000 NA
BRANCH  21  23
ATOM     23  O   UNL     1      48.629   5.656  15.683  0.00  0.00    +0.000 OA
BRANCH  23  24
ATOM     24  C   UNL     1      47.788   4.595  16.179  0.00  0.00    +0.000 C 
ATOM     25  C   UNL     1      47.313   4.693  17.644  0.00  0.00    +0.000 C 
ATOM     26  C   UNL     1      47.691   3.214  17.834  0.00  0.00    +0.000 C 
ATOM     27  F   UNL     1      48.349   2.921  18.977  0.00  0.00    +0.000 F 
ATOM     28  F   UNL     1      46.660   2.342  17.744  0.00  0.00    +0.000 F 
ATOM     29  C   UNL     1      48.565   3.320  16.574  0.00  0.00    +0.000 C 
ENDBRANCH  23  24
ENDBRANCH  21  23
ENDBRANCH  16  17
ENDBRANCH   1  16
TORSDOF 7
ENDMDL
MODEL 2
REMARK VINA RESULT:    -8.116      3.731      8.286
REMARK INTER + INTRA:         -12.395
REMARK INTER:                 -11.303
REMARK INTRA:                  -1.092
REMARK UNBOUND:                -0.958
REMARK  Name = 
REMARK  9 active torsions:
REMARK  status: ('A' for Active; 'I' for Inactive)
REMARK    1  A    between atoms: C_1  and  C_2
REMARK    2  A    between atoms: C_2  and  C_3
REMARK    3  A    between atoms: C_2  and  C_4
REMARK    4  A    between atoms: C_2  and  C_19
REMARK    5  A    between atoms: C_4  and  S_5
REMARK    6  A    between atoms: S_5  and  C_6
REMARK    7  A    between atoms: C_10  and  O_11
REMARK    8  A    between atoms: O_11  and  C_12
REMARK    9  A    between atoms: C_22  and  C_23
REMARK                            x       y       z     vdW  Elec       q    Type
REMARK                         _______ _______ _______ _____ _____    ______ ____
ROOT
ATOM      1  C   UNL     1      47.199   6.667  11.854  0.00  0.00    +0.000 C 
ENDROOT
BRANCH   1   3
ATOM      2  C   UNL     1      49.386   7.605  12.740  0.00  0.00    +0.000 C 
ATOM      3  C   UNL     1      47.940   7.195  13.124  0.00  0.00    +0.000 C 
ATOM      4  C   UNL     1      47.236   8.503  13.571  0.00  0.00    +0.000 C 
BRANCH   3   5
ATOM      5  C   UNL     1      47.881   6.183  14.291  0.00  0.00    +0.000 A 
ATOM      6  C   UNL     1      47.154   4.984  14.201  0.00  0.00    +0.000 A 
ATOM      7  C   UNL     1      47.108   4.074  15.261  0.00  0.00    +0.000 A 
ATOM      8  C   UNL     1      47.796   4.332  16.446  0.00  0.00    +0.000 A 
ATOM      9  C   UNL     1      48.515   5.523  16.570  0.00  0.00    +0.000 A 
ATOM     10  C   UNL     1      48.555   6.435  15.503  0.00  0.00    +0.000 A 
BRANCH   8  11
ATOM     11  C   UNL     1      47.707   3.325  17.534  0.00  0.00    +0.000 C 
ATOM     12  N   UNL     1      48.785   3.185  18.362  0.00  0.00    +0.000 N 
ATOM     13  O   UNL     1      46.723   2.604  17.670  0.00  0.00    +0.000 OA
ATOM     14  H   UNL     1      49.693   3.564  18.134  0.00  0.00    +0.000 HD
ATOM     15  H   UNL     1      48.748   2.406  19.007  0.00  0.00    +0.000 HD
ENDBRANCH   8  11
ENDBRANCH   3   5
ENDBRANCH   1   3
BRANCH   1  16
ATOM     16  S   UNL     1      45.410   7.073  11.806  0.00  0.00    +0.000 S 
BRANCH  16  17
ATOM     17  C   UNL     1      44.687   5.446  11.697  0.00  0.00    +0.000 A 
ATOM     18  C   UNL     1      43.903   5.008  12.756  0.00  0.00    +0.000 A 
ATOM     19  C   UNL     1      43.281   3.769  12.660  0.00  0.00    +0.000 A 
ATOM     20  C   UNL     1      43.470   3.002  11.511  0.00  0.00    +0.000 A 
ATOM     21  C   UNL     1      44.293   3.500  10.513  0.00  0.00    +0.000 A 
ATOM     22  N   UNL     1      44.895   4.707  10.587  0.00  0.00    +0.000 NA
BRANCH  21  23
ATOM     23  O   UNL     1      44.542   2.851   9.331  0.00  0.00    +0.000 OA
BRANCH  23  24
ATOM     24  C   UNL     1      45.876   2.849   8.786  0.00  0.00    +0.000 C 
ATOM     25  C   UNL     1      46.095   3.579   7.443  0.00  0.00    +0.000 C 
ATOM     26  C   UNL     1      46.899   2.363   6.948  0.00  0.00    +0.000 C 
ATOM     27  F   UNL     1      46.627   1.957   5.690  0.00  0.00    +0.000 F 
ATOM     28  F   UNL     1      48.243   2.491   7.034  0.00  0.00    +0.000 F 
ATOM     29  C   UNL     1      46.251   1.534   8.069  0.00  0.00    +0.000 C 
ENDBRANCH  23  24
ENDBRANCH  21  23
ENDBRANCH  16  17
ENDBRANCH   1  16
TORSDOF 7
ENDMDL
MODEL 3
REMARK VINA RESULT:    -7.723      2.028      2.554
REMARK INTER + INTRA:         -11.841
REMARK INTER:                 -10.755
REMARK INTRA:                  -1.086
REMARK UNBOUND:                -0.958
REMARK  Name = 
REMARK  9 active torsions:
REMARK  status: ('A' for Active; 'I' for Inactive)
REMARK    1  A    between atoms: C_1  and  C_2
REMARK    2  A    between atoms: C_2  and  C_3
REMARK    3  A    between atoms: C_2  and  C_4
REMARK    4  A    between atoms: C_2  and  C_19
REMARK    5  A    between atoms: C_4  and  S_5
REMARK    6  A    between atoms: S_5  and  C_6
REMARK    7  A    between atoms: C_10  and  O_11
REMARK    8  A    between atoms: O_11  and  C_12
REMARK    9  A    between atoms: C_22  and  C_23
REMARK                            x       y       z     vdW  Elec       q    Type
REMARK                         _______ _______ _______ _____ _____    ______ ____
ROOT
ATOM      1  C   UNL     1      45.199   3.842  12.305  0.00  0.00    +0.000 C 
ENDROOT
BRANCH   1   3
ATOM      2  C   UNL     1      43.248   2.494  11.395  0.00  0.00    +0.000 C 
ATOM      3  C   UNL     1      44.256   3.630  11.077  0.00  0.00    +0.000 C 
ATOM      4  C   UNL     1      43.404   4.915  10.910  0.00  0.00    +0.000 C 
BRANCH   3   5
ATOM      5  C   UNL     1      45.050   3.396   9.771  0.00  0.00    +0.000 A 
ATOM      6  C   UNL     1      45.335   2.104   9.296  0.00  0.00    +0.000 A 
ATOM      7  C   UNL     1      46.052   1.902   8.113  0.00  0.00    +0.000 A 
ATOM      8  C   UNL     1      46.501   2.988   7.362  0.00  0.00    +0.000 A 
ATOM      9  C   UNL     1      46.244   4.283   7.818  0.00  0.00    +0.000 A 
ATOM     10  C   UNL     1      45.527   4.481   9.008  0.00  0.00    +0.000 A 
BRANCH   8  11
ATOM     11  C   UNL     1      47.257   2.705   6.115  0.00  0.00    +0.000 C 
ATOM     12  N   UNL     1      48.601   2.483   6.222  0.00  0.00    +0.000 N 
ATOM     13  O   UNL     1      46.715   2.712   5.014  0.00  0.00    +0.000 OA
ATOM     14  H   UNL     1      49.122   2.717   7.055  0.00  0.00    +0.000 HD
ATOM     15  H   UNL     1      49.110   2.424   5.349  0.00  0.00    +0.000 HD
ENDBRANCH   8  11
ENDBRANCH   3   5
ENDBRANCH   1   3
BRANCH   1  16
ATOM     16  S   UNL     1      44.994   5.465  13.137  0.00  0.00    +0.000 S 
BRANCH  16  17
ATOM     17  C   UNL     1      46.616   6.174  12.918  0.00  0.00    +0.000 A 
ATOM     18  C   UNL     1      46.895   6.807  11.714  0.00  0.00    +0.000 A 
ATOM     19  C   UNL     1      48.132   7.419  11.552  0.00  0.00    +0.000 A 
ATOM     20  C   UNL     1      49.055   7.373  12.595  0.00  0.00    +0.000 A 
ATOM     21  C   UNL     1      48.708   6.694  13.753  0.00  0.00    +0.000 A 
ATOM     22  N   UNL     1      47.507   6.104  13.930  0.00  0.00    +0.000 NA
BRANCH  21  23
ATOM     23  O   UNL     1      49.520   6.595  14.854  0.00  0.00    +0.000 OA
BRANCH  23  24
ATOM     24  C   UNL     1      49.321   7.487  15.968  0.00  0.00    +0.000 C 
ATOM     25  C   UNL     1      50.557   7.842  16.822  0.00  0.00    +0.000 C 
ATOM     26  C   UNL     1      49.721   7.582  18.087  0.00  0.00    +0.000 C 
ATOM     27  F   UNL     1      50.336   6.871  19.057  0.00  0.00    +0.000 F 
ATOM     28  F   UNL     1      49.215   8.690  18.678  0.00  0.00    +0.000 F 
ATOM     29  C   UNL     1      48.727   6.798  17.217  0.00  0.00    +0.000 C 
ENDBRANCH  23  24
ENDBRANCH  21  23
ENDBRANCH  16  17
ENDBRANCH   1  16
TORSDOF 7
ENDMDL
MODEL 4
REMARK VINA RESULT:    -7.666      3.082      4.268
REMARK INTER + INTRA:         -11.761
REMARK INTER:                 -10.823
REMARK INTRA:                  -0.937
REMARK UNBOUND:                -0.958
REMARK  Name = 
REMARK  9 active torsions:
REMARK  status: ('A' for Active; 'I' for Inactive)
REMARK    1  A    between atoms: C_1  and  C_2
REMARK    2  A    between atoms: C_2  and  C_3
REMARK    3  A    between atoms: C_2  and  C_4
REMARK    4  A    between atoms: C_2  and  C_19
REMARK    5  A    between atoms: C_4  and  S_5
REMARK    6  A    between atoms: S_5  and  C_6
REMARK    7  A    between atoms: C_10  and  O_11
REMARK    8  A    between atoms: O_11  and  C_12
REMARK    9  A    between atoms: C_22  and  C_23
REMARK                            x       y       z     vdW  Elec       q    Type
REMARK                         _______ _______ _______ _____ _____    ______ ____
ROOT
ATOM      1  C   UNL     1      45.223   4.700  12.143  0.00  0.00    +0.000 C 
ENDROOT
BRANCH   1   3
ATOM      2  C   UNL     1      43.402   2.988  11.693  0.00  0.00    +0.000 C 
ATOM      3  C   UNL     1      44.274   4.102  11.056  0.00  0.00    +0.000 C 
ATOM      4  C   UNL     1      43.286   5.218  10.627  0.00  0.00    +0.000 C 
BRANCH   3   5
ATOM      5  C   UNL     1      45.051   3.629   9.805  0.00  0.00    +0.000 A 
ATOM      6  C   UNL     1      45.620   4.536   8.895  0.00  0.00    +0.000 A 
ATOM      7  C   UNL     1      46.322   4.100   7.769  0.00  0.00    +0.000 A 
ATOM      8  C   UNL     1      46.485   2.737   7.520  0.00  0.00    +0.000 A 
ATOM      9  C   UNL     1      45.919   1.812   8.399  0.00  0.00    +0.000 A 
ATOM     10  C   UNL     1      45.211   2.256   9.528  0.00  0.00    +0.000 A 
BRANCH   8  11
ATOM     11  C   UNL     1      47.243   2.338   6.305  0.00  0.00    +0.000 C 
ATOM     12  N   UNL     1      47.126   3.128   5.195  0.00  0.00    +0.000 N 
ATOM     13  O   UNL     1      47.917   1.314   6.270  0.00  0.00    +0.000 OA
ATOM     14  H   UNL     1      46.397   3.820   5.099  0.00  0.00    +0.000 HD
ATOM     15  H   UNL     1      47.545   2.763   4.349  0.00  0.00    +0.000 HD
ENDBRANCH   8  11
ENDBRANCH   3   5
ENDBRANCH   1   3
BRANCH   1  16
ATOM     16  S   UNL     1      46.057   3.440  13.186  0.00  0.00    +0.000 S 
BRANCH  16  17
ATOM     17  C   UNL     1      46.985   4.475  14.303  0.00  0.00    +0.000 A 
ATOM     18  C   UNL     1      47.151   4.038  15.611  0.00  0.00    +0.000 A 
ATOM     19  C   UNL     1      47.925   4.801  16.478  0.00  0.00    +0.000 A 
ATOM     20  C   UNL     1      48.501   5.982  16.012  0.00  0.00    +0.000 A 
ATOM     21  C   UNL     1      48.260   6.362  14.701  0.00  0.00    +0.000 A 
ATOM     22  N   UNL     1      47.521   5.626  13.844  0.00  0.00    +0.000 NA
BRANCH  21  23
ATOM     23  O   UNL     1      48.785   7.489  14.122  0.00  0.00    +0.000 OA
BRANCH  23  24
ATOM     24  C   UNL     1      49.615   7.366  12.950  0.00  0.00    +0.000 C 
ATOM     25  C   UNL     1      50.841   8.300  12.848  0.00  0.00    +0.000 C 
ATOM     26  C   UNL     1      50.449   8.605  11.392  0.00  0.00    +0.000 C 
ATOM     27  F   UNL     1      50.519   9.904  11.029  0.00  0.00    +0.000 F 
ATOM     28  F   UNL     1      51.129   7.903  10.456  0.00  0.00    +0.000 F 
ATOM     29  C   UNL     1      49.040   8.077  11.705  0.00  0.00    +0.000 C 
ENDBRANCH  23  24
ENDBRANCH  21  23
ENDBRANCH  16  17
ENDBRANCH   1  16
TORSDOF 7
ENDMDL
MODEL 5
REMARK VINA RESULT:    -6.936      4.104      8.606
REMARK INTER + INTRA:         -10.732
REMARK INTER:                 -10.175
REMARK INTRA:                  -0.557
REMARK UNBOUND:                -0.958
REMARK  Name = 
REMARK  9 active torsions:
REMARK  status: ('A' for Active; 'I' for Inactive)
REMARK    1  A    between atoms: C_1  and  C_2
REMARK    2  A    between atoms: C_2  and  C_3
REMARK    3  A    between atoms: C_2  and  C_4
REMARK    4  A    between atoms: C_2  and  C_19
REMARK    5  A    between atoms: C_4  and  S_5
REMARK    6  A    between atoms: S_5  and  C_6
REMARK    7  A    between atoms: C_10  and  O_11
REMARK    8  A    between atoms: O_11  and  C_12
REMARK    9  A    between atoms: C_22  and  C_23
REMARK                            x       y       z     vdW  Elec       q    Type
REMARK                         _______ _______ _______ _____ _____    ______ ____
ROOT
ATOM      1  C   UNL     1      48.261   5.606  15.792  0.00  0.00    +0.000 C 
ENDROOT
BRANCH   1   3
ATOM      2  C   UNL     1      48.961   6.657  17.996  0.00  0.00    +0.000 C 
ATOM      3  C   UNL     1      48.622   5.320  17.285  0.00  0.00    +0.000 C 
ATOM      4  C   UNL     1      47.346   4.783  17.984  0.00  0.00    +0.000 C 
BRANCH   3   5
ATOM      5  C   UNL     1      49.737   4.257  17.418  0.00  0.00    +0.000 A 
ATOM      6  C   UNL     1      49.474   2.882  17.291  0.00  0.00    +0.000 A 
ATOM      7  C   UNL     1      50.489   1.929  17.411  0.00  0.00    +0.000 A 
ATOM      8  C   UNL     1      51.805   2.322  17.654  0.00  0.00    +0.000 A 
ATOM      9  C   UNL     1      52.094   3.680  17.798  0.00  0.00    +0.000 A 
ATOM     10  C   UNL     1      51.070   4.634  17.681  0.00  0.00    +0.000 A 
BRANCH   8  11
ATOM     11  C   UNL     1      52.837   1.259  17.770  0.00  0.00    +0.000 C 
ATOM     12  N   UNL     1      52.426   0.012  18.152  0.00  0.00    +0.000 N 
ATOM     13  O   UNL     1      54.027   1.488  17.578  0.00  0.00    +0.000 OA
ATOM     14  H   UNL     1      51.519  -0.155  18.561  0.00  0.00    +0.000 HD
ATOM     15  H   UNL     1      53.163  -0.653  18.349  0.00  0.00    +0.000 HD
ENDBRANCH   8  11
ENDBRANCH   3   5
ENDBRANCH   1   3
BRANCH   1  16
ATOM     16  S   UNL     1      47.096   4.394  15.057  0.00  0.00    +0.000 S 
BRANCH  16  17
ATOM     17  C   UNL     1      46.630   5.230  13.552  0.00  0.00    +0.000 A 
ATOM     18  C   UNL     1      47.544   6.107  12.983  0.00  0.00    +0.000 A 
ATOM     19  C   UNL     1      47.223   6.718  11.777  0.00  0.00    +0.000 A 
ATOM     20  C   UNL     1      45.994   6.440  11.181  0.00  0.00    +0.000 A 
ATOM     21  C   UNL     1      45.126   5.576  11.831  0.00  0.00    +0.000 A 
ATOM     22  N   UNL     1      45.428   4.966  12.997  0.00  0.00    +0.000 NA
BRANCH  21  23
ATOM     23  O   UNL     1      43.900   5.209  11.339  0.00  0.00    +0.000 OA
BRANCH  23  24
ATOM     24  C   UNL     1      43.771   3.988  10.584  0.00  0.00    +0.000 C 
ATOM     25  C   UNL     1      44.872   2.921  10.768  0.00  0.00    +0.000 C 
ATOM     26  C   UNL     1      44.929   2.759   9.239  0.00  0.00    +0.000 C 
ATOM     27  F   UNL     1      46.167   2.694   8.705  0.00  0.00    +0.000 F 
ATOM     28  F   UNL     1      44.237   1.705   8.748  0.00  0.00    +0.000 F 
ATOM     29  C   UNL     1      44.221   4.117   9.112  0.00  0.00    +0.000 C 
ENDBRANCH  23  24
ENDBRANCH  21  23
ENDBRANCH  16  17
ENDBRANCH   1  16
TORSDOF 7
ENDMDL
MODEL 6
REMARK VINA RESULT:    -6.886      3.201      4.903
REMARK INTER + INTRA:         -10.663
REMARK INTER:                  -9.474
REMARK INTRA:                  -1.189
REMARK UNBOUND:                -0.958
REMARK  Name = 
REMARK  9 active torsions:
REMARK  status: ('A' for Active; 'I' for Inactive)
REMARK    1  A    between atoms: C_1  and  C_2
REMARK    2  A    between atoms: C_2  and  C_3
REMARK    3  A    between atoms: C_2  and  C_4
REMARK    4  A    between atoms: C_2  and  C_19
REMARK    5  A    between atoms: C_4  and  S_5
REMARK    6  A    between atoms: S_5  and  C_6
REMARK    7  A    between atoms: C_10  and  O_11
REMARK    8  A    between atoms: O_11  and  C_12
REMARK    9  A    between atoms: C_22  and  C_23
REMARK                            x       y       z     vdW  Elec       q    Type
REMARK                         _______ _______ _______ _____ _____    ______ ____
ROOT
ATOM      1  C   UNL     1      48.492   7.617  14.196  0.00  0.00    +0.000 C 
ENDROOT
BRANCH   1   3
ATOM      2  C   UNL     1      47.150   9.127  12.657  0.00  0.00    +0.000 C 
ATOM      3  C   UNL     1      47.846   7.745  12.780  0.00  0.00    +0.000 C 
ATOM      4  C   UNL     1      48.994   7.757  11.737  0.00  0.00    +0.000 C 
BRANCH   3   5
ATOM      5  C   UNL     1      46.908   6.558  12.462  0.00  0.00    +0.000 A 
ATOM      6  C   UNL     1      46.081   6.546  11.326  0.00  0.00    +0.000 A 
ATOM      7  C   UNL     1      45.238   5.467  11.045  0.00  0.00    +0.000 A 
ATOM      8  C   UNL     1      45.200   4.359  11.892  0.00  0.00    +0.000 A 
ATOM      9  C   UNL     1      46.000   4.350  13.037  0.00  0.00    +0.000 A 
ATOM     10  C   UNL     1      46.842   5.438  13.316  0.00  0.00    +0.000 A 
BRANCH   8  11
ATOM     11  C   UNL     1      44.282   3.246  11.538  0.00  0.00    +0.000 C 
ATOM     12  N   UNL     1      43.754   2.507  12.560  0.00  0.00    +0.000 N 
ATOM     13  O   UNL     1      44.033   2.958  10.372  0.00  0.00    +0.000 OA
ATOM     14  H   UNL     1      44.125   2.541  13.498  0.00  0.00    +0.000 HD
ATOM     15  H   UNL     1      43.241   1.678  12.286  0.00  0.00    +0.000 HD
ENDBRANCH   8  11
ENDBRANCH   3   5
ENDBRANCH   1   3
BRANCH   1  16
ATOM     16  S   UNL     1      48.821   9.225  15.019  0.00  0.00    +0.000 S 
BRANCH  16  17
ATOM     17  C   UNL     1      48.434   8.832  16.715  0.00  0.00    +0.000 A 
ATOM     18  C   UNL     1      47.907   9.838  17.514  0.00  0.00    +0.000 A 
ATOM     19  C   UNL     1      47.541   9.532  18.819  0.00  0.00    +0.000 A 
ATOM     20  C   UNL     1      47.722   8.232  19.288  0.00  0.00    +0.000 A 
ATOM     21  C   UNL     1      48.284   7.295  18.435  0.00  0.00    +0.000 A 
ATOM     22  N   UNL     1      48.633   7.574  17.161  0.00  0.00    +0.000 NA
BRANCH  21  23
ATOM     23  O   UNL     1      48.494   5.983  18.772  0.00  0.00    +0.000 OA
BRANCH  23  24
ATOM     24  C   UNL     1      48.560   4.983  17.735  0.00  0.00    +0.000 C 
ATOM     25  C   UNL     1      47.225   4.486  17.143  0.00  0.00    +0.000 C 
ATOM     26  C   UNL     1      47.740   3.041  17.271  0.00  0.00    +0.000 C 
ATOM     27  F   UNL     1      46.856   2.148  17.764  0.00  0.00    +0.000 F 
ATOM     28  F   UNL     1      48.240   2.508  16.133  0.00  0.00    +0.000 F 
ATOM     29  C   UNL     1      48.793   3.552  18.267  0.00  0.00    +0.000 C 
ENDBRANCH  23  24
ENDBRANCH  21  23
ENDBRANCH  16  17
ENDBRANCH   1  16
TORSDOF 7
ENDMDL
MODEL 7
REMARK VINA RESULT:    -6.853      3.461      5.331
REMARK INTER + INTRA:         -10.615
REMARK INTER:                  -9.636
REMARK INTRA:                  -0.979
REMARK UNBOUND:                -0.958
REMARK  Name = 
REMARK  9 active torsions:
REMARK  status: ('A' for Active; 'I' for Inactive)
REMARK    1  A    between atoms: C_1  and  C_2
REMARK    2  A    between atoms: C_2  and  C_3
REMARK    3  A    between atoms: C_2  and  C_4
REMARK    4  A    between atoms: C_2  and  C_19
REMARK    5  A    between atoms: C_4  and  S_5
REMARK    6  A    between atoms: S_5  and  C_6
REMARK    7  A    between atoms: C_10  and  O_11
REMARK    8  A    between atoms: O_11  and  C_12
REMARK    9  A    between atoms: C_22  and  C_23
REMARK                            x       y       z     vdW  Elec       q    Type
REMARK                         _______ _______ _______ _____ _____    ______ ____
ROOT
ATOM      1  C   UNL     1      48.872   6.593  13.906  0.00  0.00    +0.000 C 
ENDROOT
BRANCH   1   3
ATOM      2  C   UNL     1      47.087   8.380  13.643  0.00  0.00    +0.000 C 
ATOM      3  C   UNL     1      47.800   7.195  12.941  0.00  0.00    +0.000 C 
ATOM      4  C   UNL     1      48.549   7.810  11.731  0.00  0.00    +0.000 C 
BRANCH   3   5
ATOM      5  C   UNL     1      46.823   6.117  12.417  0.00  0.00    +0.000 A 
ATOM      6  C   UNL     1      46.541   4.950  13.147  0.00  0.00    +0.000 A 
ATOM      7  C   UNL     1      45.655   3.982  12.666  0.00  0.00    +0.000 A 
ATOM      8  C   UNL     1      45.015   4.155  11.438  0.00  0.00    +0.000 A 
ATOM      9  C   UNL     1      45.287   5.298  10.685  0.00  0.00    +0.000 A 
ATOM     10  C   UNL     1      46.181   6.266  11.171  0.00  0.00    +0.000 A 
BRANCH   8  11
ATOM     11  C   UNL     1      44.085   3.089  10.984  0.00  0.00    +0.000 C 
ATOM     12  N   UNL     1      44.526   2.229  10.018  0.00  0.00    +0.000 N 
ATOM     13  O   UNL     1      42.941   3.000  11.418  0.00  0.00    +0.000 OA
ATOM     14  H   UNL     1      45.346   2.419   9.459  0.00  0.00    +0.000 HD
ATOM     15  H   UNL     1      43.831   1.601   9.636  0.00  0.00    +0.000 HD
ENDBRANCH   8  11
ENDBRANCH   3   5
ENDBRANCH   1   3
BRANCH   1  16
ATOM     16  S   UNL     1      48.684   7.116  15.655  0.00  0.00    +0.000 S 
BRANCH  16  17
ATOM     17  C   UNL     1      48.657   5.539  16.488  0.00  0.00    +0.000 A 
ATOM     18  C   UNL     1      47.492   4.785  16.420  0.00  0.00    +0.000 A 
ATOM     19  C   UNL     1      47.475   3.527  17.009  0.00  0.00    +0.000 A 
ATOM     20  C   UNL     1      48.620   3.064  17.656  0.00  0.00    +0.000 A 
ATOM     21  C   UNL     1      49.731   3.892  17.704  0.00  0.00    +0.000 A 
ATOM     22  N   UNL     1      49.767   5.112  17.127  0.00  0.00    +0.000 NA
BRANCH  21  23
ATOM     23  O   UNL     1      50.920   3.545  18.292  0.00  0.00    +0.000 OA
BRANCH  23  24
ATOM     24  C   UNL     1      51.890   2.787  17.544  0.00  0.00    +0.000 C 
ATOM     25  C   UNL     1      51.589   1.292  17.301  0.00  0.00    +0.000 C 
ATOM     26  C   UNL     1      53.035   0.965  17.711  0.00  0.00    +0.000 C 
ATOM     27  F   UNL     1      53.182  -0.092  18.539  0.00  0.00    +0.000 F 
ATOM     28  F   UNL     1      53.894   0.776  16.683  0.00  0.00    +0.000 F 
ATOM     29  C   UNL     1      53.113   2.347  18.378  0.00  0.00    +0.000 C 
ENDBRANCH  23  24
ENDBRANCH  21  23
ENDBRANCH  16  17
ENDBRANCH   1  16
TORSDOF 7
ENDMDL
MODEL 8
REMARK VINA RESULT:    -6.664      3.335      4.925
REMARK INTER + INTRA:         -10.350
REMARK INTER:                  -9.178
REMARK INTRA:                  -1.171
REMARK UNBOUND:                -0.958
REMARK  Name = 
REMARK  9 active torsions:
REMARK  status: ('A' for Active; 'I' for Inactive)
REMARK    1  A    between atoms: C_1  and  C_2
REMARK    2  A    between atoms: C_2  and  C_3
REMARK    3  A    between atoms: C_2  and  C_4
REMARK    4  A    between atoms: C_2  and  C_19
REMARK    5  A    between atoms: C_4  and  S_5
REMARK    6  A    between atoms: S_5  and  C_6
REMARK    7  A    between atoms: C_10  and  O_11
REMARK    8  A    between atoms: O_11  and  C_12
REMARK    9  A    between atoms: C_22  and  C_23
REMARK                            x       y       z     vdW  Elec       q    Type
REMARK                         _______ _______ _______ _____ _____    ______ ____
ROOT
ATOM      1  C   UNL     1      48.286   7.809  14.233  0.00  0.00    +0.000 C 
ENDROOT
BRANCH   1   3
ATOM      2  C   UNL     1      47.508   9.037  12.151  0.00  0.00    +0.000 C 
ATOM      3  C   UNL     1      47.954   7.662  12.714  0.00  0.00    +0.000 C 
ATOM      4  C   UNL     1      49.272   7.311  11.975  0.00  0.00    +0.000 C 
BRANCH   3   5
ATOM      5  C   UNL     1      46.930   6.533  12.452  0.00  0.00    +0.000 A 
ATOM      6  C   UNL     1      46.049   6.567  11.358  0.00  0.00    +0.000 A 
ATOM      7  C   UNL     1      45.128   5.541  11.128  0.00  0.00    +0.000 A 
ATOM      8  C   UNL     1      45.065   4.441  11.983  0.00  0.00    +0.000 A 
ATOM      9  C   UNL     1      45.920   4.387  13.086  0.00  0.00    +0.000 A 
ATOM     10  C   UNL     1      46.840   5.422  13.315  0.00  0.00    +0.000 A 
BRANCH   8  11
ATOM     11  C   UNL     1      44.064   3.384  11.683  0.00  0.00    +0.000 C 
ATOM     12  N   UNL     1      43.868   2.409  12.621  0.00  0.00    +0.000 N 
ATOM     13  O   UNL     1      43.460   3.349  10.616  0.00  0.00    +0.000 OA
ATOM     14  H   UNL     1      44.513   2.255  13.383  0.00  0.00    +0.000 HD
ATOM     15  H   UNL     1      43.282   1.635  12.336  0.00  0.00    +0.000 HD
ENDBRANCH   8  11
ENDBRANCH   3   5
ENDBRANCH   1   3
BRANCH   1  16
ATOM     16  S   UNL     1      49.966   8.464  14.574  0.00  0.00    +0.000 S 
BRANCH  16  17
ATOM     17  C   UNL     1      50.501   7.380  15.885  0.00  0.00    +0.000 A 
ATOM     18  C   UNL     1      51.831   6.978  15.899  0.00  0.00    +0.000 A 
ATOM     19  C   UNL     1      52.279   6.185  16.949  0.00  0.00    +0.000 A 
ATOM     20  C   UNL     1      51.382   5.811  17.948  0.00  0.00    +0.000 A 
ATOM     21  C   UNL     1      50.064   6.229  17.842  0.00  0.00    +0.000 A 
ATOM     22  N   UNL     1      49.616   7.008  16.835  0.00  0.00    +0.000 NA
BRANCH  21  23
ATOM     23  O   UNL     1      49.093   5.942  18.768  0.00  0.00    +0.000 OA
BRANCH  23  24
ATOM     24  C   UNL     1      48.382   4.692  18.690  0.00  0.00    +0.000 C 
ATOM     25  C   UNL     1      48.950   3.609  17.747  0.00  0.00    +0.000 C 
ATOM     26  C   UNL     1      47.528   3.376  17.207  0.00  0.00    +0.000 C 
ATOM     27  F   UNL     1      47.426   3.259  15.865  0.00  0.00    +0.000 F 
ATOM     28  F   UNL     1      46.878   2.317  17.742  0.00  0.00    +0.000 F 
ATOM     29  C   UNL     1      47.131   4.743  17.786  0.00  0.00    +0.000 C 
ENDBRANCH  23  24
ENDBRANCH  21  23
ENDBRANCH  16  17
ENDBRANCH   1  16
TORSDOF 7
ENDMDL
MODEL 9
REMARK VINA RESULT:    -6.513      3.814      8.808
REMARK INTER + INTRA:         -10.137
REMARK INTER:                  -9.617
REMARK INTRA:                  -0.519
REMARK UNBOUND:                -0.958
REMARK  Name = 
REMARK  9 active torsions:
REMARK  status: ('A' for Active; 'I' for Inactive)
REMARK    1  A    between atoms: C_1  and  C_2
REMARK    2  A    between atoms: C_2  and  C_3
REMARK    3  A    between atoms: C_2  and  C_4
REMARK    4  A    between atoms: C_2  and  C_19
REMARK    5  A    between atoms: C_4  and  S_5
REMARK    6  A    between atoms: S_5  and  C_6
REMARK    7  A    between atoms: C_10  and  O_11
REMARK    8  A    between atoms: O_11  and  C_12
REMARK    9  A    between atoms: C_22  and  C_23
REMARK                            x       y       z     vdW  Elec       q    Type
REMARK                         _______ _______ _______ _____ _____    ______ ____
ROOT
ATOM      1  C   UNL     1      47.690   6.877  11.941  0.00  0.00    +0.000 C 
ENDROOT
BRANCH   1   3
ATOM      2  C   UNL     1      49.639   8.464  11.577  0.00  0.00    +0.000 C 
ATOM      3  C   UNL     1      48.589   7.969  12.606  0.00  0.00    +0.000 C 
ATOM      4  C   UNL     1      47.691   9.195  12.914  0.00  0.00    +0.000 C 
BRANCH   3   5
ATOM      5  C   UNL     1      49.216   7.475  13.930  0.00  0.00    +0.000 A 
ATOM      6  C   UNL     1      48.500   6.680  14.841  0.00  0.00    +0.000 A 
ATOM      7  C   UNL     1      49.076   6.237  16.035  0.00  0.00    +0.000 A 
ATOM      8  C   UNL     1      50.392   6.570  16.353  0.00  0.00    +0.000 A 
ATOM      9  C   UNL     1      51.123   7.371  15.473  0.00  0.00    +0.000 A 
ATOM     10  C   UNL     1      50.539   7.816  14.277  0.00  0.00    +0.000 A 
BRANCH   8  11
ATOM     11  C   UNL     1      50.945   6.067  17.637  0.00  0.00    +0.000 C 
ATOM     12  N   UNL     1      51.089   4.715  17.783  0.00  0.00    +0.000 N 
ATOM     13  O   UNL     1      51.225   6.823  18.562  0.00  0.00    +0.000 OA
ATOM     14  H   UNL     1      50.641   4.055  17.163  0.00  0.00    +0.000 HD
ATOM     15  H   UNL     1      51.341   4.396  18.709  0.00  0.00    +0.000 HD
ENDBRANCH   8  11
ENDBRANCH   3   5
ENDBRANCH   1   3
BRANCH   1  16
ATOM     16  S   UNL     1      45.891   7.125  12.205  0.00  0.00    +0.000 S 
BRANCH  16  17
ATOM     17  C   UNL     1      45.219   5.700  11.368  0.00  0.00    +0.000 A 
ATOM     18  C   UNL     1      44.426   4.826  12.101  0.00  0.00    +0.000 A 
ATOM     19  C   UNL     1      43.843   3.746  11.449  0.00  0.00    +0.000 A 
ATOM     20  C   UNL     1      44.077   3.568  10.087  0.00  0.00    +0.000 A 
ATOM     21  C   UNL     1      44.906   4.469   9.436  0.00  0.00    +0.000 A 
ATOM     22  N   UNL     1      45.470   5.529  10.053  0.00  0.00    +0.000 NA
BRANCH  21  23
ATOM     23  O   UNL     1      45.197   4.413   8.097  0.00  0.00    +0.000 OA
BRANCH  23  24
ATOM     24  C   UNL     1      45.448   3.137   7.476  0.00  0.00    +0.000 C 
ATOM     25  C   UNL     1      46.251   2.098   8.288  0.00  0.00    +0.000 C 
ATOM     26  C   UNL     1      47.101   1.821   7.036  0.00  0.00    +0.000 C 
ATOM     27  F   UNL     1      48.432   1.727   7.243  0.00  0.00    +0.000 F 
ATOM     28  F   UNL     1      46.739   0.726   6.328  0.00  0.00    +0.000 F 
ATOM     29  C   UNL     1      46.611   3.159   6.460  0.00  0.00    +0.000 C 
ENDBRANCH  23  24
ENDBRANCH  21  23
ENDBRANCH  16  17
ENDBRANCH   1  16
TORSDOF 7
ENDMDL
