MODEL 1
REMARK VINA RESULT:    -8.168      0.000      0.000
REMARK INTER + INTRA:         -12.106
REMARK INTER:                 -11.032
REMARK INTRA:                  -1.073
REMARK UNBOUND:                -1.073
REMARK  Name = 
REMARK  7 active torsions:
REMARK  status: ('A' for Active; 'I' for Inactive)
REMARK    1  A    between atoms: C_1  and  C_2
REMARK    2  A    between atoms: C_2  and  C_3
REMARK    3  A    between atoms: C_2  and  C_13
REMARK    4  A    between atoms: C_3  and  N_4
REMARK    5  A    between atoms: N_4  and  C_5
REMARK    6  A    between atoms: C_8  and  C_9
REMARK    7  A    between atoms: C_17  and  C_18
REMARK                            x       y       z     vdW  Elec       q    Type
REMARK                         _______ _______ _______ _____ _____    ______ ____
ROOT
ATOM      1  C   UNL     1      42.904   6.180  11.387  0.00  0.00    +0.000 C 
ATOM      2  C   UNL     1      43.582   5.048  12.172  0.00  0.00    +0.000 C 
ENDROOT
BRANCH   2   3
ATOM      3  C   UNL     1      45.033   5.406  12.470  0.00  0.00    +0.000 A 
ATOM      4  C   UNL     1      45.736   6.268  11.622  0.00  0.00    +0.000 A 
ATOM      5  C   UNL     1      47.055   6.614  11.912  0.00  0.00    +0.000 A 
ATOM      6  C   UNL     1      47.679   6.120  13.060  0.00  0.00    +0.000 A 
ATOM      7  C   UNL     1      47.002   5.271  13.952  0.00  0.00    +0.000 A 
ATOM      8  C   UNL     1      45.683   4.910  13.617  0.00  0.00    +0.000 A 
BRANCH   7   9
ATOM      9  C   UNL     1      47.622   4.809  15.213  0.00  0.00    +0.000 A 
ATOM     10  C   UNL     1      48.323   5.666  16.064  0.00  0.00    +0.000 A 
ATOM     11  C   UNL     1      48.908   5.153  17.209  0.00  0.00    +0.000 A 
ATOM     12  N   UNL     1      48.828   3.853  17.549  0.00  0.00    +0.000 NA
ATOM     13  N   UNL     1      48.154   3.002  16.743  0.00  0.00    +0.000 NA
ATOM     14  C   UNL     1      47.579   3.476  15.612  0.00  0.00    +0.000 A 
ENDBRANCH   7   9
ENDBRANCH   2   3
BRANCH   2  15
ATOM     15  C   UNL     1      43.505   3.688  11.436  0.00  0.00    +0.000 C 
BRANCH  15  16
ATOM     16  N   UNL     1      43.576   3.845   9.985  0.00  0.00    +0.000 N 
ATOM     17  H   UNL     1      43.175   4.696   9.606  0.00  0.00    +0.000 HD
BRANCH  16  18
ATOM     18  C   UNL     1      44.661   3.361   9.256  0.00  0.00    +0.000 A 
ATOM     19  C   UNL     1      45.000   2.006   9.171  0.00  0.00    +0.000 A 
ATOM     20  C   UNL     1      46.001   1.555   8.300  0.00  0.00    +0.000 A 
ATOM     21  C   UNL     1      46.677   2.459   7.478  0.00  0.00    +0.000 A 
ATOM     22  C   UNL     1      46.363   3.816   7.558  0.00  0.00    +0.000 A 
ATOM     23  C   UNL     1      45.363   4.257   8.435  0.00  0.00    +0.000 A 
BRANCH  21  24
ATOM     24  C   UNL     1      47.661   1.995   6.542  0.00  0.00    +0.000 C 
ATOM     25  N   UNL     1      48.445   1.616   5.777  0.00  0.00    +0.000 NA
ENDBRANCH  21  24
ENDBRANCH  16  18
ENDBRANCH  15  16
ENDBRANCH   2  15
TORSDOF 6
ENDMDL
MODEL 2
REMARK VINA RESULT:    -8.155      2.815      3.942
REMARK INTER + INTRA:         -12.089
REMARK INTER:                 -11.090
REMARK INTRA:                  -0.999
REMARK UNBOUND:                -1.073
REMARK  Name = 
REMARK  7 active torsions:
REMARK  status: ('A' for Active; 'I' for Inactive)
REMARK    1  A    between atoms: C_1  and  C_2
REMARK    2  A    between atoms: C_2  and  C_3
REMARK    3  A    between atoms: C_2  and  C_13
REMARK    4  A    between atoms: C_3  and  N_4
REMARK    5  A    between atoms: N_4  and  C_5
REMARK    6  A    between atoms: C_8  and  C_9
REMARK    7  A    between atoms: C_17  and  C_18
REMARK                            x       y       z     vdW  Elec       q    Type
REMARK                         _______ _______ _______ _____ _____    ______ ____
ROOT
ATOM      1  C   UNL     1      42.319   5.748  11.892  0.00  0.00    +0.000 C 
ATOM      2  C   UNL     1      43.274   4.672  12.426  0.00  0.00    +0.000 C 
ENDROOT
BRANCH   2   3
ATOM      3  C   UNL     1      44.633   5.283  12.746  0.00  0.00    +0.000 A 
ATOM      4  C   UNL     1      45.655   4.492  13.282  0.00  0.00    +0.000 A 
ATOM      5  C   UNL     1      46.904   5.048  13.549  0.00  0.00    +0.000 A 
ATOM      6  C   UNL     1      47.155   6.393  13.267  0.00  0.00    +0.000 A 
ATOM      7  C   UNL     1      46.165   7.218  12.706  0.00  0.00    +0.000 A 
ATOM      8  C   UNL     1      44.902   6.639  12.479  0.00  0.00    +0.000 A 
BRANCH   7   9
ATOM      9  C   UNL     1      46.442   8.620  12.325  0.00  0.00    +0.000 A 
ATOM     10  C   UNL     1      47.739   9.122  12.198  0.00  0.00    +0.000 A 
ATOM     11  C   UNL     1      47.919  10.456  11.874  0.00  0.00    +0.000 A 
ATOM     12  N   UNL     1      46.892  11.301  11.666  0.00  0.00    +0.000 NA
ATOM     13  N   UNL     1      45.626  10.840  11.783  0.00  0.00    +0.000 NA
ATOM     14  C   UNL     1      45.422   9.541  12.106  0.00  0.00    +0.000 A 
ENDBRANCH   7   9
ENDBRANCH   2   3
BRANCH   2  15
ATOM     15  C   UNL     1      43.438   3.486  11.444  0.00  0.00    +0.000 C 
BRANCH  15  16
ATOM     16  N   UNL     1      43.675   3.936  10.075  0.00  0.00    +0.000 N 
ATOM     17  H   UNL     1      43.454   4.905   9.876  0.00  0.00    +0.000 HD
BRANCH  16  18
ATOM     18  C   UNL     1      44.734   3.434   9.320  0.00  0.00    +0.000 A 
ATOM     19  C   UNL     1      45.036   2.072   9.212  0.00  0.00    +0.000 A 
ATOM     20  C   UNL     1      46.011   1.607   8.318  0.00  0.00    +0.000 A 
ATOM     21  C   UNL     1      46.696   2.505   7.496  0.00  0.00    +0.000 A 
ATOM     22  C   UNL     1      46.418   3.868   7.599  0.00  0.00    +0.000 A 
ATOM     23  C   UNL     1      45.445   4.323   8.500  0.00  0.00    +0.000 A 
BRANCH  21  24
ATOM     24  C   UNL     1      47.652   2.029   6.537  0.00  0.00    +0.000 C 
ATOM     25  N   UNL     1      48.414   1.649   5.751  0.00  0.00    +0.000 NA
ENDBRANCH  21  24
ENDBRANCH  16  18
ENDBRANCH  15  16
ENDBRANCH   2  15
TORSDOF 6
ENDMDL
MODEL 3
REMARK VINA RESULT:    -7.651      3.259      4.292
REMARK INTER + INTRA:         -11.408
REMARK INTER:                 -10.550
REMARK INTRA:                  -0.858
REMARK UNBOUND:                -1.073
REMARK  Name = 
REMARK  7 active torsions:
REMARK  status: ('A' for Active; 'I' for Inactive)
REMARK    1  A    between atoms: C_1  and  C_2
REMARK    2  A    between atoms: C_2  and  C_3
REMARK    3  A    between atoms: C_2  and  C_13
REMARK    4  A    between atoms: C_3  and  N_4
REMARK    5  A    between atoms: N_4  and  C_5
REMARK    6  A    between atoms: C_8  and  C_9
REMARK    7  A    between atoms: C_17  and  C_18
REMARK                            x       y       z     vdW  Elec       q    Type
REMARK                         _______ _______ _______ _____ _____    ______ ____
ROOT
ATOM      1  C   UNL     1      45.791   4.180  12.869  0.00  0.00    +0.000 C 
ATOM      2  C   UNL     1      45.618   5.092  11.647  0.00  0.00    +0.000 C 
ENDROOT
BRANCH   2   3
ATOM      3  C   UNL     1      46.108   6.501  11.964  0.00  0.00    +0.000 A 
ATOM      4  C   UNL     1      45.296   7.386  12.681  0.00  0.00    +0.000 A 
ATOM      5  C   UNL     1      45.757   8.664  12.992  0.00  0.00    +0.000 A 
ATOM      6  C   UNL     1      47.040   9.065  12.609  0.00  0.00    +0.000 A 
ATOM      7  C   UNL     1      47.897   8.199  11.908  0.00  0.00    +0.000 A 
ATOM      8  C   UNL     1      47.393   6.927  11.577  0.00  0.00    +0.000 A 
BRANCH   7   9
ATOM      9  C   UNL     1      49.285   8.581  11.571  0.00  0.00    +0.000 A 
ATOM     10  C   UNL     1      50.294   7.638  11.360  0.00  0.00    +0.000 A 
ATOM     11  C   UNL     1      51.579   8.072  11.084  0.00  0.00    +0.000 A 
ATOM     12  N   UNL     1      51.907   9.375  11.001  0.00  0.00    +0.000 NA
ATOM     13  N   UNL     1      50.949  10.308  11.201  0.00  0.00    +0.000 NA
ATOM     14  C   UNL     1      49.685   9.911  11.480  0.00  0.00    +0.000 A 
ENDBRANCH   7   9
ENDBRANCH   2   3
BRANCH   2  15
ATOM     15  C   UNL     1      44.155   5.135  11.142  0.00  0.00    +0.000 C 
BRANCH  15  16
ATOM     16  N   UNL     1      43.811   3.954  10.354  0.00  0.00    +0.000 N 
ATOM     17  H   UNL     1      42.824   3.804  10.177  0.00  0.00    +0.000 HD
BRANCH  16  18
ATOM     18  C   UNL     1      44.641   3.499   9.331  0.00  0.00    +0.000 A 
ATOM     19  C   UNL     1      45.289   4.342   8.421  0.00  0.00    +0.000 A 
ATOM     20  C   UNL     1      46.235   3.850   7.512  0.00  0.00    +0.000 A 
ATOM     21  C   UNL     1      46.567   2.492   7.509  0.00  0.00    +0.000 A 
ATOM     22  C   UNL     1      45.923   1.634   8.400  0.00  0.00    +0.000 A 
ATOM     23  C   UNL     1      44.975   2.136   9.301  0.00  0.00    +0.000 A 
BRANCH  21  24
ATOM     24  C   UNL     1      47.579   1.993   6.622  0.00  0.00    +0.000 C 
ATOM     25  N   UNL     1      48.386   1.581   5.899  0.00  0.00    +0.000 NA
ENDBRANCH  21  24
ENDBRANCH  16  18
ENDBRANCH  15  16
ENDBRANCH   2  15
TORSDOF 6
ENDMDL
MODEL 4
REMARK VINA RESULT:    -6.976      1.495      7.757
REMARK INTER + INTRA:         -10.496
REMARK INTER:                  -9.721
REMARK INTRA:                  -0.775
REMARK UNBOUND:                -1.073
REMARK  Name = 
REMARK  7 active torsions:
REMARK  status: ('A' for Active; 'I' for Inactive)
REMARK    1  A    between atoms: C_1  and  C_2
REMARK    2  A    between atoms: C_2  and  C_3
REMARK    3  A    between atoms: C_2  and  C_13
REMARK    4  A    between atoms: C_3  and  N_4
REMARK    5  A    between atoms: N_4  and  C_5
REMARK    6  A    between atoms: C_8  and  C_9
REMARK    7  A    between atoms: C_17  and  C_18
REMARK                            x       y       z     vdW  Elec       q    Type
REMARK                         _______ _______ _______ _____ _____    ______ ____
ROOT
ATOM      1  C   UNL     1      43.282   7.093  11.138  0.00  0.00    +0.000 C 
ATOM      2  C   UNL     1      44.668   6.435  11.180  0.00  0.00    +0.000 C 
ENDROOT
BRANCH   2   3
ATOM      3  C   UNL     1      44.569   4.967  10.784  0.00  0.00    +0.000 A 
ATOM      4  C   UNL     1      43.682   4.114  11.449  0.00  0.00    +0.000 A 
ATOM      5  C   UNL     1      43.575   2.778  11.067  0.00  0.00    +0.000 A 
ATOM      6  C   UNL     1      44.336   2.284  10.004  0.00  0.00    +0.000 A 
ATOM      7  C   UNL     1      45.220   3.112   9.292  0.00  0.00    +0.000 A 
ATOM      8  C   UNL     1      45.334   4.447   9.722  0.00  0.00    +0.000 A 
BRANCH   7   9
ATOM      9  C   UNL     1      45.968   2.624   8.113  0.00  0.00    +0.000 A 
ATOM     10  C   UNL     1      46.231   3.430   7.003  0.00  0.00    +0.000 A 
ATOM     11  C   UNL     1      46.904   2.891   5.920  0.00  0.00    +0.000 A 
ATOM     12  N   UNL     1      47.329   1.614   5.887  0.00  0.00    +0.000 NA
ATOM     13  N   UNL     1      47.088   0.813   6.949  0.00  0.00    +0.000 NA
ATOM     14  C   UNL     1      46.424   1.312   8.018  0.00  0.00    +0.000 A 
ENDBRANCH   7   9
ENDBRANCH   2   3
BRANCH   2  15
ATOM     15  C   UNL     1      45.347   6.572  12.565  0.00  0.00    +0.000 C 
BRANCH  15  16
ATOM     16  N   UNL     1      46.633   5.882  12.615  0.00  0.00    +0.000 N 
ATOM     17  H   UNL     1      47.279   6.080  11.859  0.00  0.00    +0.000 HD
BRANCH  16  18
ATOM     18  C   UNL     1      47.259   5.602  13.829  0.00  0.00    +0.000 A 
ATOM     19  C   UNL     1      48.148   6.476  14.466  0.00  0.00    +0.000 A 
ATOM     20  C   UNL     1      48.626   6.219  15.758  0.00  0.00    +0.000 A 
ATOM     21  C   UNL     1      48.206   5.080  16.450  0.00  0.00    +0.000 A 
ATOM     22  C   UNL     1      47.331   4.191  15.827  0.00  0.00    +0.000 A 
ATOM     23  C   UNL     1      46.862   4.455  14.533  0.00  0.00    +0.000 A 
BRANCH  21  24
ATOM     24  C   UNL     1      48.646   4.844  17.796  0.00  0.00    +0.000 C 
ATOM     25  N   UNL     1      48.989   4.659  18.887  0.00  0.00    +0.000 NA
ENDBRANCH  21  24
ENDBRANCH  16  18
ENDBRANCH  15  16
ENDBRANCH   2  15
TORSDOF 6
ENDMDL
MODEL 5
REMARK VINA RESULT:    -6.509      2.849      7.627
REMARK INTER + INTRA:          -9.866
REMARK INTER:                  -8.918
REMARK INTRA:                  -0.948
REMARK UNBOUND:                -1.073
REMARK  Name = 
REMARK  7 active torsions:
REMARK  status: ('A' for Active; 'I' for Inactive)
REMARK    1  A    between atoms: C_1  and  C_2
REMARK    2  A    between atoms: C_2  and  C_3
REMARK    3  A    between atoms: C_2  and  C_13
REMARK    4  A    between atoms: C_3  and  N_4
REMARK    5  A    between atoms: N_4  and  C_5
REMARK    6  A    between atoms: C_8  and  C_9
REMARK    7  A    between atoms: C_17  and  C_18
REMARK                            x       y       z     vdW  Elec       q    Type
REMARK                         _______ _______ _______ _____ _____    ______ ____
ROOT
ATOM      1  C   UNL     1      50.031   7.877  13.841  0.00  0.00    +0.000 C 
ATOM      2  C   UNL     1      48.928   7.019  14.476  0.00  0.00    +0.000 C 
ENDROOT
BRANCH   2   3
ATOM      3  C   UNL     1      47.605   7.236  13.751  0.00  0.00    +0.000 A 
ATOM      4  C   UNL     1      47.163   8.531  13.462  0.00  0.00    +0.000 A 
ATOM      5  C   UNL     1      45.965   8.726  12.775  0.00  0.00    +0.000 A 
ATOM      6  C   UNL     1      45.207   7.631  12.353  0.00  0.00    +0.000 A 
ATOM      7  C   UNL     1      45.626   6.313  12.601  0.00  0.00    +0.000 A 
ATOM      8  C   UNL     1      46.821   6.146  13.326  0.00  0.00    +0.000 A 
BRANCH   7   9
ATOM      9  C   UNL     1      44.877   5.146  12.087  0.00  0.00    +0.000 A 
ATOM     10  C   UNL     1      44.520   5.015  10.743  0.00  0.00    +0.000 A 
ATOM     11  C   UNL     1      43.785   3.912  10.343  0.00  0.00    +0.000 A 
ATOM     12  N   UNL     1      43.400   2.944  11.195  0.00  0.00    +0.000 NA
ATOM     13  N   UNL     1      43.733   3.046  12.502  0.00  0.00    +0.000 NA
ATOM     14  C   UNL     1      44.444   4.119  12.921  0.00  0.00    +0.000 A 
ENDBRANCH   7   9
ENDBRANCH   2   3
BRANCH   2  15
ATOM     15  C   UNL     1      48.761   7.294  15.990  0.00  0.00    +0.000 C 
BRANCH  15  16
ATOM     16  N   UNL     1      48.100   6.188  16.680  0.00  0.00    +0.000 N 
ATOM     17  H   UNL     1      47.123   6.039  16.455  0.00  0.00    +0.000 HD
BRANCH  16  18
ATOM     18  C   UNL     1      48.789   5.019  16.998  0.00  0.00    +0.000 A 
ATOM     19  C   UNL     1      48.267   3.733  16.815  0.00  0.00    +0.000 A 
ATOM     20  C   UNL     1      49.055   2.590  17.001  0.00  0.00    +0.000 A 
ATOM     21  C   UNL     1      50.399   2.713  17.362  0.00  0.00    +0.000 A 
ATOM     22  C   UNL     1      50.934   3.986  17.563  0.00  0.00    +0.000 A 
ATOM     23  C   UNL     1      50.136   5.123  17.378  0.00  0.00    +0.000 A 
BRANCH  21  24
ATOM     24  C   UNL     1      51.227   1.548  17.496  0.00  0.00    +0.000 C 
ATOM     25  N   UNL     1      51.898   0.612  17.617  0.00  0.00    +0.000 NA
ENDBRANCH  21  24
ENDBRANCH  16  18
ENDBRANCH  15  16
ENDBRANCH   2  15
TORSDOF 6
ENDMDL
MODEL 6
REMARK VINA RESULT:    -6.376      1.752      2.418
REMARK INTER + INTRA:          -9.686
REMARK INTER:                  -8.755
REMARK INTRA:                  -0.931
REMARK UNBOUND:                -1.073
REMARK  Name = 
REMARK  7 active torsions:
REMARK  status: ('A' for Active; 'I' for Inactive)
REMARK    1  A    between atoms: C_1  and  C_2
REMARK    2  A    between atoms: C_2  and  C_3
REMARK    3  A    between atoms: C_2  and  C_13
REMARK    4  A    between atoms: C_3  and  N_4
REMARK    5  A    between atoms: N_4  and  C_5
REMARK    6  A    between atoms: C_8  and  C_9
REMARK    7  A    between atoms: C_17  and  C_18
REMARK                            x       y       z     vdW  Elec       q    Type
REMARK                         _______ _______ _______ _____ _____    ______ ____
ROOT
ATOM      1  C   UNL     1      44.430   7.323  11.517  0.00  0.00    +0.000 C 
ATOM      2  C   UNL     1      45.084   6.355  12.513  0.00  0.00    +0.000 C 
ENDROOT
BRANCH   2   3
ATOM      3  C   UNL     1      46.559   6.695  12.690  0.00  0.00    +0.000 A 
ATOM      4  C   UNL     1      47.359   6.973  11.576  0.00  0.00    +0.000 A 
ATOM      5  C   UNL     1      48.701   7.309  11.744  0.00  0.00    +0.000 A 
ATOM      6  C   UNL     1      49.255   7.391  13.024  0.00  0.00    +0.000 A 
ATOM      7  C   UNL     1      48.482   7.144  14.171  0.00  0.00    +0.000 A 
ATOM      8  C   UNL     1      47.139   6.772  13.971  0.00  0.00    +0.000 A 
BRANCH   7   9
ATOM      9  C   UNL     1      49.033   7.309  15.533  0.00  0.00    +0.000 A 
ATOM     10  C   UNL     1      48.907   8.498  16.256  0.00  0.00    +0.000 A 
ATOM     11  C   UNL     1      49.482   8.590  17.512  0.00  0.00    +0.000 A 
ATOM     12  N   UNL     1      50.159   7.575  18.081  0.00  0.00    +0.000 NA
ATOM     13  N   UNL     1      50.295   6.413  17.402  0.00  0.00    +0.000 NA
ATOM     14  C   UNL     1      49.749   6.299  16.168  0.00  0.00    +0.000 A 
ENDBRANCH   7   9
ENDBRANCH   2   3
BRANCH   2  15
ATOM     15  C   UNL     1      44.922   4.874  12.093  0.00  0.00    +0.000 C 
BRANCH  15  16
ATOM     16  N   UNL     1      44.266   4.740  10.794  0.00  0.00    +0.000 N 
ATOM     17  H   UNL     1      43.666   5.508  10.514  0.00  0.00    +0.000 HD
BRANCH  16  18
ATOM     18  C   UNL     1      44.894   4.099   9.727  0.00  0.00    +0.000 A 
ATOM     19  C   UNL     1      45.646   4.765   8.752  0.00  0.00    +0.000 A 
ATOM     20  C   UNL     1      46.387   4.061   7.793  0.00  0.00    +0.000 A 
ATOM     21  C   UNL     1      46.403   2.664   7.802  0.00  0.00    +0.000 A 
ATOM     22  C   UNL     1      45.650   1.983   8.758  0.00  0.00    +0.000 A 
ATOM     23  C   UNL     1      44.909   2.696   9.711  0.00  0.00    +0.000 A 
BRANCH  21  24
ATOM     24  C   UNL     1      47.208   1.940   6.860  0.00  0.00    +0.000 C 
ATOM     25  N   UNL     1      47.868   1.354   6.109  0.00  0.00    +0.000 NA
ENDBRANCH  21  24
ENDBRANCH  16  18
ENDBRANCH  15  16
ENDBRANCH   2  15
TORSDOF 6
ENDMDL
MODEL 7
REMARK VINA RESULT:    -6.172      2.738      7.653
REMARK INTER + INTRA:          -9.410
REMARK INTER:                  -8.645
REMARK INTRA:                  -0.765
REMARK UNBOUND:                -1.073
REMARK  Name = 
REMARK  7 active torsions:
REMARK  status: ('A' for Active; 'I' for Inactive)
REMARK    1  A    between atoms: C_1  and  C_2
REMARK    2  A    between atoms: C_2  and  C_3
REMARK    3  A    between atoms: C_2  and  C_13
REMARK    4  A    between atoms: C_3  and  N_4
REMARK    5  A    between atoms: N_4  and  C_5
REMARK    6  A    between atoms: C_8  and  C_9
REMARK    7  A    between atoms: C_17  and  C_18
REMARK                            x       y       z     vdW  Elec       q    Type
REMARK                         _______ _______ _______ _____ _____    ______ ____
ROOT
ATOM      1  C   UNL     1      44.276   6.049  12.916  0.00  0.00    +0.000 C 
ATOM      2  C   UNL     1      44.545   6.029  11.405  0.00  0.00    +0.000 C 
ENDROOT
BRANCH   2   3
ATOM      3  C   UNL     1      44.488   4.600  10.877  0.00  0.00    +0.000 A 
ATOM      4  C   UNL     1      43.598   3.676  11.434  0.00  0.00    +0.000 A 
ATOM      5  C   UNL     1      43.530   2.378  10.931  0.00  0.00    +0.000 A 
ATOM      6  C   UNL     1      44.334   1.994   9.854  0.00  0.00    +0.000 A 
ATOM      7  C   UNL     1      45.224   2.897   9.249  0.00  0.00    +0.000 A 
ATOM      8  C   UNL     1      45.298   4.191   9.800  0.00  0.00    +0.000 A 
BRANCH   7   9
ATOM      9  C   UNL     1      46.019   2.529   8.057  0.00  0.00    +0.000 A 
ATOM     10  C   UNL     1      46.293   3.433   7.028  0.00  0.00    +0.000 A 
ATOM     11  C   UNL     1      47.012   3.005   5.926  0.00  0.00    +0.000 A 
ATOM     12  N   UNL     1      47.472   1.746   5.798  0.00  0.00    +0.000 NA
ATOM     13  N   UNL     1      47.220   0.851   6.781  0.00  0.00    +0.000 NA
ATOM     14  C   UNL     1      46.512   1.242   7.867  0.00  0.00    +0.000 A 
ENDBRANCH   7   9
ENDBRANCH   2   3
BRANCH   2  15
ATOM     15  C   UNL     1      45.899   6.683  11.036  0.00  0.00    +0.000 C 
BRANCH  15  16
ATOM     16  N   UNL     1      46.331   7.653  12.039  0.00  0.00    +0.000 N 
ATOM     17  H   UNL     1      45.640   7.922  12.730  0.00  0.00    +0.000 HD
BRANCH  16  18
ATOM     18  C   UNL     1      47.641   7.666  12.517  0.00  0.00    +0.000 A 
ATOM     19  C   UNL     1      48.690   8.353  11.896  0.00  0.00    +0.000 A 
ATOM     20  C   UNL     1      49.949   8.466  12.499  0.00  0.00    +0.000 A 
ATOM     21  C   UNL     1      50.180   7.902  13.757  0.00  0.00    +0.000 A 
ATOM     22  C   UNL     1      49.150   7.202  14.386  0.00  0.00    +0.000 A 
ATOM     23  C   UNL     1      47.896   7.091  13.771  0.00  0.00    +0.000 A 
BRANCH  21  24
ATOM     24  C   UNL     1      51.450   8.066  14.406  0.00  0.00    +0.000 C 
ATOM     25  N   UNL     1      52.480   8.187  14.921  0.00  0.00    +0.000 NA
ENDBRANCH  21  24
ENDBRANCH  16  18
ENDBRANCH  15  16
ENDBRANCH   2  15
TORSDOF 6
ENDMDL
MODEL 8
REMARK VINA RESULT:    -6.145      2.884      5.918
REMARK INTER + INTRA:          -9.373
REMARK INTER:                  -8.356
REMARK INTRA:                  -1.017
REMARK UNBOUND:                -1.073
REMARK  Name = 
REMARK  7 active torsions:
REMARK  status: ('A' for Active; 'I' for Inactive)
REMARK    1  A    between atoms: C_1  and  C_2
REMARK    2  A    between atoms: C_2  and  C_3
REMARK    3  A    between atoms: C_2  and  C_13
REMARK    4  A    between atoms: C_3  and  N_4
REMARK    5  A    between atoms: N_4  and  C_5
REMARK    6  A    between atoms: C_8  and  C_9
REMARK    7  A    between atoms: C_17  and  C_18
REMARK                            x       y       z     vdW  Elec       q    Type
REMARK                         _______ _______ _______ _____ _____    ______ ____
ROOT
ATOM      1  C   UNL     1      50.065   9.952  16.642  0.00  0.00    +0.000 C 
ATOM      2  C   UNL     1      48.690   9.341  16.339  0.00  0.00    +0.000 C 
ENDROOT
BRANCH   2   3
ATOM      3  C   UNL     1      48.427   8.149  17.252  0.00  0.00    +0.000 A 
ATOM      4  C   UNL     1      47.787   8.329  18.482  0.00  0.00    +0.000 A 
ATOM      5  C   UNL     1      47.525   7.233  19.303  0.00  0.00    +0.000 A 
ATOM      6  C   UNL     1      47.880   5.945  18.896  0.00  0.00    +0.000 A 
ATOM      7  C   UNL     1      48.503   5.716  17.657  0.00  0.00    +0.000 A 
ATOM      8  C   UNL     1      48.787   6.844  16.864  0.00  0.00    +0.000 A 
BRANCH   7   9
ATOM      9  C   UNL     1      48.808   4.351  17.177  0.00  0.00    +0.000 A 
ATOM     10  C   UNL     1      49.898   3.614  17.648  0.00  0.00    +0.000 A 
ATOM     11  C   UNL     1      50.142   2.357  17.125  0.00  0.00    +0.000 A 
ATOM     12  N   UNL     1      49.366   1.798  16.177  0.00  0.00    +0.000 NA
ATOM     13  N   UNL     1      48.305   2.490  15.703  0.00  0.00    +0.000 NA
ATOM     14  C   UNL     1      48.048   3.726  16.193  0.00  0.00    +0.000 A 
ENDBRANCH   7   9
ENDBRANCH   2   3
BRANCH   2  15
ATOM     15  C   UNL     1      48.541   8.923  14.856  0.00  0.00    +0.000 C 
BRANCH  15  16
ATOM     16  N   UNL     1      47.143   8.903  14.430  0.00  0.00    +0.000 N 
ATOM     17  H   UNL     1      46.662   9.796  14.426  0.00  0.00    +0.000 HD
BRANCH  16  18
ATOM     18  C   UNL     1      46.698   8.021  13.447  0.00  0.00    +0.000 A 
ATOM     19  C   UNL     1      47.196   6.723  13.283  0.00  0.00    +0.000 A 
ATOM     20  C   UNL     1      46.607   5.822  12.385  0.00  0.00    +0.000 A 
ATOM     21  C   UNL     1      45.488   6.201  11.639  0.00  0.00    +0.000 A 
ATOM     22  C   UNL     1      44.987   7.495  11.779  0.00  0.00    +0.000 A 
ATOM     23  C   UNL     1      45.585   8.390  12.677  0.00  0.00    +0.000 A 
BRANCH  21  24
ATOM     24  C   UNL     1      44.846   5.263  10.763  0.00  0.00    +0.000 C 
ATOM     25  N   UNL     1      44.340   4.505  10.048  0.00  0.00    +0.000 NA
ENDBRANCH  21  24
ENDBRANCH  16  18
ENDBRANCH  15  16
ENDBRANCH   2  15
TORSDOF 6
ENDMDL
MODEL 9
REMARK VINA RESULT:    -5.953      2.814      4.825
REMARK INTER + INTRA:          -9.114
REMARK INTER:                  -7.939
REMARK INTRA:                  -1.175
REMARK UNBOUND:                -1.073
REMARK  Name = 
REMARK  7 active torsions:
REMARK  status: ('A' for Active; 'I' for Inactive)
REMARK    1  A    between atoms: C_1  and  C_2
REMARK    2  A    between atoms: C_2  and  C_3
REMARK    3  A    between atoms: C_2  and  C_13
REMARK    4  A    between atoms: C_3  and  N_4
REMARK    5  A    between atoms: N_4  and  C_5
REMARK    6  A    between atoms: C_8  and  C_9
REMARK    7  A    between atoms: C_17  and  C_18
REMARK                            x       y       z     vdW  Elec       q    Type
REMARK                         _______ _______ _______ _____ _____    ______ ____
ROOT
ATOM      1  C   UNL     1      49.446   8.755  11.928  0.00  0.00    +0.000 C 
ATOM      2  C   UNL     1      48.670   8.849  13.249  0.00  0.00    +0.000 C 
ENDROOT
BRANCH   2   3
ATOM      3  C   UNL     1      49.380   8.053  14.338  0.00  0.00    +0.000 A 
ATOM      4  C   UNL     1      50.630   8.465  14.813  0.00  0.00    +0.000 A 
ATOM      5  C   UNL     1      51.264   7.750  15.827  0.00  0.00    +0.000 A 
ATOM      6  C   UNL     1      50.651   6.629  16.392  0.00  0.00    +0.000 A 
ATOM      7  C   UNL     1      49.385   6.195  15.962  0.00  0.00    +0.000 A 
ATOM      8  C   UNL     1      48.783   6.915  14.913  0.00  0.00    +0.000 A 
BRANCH   7   9
ATOM      9  C   UNL     1      48.688   5.062  16.609  0.00  0.00    +0.000 A 
ATOM     10  C   UNL     1      49.269   4.305  17.629  0.00  0.00    +0.000 A 
ATOM     11  C   UNL     1      48.569   3.236  18.160  0.00  0.00    +0.000 A 
ATOM     12  N   UNL     1      47.338   2.888  17.740  0.00  0.00    +0.000 NA
ATOM     13  N   UNL     1      46.753   3.605  16.753  0.00  0.00    +0.000 NA
ATOM     14  C   UNL     1      47.419   4.652  16.211  0.00  0.00    +0.000 A 
ENDBRANCH   7   9
ENDBRANCH   2   3
BRANCH   2  15
ATOM     15  C   UNL     1      47.203   8.375  13.110  0.00  0.00    +0.000 C 
BRANCH  15  16
ATOM     16  N   UNL     1      46.980   7.639  11.867  0.00  0.00    +0.000 N 
ATOM     17  H   UNL     1      47.715   7.701  11.171  0.00  0.00    +0.000 HD
BRANCH  16  18
ATOM     18  C   UNL     1      46.295   6.426  11.857  0.00  0.00    +0.000 A 
ATOM     19  C   UNL     1      45.877   5.757  13.013  0.00  0.00    +0.000 A 
ATOM     20  C   UNL     1      45.056   4.624  12.947  0.00  0.00    +0.000 A 
ATOM     21  C   UNL     1      44.620   4.142  11.710  0.00  0.00    +0.000 A 
ATOM     22  C   UNL     1      45.036   4.787  10.545  0.00  0.00    +0.000 A 
ATOM     23  C   UNL     1      45.861   5.918  10.623  0.00  0.00    +0.000 A 
BRANCH  21  24
ATOM     24  C   UNL     1      43.730   3.018  11.640  0.00  0.00    +0.000 C 
ATOM     25  N   UNL     1      43.018   2.106  11.570  0.00  0.00    +0.000 NA
ENDBRANCH  21  24
ENDBRANCH  16  18
ENDBRANCH  15  16
ENDBRANCH   2  15
TORSDOF 6
ENDMDL
