MODEL 1
REMARK VINA RESULT:    -7.677      0.000      0.000
REMARK INTER + INTRA:          -9.925
REMARK INTER:                  -9.473
REMARK INTRA:                  -0.453
REMARK UNBOUND:                -0.453
REMARK  Name = 
REMARK  4 active torsions:
REMARK  status: ('A' for Active; 'I' for Inactive)
REMARK    1  A    between atoms: C_2  and  C_4
REMARK    2  A    between atoms: C_7  and  C_8
REMARK    3  A    between atoms: C_8  and  C_9
REMARK    4  A    between atoms: C_9  and  C_10
REMARK                            x       y       z     vdW  Elec       q    Type
REMARK                         _______ _______ _______ _____ _____    ______ ____
ROOT
ATOM      1  C   UNL     1      46.427   2.461   7.740  0.00  0.00    +0.000 A 
ATOM      2  C   UNL     1      45.648   1.764   8.663  0.00  0.00    +0.000 A 
ATOM      3  C   UNL     1      44.757   2.467   9.476  0.00  0.00    +0.000 A 
ATOM      4  C   UNL     1      44.664   3.852   9.344  0.00  0.00    +0.000 A 
ATOM      5  N   UNL     1      45.436   4.544   8.468  0.00  0.00    +0.000 NA
ATOM      6  C   UNL     1      46.301   3.841   7.695  0.00  0.00    +0.000 A 
ENDROOT
BRANCH   1   8
ATOM      7  N   UNL     1      48.472   2.521   6.429  0.00  0.00    +0.000 N 
ATOM      8  C   UNL     1      47.381   1.798   6.827  0.00  0.00    +0.000 C 
ATOM      9  O   UNL     1      47.226   0.638   6.470  0.00  0.00    +0.000 OA
ATOM     10  H   UNL     1      49.171   2.020   5.897  0.00  0.00    +0.000 HD
ATOM     11  H   UNL     1      48.761   3.367   6.899  0.00  0.00    +0.000 HD
ENDBRANCH   1   8
BRANCH   4  12
ATOM     12  C   UNL     1      43.706   4.650  10.196  0.00  0.00    +0.000 C 
BRANCH  12  13
ATOM     13  C   UNL     1      43.647   4.103  11.619  0.00  0.00    +0.000 C 
BRANCH  13  14
ATOM     14  C   UNL     1      44.858   4.498  12.416  0.00  0.00    +0.000 A 
ATOM     15  N   UNL     1      45.605   3.511  12.948  0.00  0.00    +0.000 NA
ATOM     16  C   UNL     1      46.718   3.886  13.607  0.00  0.00    +0.000 A 
ATOM     17  C   UNL     1      47.104   5.196  13.760  0.00  0.00    +0.000 A 
ATOM     18  C   UNL     1      46.263   6.128  13.200  0.00  0.00    +0.000 A 
ATOM     19  N   UNL     1      45.137   5.812  12.532  0.00  0.00    +0.000 NA
ENDBRANCH  13  14
ENDBRANCH  12  13
ENDBRANCH   4  12
TORSDOF 4
ENDMDL
MODEL 2
REMARK VINA RESULT:    -7.037      2.762      6.104
REMARK INTER + INTRA:          -9.136
REMARK INTER:                  -8.729
REMARK INTRA:                  -0.406
REMARK UNBOUND:                -0.453
REMARK  Name = 
REMARK  4 active torsions:
REMARK  status: ('A' for Active; 'I' for Inactive)
REMARK    1  A    between atoms: C_2  and  C_4
REMARK    2  A    between atoms: C_7  and  C_8
REMARK    3  A    between atoms: C_8  and  C_9
REMARK    4  A    between atoms: C_9  and  C_10
REMARK                            x       y       z     vdW  Elec       q    Type
REMARK                         _______ _______ _______ _____ _____    ______ ____
ROOT
ATOM      1  C   UNL     1      46.491   4.863  13.272  0.00  0.00    +0.000 A 
ATOM      2  C   UNL     1      46.330   5.866  12.317  0.00  0.00    +0.000 A 
ATOM      3  C   UNL     1      45.605   5.594  11.155  0.00  0.00    +0.000 A 
ATOM      4  C   UNL     1      45.057   4.324  10.977  0.00  0.00    +0.000 A 
ATOM      5  N   UNL     1      45.230   3.332  11.887  0.00  0.00    +0.000 NA
ATOM      6  C   UNL     1      45.945   3.617  13.004  0.00  0.00    +0.000 A 
ENDROOT
BRANCH   1   8
ATOM      7  N   UNL     1      46.792   4.369  15.632  0.00  0.00    +0.000 N 
ATOM      8  C   UNL     1      47.225   5.067  14.538  0.00  0.00    +0.000 C 
ATOM      9  O   UNL     1      48.204   5.799  14.602  0.00  0.00    +0.000 OA
ATOM     10  H   UNL     1      47.369   4.432  16.461  0.00  0.00    +0.000 HD
ATOM     11  H   UNL     1      46.168   3.578  15.557  0.00  0.00    +0.000 HD
ENDBRANCH   1   8
BRANCH   4  12
ATOM     12  C   UNL     1      44.258   3.990   9.740  0.00  0.00    +0.000 C 
BRANCH  12  13
ATOM     13  C   UNL     1      44.452   2.532   9.336  0.00  0.00    +0.000 C 
BRANCH  13  14
ATOM     14  C   UNL     1      45.554   2.378   8.326  0.00  0.00    +0.000 A 
ATOM     15  N   UNL     1      46.204   1.199   8.284  0.00  0.00    +0.000 NA
ATOM     16  C   UNL     1      47.146   1.063   7.332  0.00  0.00    +0.000 A 
ATOM     17  C   UNL     1      47.466   2.052   6.434  0.00  0.00    +0.000 A 
ATOM     18  C   UNL     1      46.761   3.225   6.573  0.00  0.00    +0.000 A 
ATOM     19  N   UNL     1      45.810   3.418   7.507  0.00  0.00    +0.000 NA
ENDBRANCH  13  14
ENDBRANCH  12  13
ENDBRANCH   4  12
TORSDOF 4
ENDMDL
MODEL 3
REMARK VINA RESULT:    -6.608      2.769      6.014
REMARK INTER + INTRA:          -8.605
REMARK INTER:                  -8.175
REMARK INTRA:                  -0.430
REMARK UNBOUND:                -0.453
REMARK  Name = 
REMARK  4 active torsions:
REMARK  status: ('A' for Active; 'I' for Inactive)
REMARK    1  A    between atoms: C_2  and  C_4
REMARK    2  A    between atoms: C_7  and  C_8
REMARK    3  A    between atoms: C_8  and  C_9
REMARK    4  A    between atoms: C_9  and  C_10
REMARK                            x       y       z     vdW  Elec       q    Type
REMARK                         _______ _______ _______ _____ _____    ______ ____
ROOT
ATOM      1  C   UNL     1      46.730   5.309  13.429  0.00  0.00    +0.000 A 
ATOM      2  C   UNL     1      46.483   3.940  13.535  0.00  0.00    +0.000 A 
ATOM      3  C   UNL     1      45.602   3.332  12.640  0.00  0.00    +0.000 A 
ATOM      4  C   UNL     1      44.990   4.108  11.656  0.00  0.00    +0.000 A 
ATOM      5  N   UNL     1      45.201   5.445  11.559  0.00  0.00    +0.000 NA
ATOM      6  C   UNL     1      46.054   6.015  12.446  0.00  0.00    +0.000 A 
ENDROOT
BRANCH   1   8
ATOM      7  N   UNL     1      47.659   7.397  14.254  0.00  0.00    +0.000 N 
ATOM      8  C   UNL     1      47.662   6.030  14.320  0.00  0.00    +0.000 C 
ATOM      9  O   UNL     1      48.379   5.437  15.114  0.00  0.00    +0.000 OA
ATOM     10  H   UNL     1      48.218   7.880  14.945  0.00  0.00    +0.000 HD
ATOM     11  H   UNL     1      46.914   7.916  13.811  0.00  0.00    +0.000 HD
ENDBRANCH   1   8
BRANCH   4  12
ATOM     12  C   UNL     1      44.037   3.489  10.661  0.00  0.00    +0.000 C 
BRANCH  12  13
ATOM     13  C   UNL     1      44.227   4.089   9.271  0.00  0.00    +0.000 C 
BRANCH  13  14
ATOM     14  C   UNL     1      45.253   3.332   8.475  0.00  0.00    +0.000 A 
ATOM     15  N   UNL     1      45.978   4.021   7.574  0.00  0.00    +0.000 NA
ATOM     16  C   UNL     1      46.931   3.336   6.916  0.00  0.00    +0.000 A 
ATOM     17  C   UNL     1      47.181   2.000   7.117  0.00  0.00    +0.000 A 
ATOM     18  C   UNL     1      46.373   1.382   8.043  0.00  0.00    +0.000 A 
ATOM     19  N   UNL     1      45.403   2.016   8.729  0.00  0.00    +0.000 NA
ENDBRANCH  13  14
ENDBRANCH  12  13
ENDBRANCH   4  12
TORSDOF 4
ENDMDL
MODEL 4
REMARK VINA RESULT:    -6.572      1.694      2.534
REMARK INTER + INTRA:          -8.561
REMARK INTER:                  -8.185
REMARK INTRA:                  -0.376
REMARK UNBOUND:                -0.453
REMARK  Name = 
REMARK  4 active torsions:
REMARK  status: ('A' for Active; 'I' for Inactive)
REMARK    1  A    between atoms: C_2  and  C_4
REMARK    2  A    between atoms: C_7  and  C_8
REMARK    3  A    between atoms: C_8  and  C_9
REMARK    4  A    between atoms: C_9  and  C_10
REMARK                            x       y       z     vdW  Elec       q    Type
REMARK                         _______ _______ _______ _____ _____    ______ ____
ROOT
ATOM      1  C   UNL     1      46.281   2.333   7.987  0.00  0.00    +0.000 A 
ATOM      2  C   UNL     1      46.389   3.717   7.856  0.00  0.00    +0.000 A 
ATOM      3  C   UNL     1      45.559   4.543   8.616  0.00  0.00    +0.000 A 
ATOM      4  C   UNL     1      44.641   3.964   9.491  0.00  0.00    +0.000 A 
ATOM      5  N   UNL     1      44.508   2.618   9.607  0.00  0.00    +0.000 NA
ATOM      6  C   UNL     1      45.319   1.836   8.852  0.00  0.00    +0.000 A 
ENDROOT
BRANCH   1   8
ATOM      7  N   UNL     1      48.139   1.914   6.477  0.00  0.00    +0.000 N 
ATOM      8  C   UNL     1      47.132   1.385   7.237  0.00  0.00    +0.000 C 
ATOM      9  O   UNL     1      46.971   0.175   7.320  0.00  0.00    +0.000 OA
ATOM     10  H   UNL     1      48.781   1.252   6.061  0.00  0.00    +0.000 HD
ATOM     11  H   UNL     1      48.458   2.866   6.589  0.00  0.00    +0.000 HD
ENDBRANCH   1   8
BRANCH   4  12
ATOM     12  C   UNL     1      43.729   4.820  10.339  0.00  0.00    +0.000 C 
BRANCH  12  13
ATOM     13  C   UNL     1      44.325   5.052  11.724  0.00  0.00    +0.000 C 
BRANCH  13  14
ATOM     14  C   UNL     1      44.747   6.483  11.914  0.00  0.00    +0.000 A 
ATOM     15  N   UNL     1      44.153   7.417  11.147  0.00  0.00    +0.000 NA
ATOM     16  C   UNL     1      44.502   8.696  11.376  0.00  0.00    +0.000 A 
ATOM     17  C   UNL     1      45.419   9.074  12.326  0.00  0.00    +0.000 A 
ATOM     18  C   UNL     1      45.985   8.045  13.041  0.00  0.00    +0.000 A 
ATOM     19  N   UNL     1      45.675   6.747  12.854  0.00  0.00    +0.000 NA
ENDBRANCH  13  14
ENDBRANCH  12  13
ENDBRANCH   4  12
TORSDOF 4
ENDMDL
MODEL 5
REMARK VINA RESULT:    -6.378      2.838      6.336
REMARK INTER + INTRA:          -8.322
REMARK INTER:                  -7.941
REMARK INTRA:                  -0.380
REMARK UNBOUND:                -0.453
REMARK  Name = 
REMARK  4 active torsions:
REMARK  status: ('A' for Active; 'I' for Inactive)
REMARK    1  A    between atoms: C_2  and  C_4
REMARK    2  A    between atoms: C_7  and  C_8
REMARK    3  A    between atoms: C_8  and  C_9
REMARK    4  A    between atoms: C_9  and  C_10
REMARK                            x       y       z     vdW  Elec       q    Type
REMARK                         _______ _______ _______ _____ _____    ______ ____
ROOT
ATOM      1  C   UNL     1      46.984   4.731  14.398  0.00  0.00    +0.000 A 
ATOM      2  C   UNL     1      47.470   5.872  13.760  0.00  0.00    +0.000 A 
ATOM      3  C   UNL     1      46.945   6.238  12.519  0.00  0.00    +0.000 A 
ATOM      4  C   UNL     1      45.943   5.455  11.948  0.00  0.00    +0.000 A 
ATOM      5  N   UNL     1      45.480   4.328  12.546  0.00  0.00    +0.000 NA
ATOM      6  C   UNL     1      46.012   3.987  13.747  0.00  0.00    +0.000 A 
ENDROOT
BRANCH   1   8
ATOM      7  N   UNL     1      47.195   5.084  16.793  0.00  0.00    +0.000 N 
ATOM      8  C   UNL     1      47.467   4.281  15.720  0.00  0.00    +0.000 C 
ATOM      9  O   UNL     1      48.052   3.215  15.860  0.00  0.00    +0.000 OA
ATOM     10  H   UNL     1      47.432   4.712  17.703  0.00  0.00    +0.000 HD
ATOM     11  H   UNL     1      46.505   5.821  16.756  0.00  0.00    +0.000 HD
ENDBRANCH   1   8
BRANCH   4  12
ATOM     12  C   UNL     1      45.339   5.820  10.611  0.00  0.00    +0.000 C 
BRANCH  12  13
ATOM     13  C   UNL     1      44.480   4.683  10.067  0.00  0.00    +0.000 C 
BRANCH  13  14
ATOM     14  C   UNL     1      45.237   3.840   9.079  0.00  0.00    +0.000 A 
ATOM     15  N   UNL     1      45.915   4.476   8.104  0.00  0.00    +0.000 NA
ATOM     16  C   UNL     1      46.633   3.704   7.268  0.00  0.00    +0.000 A 
ATOM     17  C   UNL     1      46.694   2.335   7.362  0.00  0.00    +0.000 A 
ATOM     18  C   UNL     1      45.949   1.780   8.376  0.00  0.00    +0.000 A 
ATOM     19  N   UNL     1      45.211   2.502   9.241  0.00  0.00    +0.000 NA
ENDBRANCH  13  14
ENDBRANCH  12  13
ENDBRANCH   4  12
TORSDOF 4
ENDMDL
MODEL 6
REMARK VINA RESULT:    -5.836      3.142      5.752
REMARK INTER + INTRA:          -7.653
REMARK INTER:                  -7.145
REMARK INTRA:                  -0.507
REMARK UNBOUND:                -0.453
REMARK  Name = 
REMARK  4 active torsions:
REMARK  status: ('A' for Active; 'I' for Inactive)
REMARK    1  A    between atoms: C_2  and  C_4
REMARK    2  A    between atoms: C_7  and  C_8
REMARK    3  A    between atoms: C_8  and  C_9
REMARK    4  A    between atoms: C_9  and  C_10
REMARK                            x       y       z     vdW  Elec       q    Type
REMARK                         _______ _______ _______ _____ _____    ______ ____
ROOT
ATOM      1  C   UNL     1      47.504   6.147  13.433  0.00  0.00    +0.000 A 
ATOM      2  C   UNL     1      47.112   4.837  13.708  0.00  0.00    +0.000 A 
ATOM      3  C   UNL     1      45.804   4.440  13.424  0.00  0.00    +0.000 A 
ATOM      4  C   UNL     1      44.920   5.363  12.868  0.00  0.00    +0.000 A 
ATOM      5  N   UNL     1      45.281   6.647  12.621  0.00  0.00    +0.000 NA
ATOM      6  C   UNL     1      46.554   7.013  12.914  0.00  0.00    +0.000 A 
ENDROOT
BRANCH   1   8
ATOM      7  N   UNL     1      49.575   7.112  12.607  0.00  0.00    +0.000 N 
ATOM      8  C   UNL     1      48.871   6.647  13.684  0.00  0.00    +0.000 C 
ATOM      9  O   UNL     1      49.345   6.683  14.812  0.00  0.00    +0.000 OA
ATOM     10  H   UNL     1      50.463   7.554  12.808  0.00  0.00    +0.000 HD
ATOM     11  H   UNL     1      49.132   7.336  11.727  0.00  0.00    +0.000 HD
ENDBRANCH   1   8
BRANCH   4  12
ATOM     12  C   UNL     1      43.498   4.973  12.535  0.00  0.00    +0.000 C 
BRANCH  12  13
ATOM     13  C   UNL     1      43.188   5.229  11.064  0.00  0.00    +0.000 C 
BRANCH  13  14
ATOM     14  C   UNL     1      43.944   4.290  10.165  0.00  0.00    +0.000 A 
ATOM     15  N   UNL     1      44.756   4.831   9.238  0.00  0.00    +0.000 NA
ATOM     16  C   UNL     1      45.468   3.972   8.485  0.00  0.00    +0.000 A 
ATOM     17  C   UNL     1      45.395   2.607   8.617  0.00  0.00    +0.000 A 
ATOM     18  C   UNL     1      44.521   2.154   9.577  0.00  0.00    +0.000 A 
ATOM     19  N   UNL     1      43.782   2.966  10.357  0.00  0.00    +0.000 NA
ENDBRANCH  13  14
ENDBRANCH  12  13
ENDBRANCH   4  12
TORSDOF 4
ENDMDL
MODEL 7
REMARK VINA RESULT:    -5.391      4.523      7.831
REMARK INTER + INTRA:          -7.105
REMARK INTER:                  -6.761
REMARK INTRA:                  -0.344
REMARK UNBOUND:                -0.453
REMARK  Name = 
REMARK  4 active torsions:
REMARK  status: ('A' for Active; 'I' for Inactive)
REMARK    1  A    between atoms: C_2  and  C_4
REMARK    2  A    between atoms: C_7  and  C_8
REMARK    3  A    between atoms: C_8  and  C_9
REMARK    4  A    between atoms: C_9  and  C_10
REMARK                            x       y       z     vdW  Elec       q    Type
REMARK                         _______ _______ _______ _____ _____    ______ ____
ROOT
ATOM      1  C   UNL     1      48.506   4.047  17.505  0.00  0.00    +0.000 A 
ATOM      2  C   UNL     1      48.070   5.221  16.892  0.00  0.00    +0.000 A 
ATOM      3  C   UNL     1      47.534   5.163  15.604  0.00  0.00    +0.000 A 
ATOM      4  C   UNL     1      47.444   3.930  14.961  0.00  0.00    +0.000 A 
ATOM      5  N   UNL     1      47.889   2.784  15.536  0.00  0.00    +0.000 NA
ATOM      6  C   UNL     1      48.415   2.866  16.784  0.00  0.00    +0.000 A 
ENDROOT
BRANCH   1   8
ATOM      7  N   UNL     1      48.333   3.378  19.834  0.00  0.00    +0.000 N 
ATOM      8  C   UNL     1      49.068   4.013  18.871  0.00  0.00    +0.000 C 
ATOM      9  O   UNL     1      50.162   4.496  19.127  0.00  0.00    +0.000 OA
ATOM     10  H   UNL     1      48.778   3.264  20.736  0.00  0.00    +0.000 HD
ATOM     11  H   UNL     1      47.569   2.756  19.610  0.00  0.00    +0.000 HD
ENDBRANCH   1   8
BRANCH   4  12
ATOM     12  C   UNL     1      46.862   3.819  13.571  0.00  0.00    +0.000 C 
BRANCH  12  13
ATOM     13  C   UNL     1      46.478   5.191  13.025  0.00  0.00    +0.000 C 
BRANCH  13  14
ATOM     14  C   UNL     1      45.094   5.188  12.440  0.00  0.00    +0.000 A 
ATOM     15  N   UNL     1      44.972   4.941  11.121  0.00  0.00    +0.000 NA
ATOM     16  C   UNL     1      43.720   4.884  10.631  0.00  0.00    +0.000 A 
ATOM     17  C   UNL     1      42.596   5.069  11.398  0.00  0.00    +0.000 A 
ATOM     18  C   UNL     1      42.827   5.336  12.727  0.00  0.00    +0.000 A 
ATOM     19  N   UNL     1      44.057   5.408  13.272  0.00  0.00    +0.000 NA
ENDBRANCH  13  14
ENDBRANCH  12  13
ENDBRANCH   4  12
TORSDOF 4
ENDMDL
MODEL 8
REMARK VINA RESULT:    -5.354      3.728      5.661
REMARK INTER + INTRA:          -7.058
REMARK INTER:                  -6.728
REMARK INTRA:                  -0.330
REMARK UNBOUND:                -0.453
REMARK  Name = 
REMARK  4 active torsions:
REMARK  status: ('A' for Active; 'I' for Inactive)
REMARK    1  A    between atoms: C_2  and  C_4
REMARK    2  A    between atoms: C_7  and  C_8
REMARK    3  A    between atoms: C_8  and  C_9
REMARK    4  A    between atoms: C_9  and  C_10
REMARK                            x       y       z     vdW  Elec       q    Type
REMARK                         _______ _______ _______ _____ _____    ______ ____
ROOT
ATOM      1  C   UNL     1      44.957   4.258  11.936  0.00  0.00    +0.000 A 
ATOM      2  C   UNL     1      45.690   3.251  12.564  0.00  0.00    +0.000 A 
ATOM      3  C   UNL     1      46.614   3.594  13.553  0.00  0.00    +0.000 A 
ATOM      4  C   UNL     1      46.782   4.935  13.892  0.00  0.00    +0.000 A 
ATOM      5  N   UNL     1      46.094   5.926  13.270  0.00  0.00    +0.000 NA
ATOM      6  C   UNL     1      45.208   5.570  12.306  0.00  0.00    +0.000 A 
ENDROOT
BRANCH   1   8
ATOM      7  N   UNL     1      43.983   4.763   9.768  0.00  0.00    +0.000 N 
ATOM      8  C   UNL     1      43.946   3.986  10.894  0.00  0.00    +0.000 C 
ATOM      9  O   UNL     1      43.131   3.081  11.011  0.00  0.00    +0.000 OA
ATOM     10  H   UNL     1      43.359   4.495   9.018  0.00  0.00    +0.000 HD
ATOM     11  H   UNL     1      44.783   5.331   9.529  0.00  0.00    +0.000 HD
ENDBRANCH   1   8
BRANCH   4  12
ATOM     12  C   UNL     1      47.764   5.349  14.963  0.00  0.00    +0.000 C 
BRANCH  12  13
ATOM     13  C   UNL     1      47.590   4.508  16.224  0.00  0.00    +0.000 C 
BRANCH  13  14
ATOM     14  C   UNL     1      48.910   4.020  16.752  0.00  0.00    +0.000 A 
ATOM     15  N   UNL     1      49.068   2.692  16.910  0.00  0.00    +0.000 NA
ATOM     16  C   UNL     1      50.278   2.274  17.327  0.00  0.00    +0.000 A 
ATOM     17  C   UNL     1      51.323   3.124  17.595  0.00  0.00    +0.000 A 
ATOM     18  C   UNL     1      51.054   4.461  17.424  0.00  0.00    +0.000 A 
ATOM     19  N   UNL     1      49.863   4.937  17.012  0.00  0.00    +0.000 NA
ENDBRANCH  13  14
ENDBRANCH  12  13
ENDBRANCH   4  12
TORSDOF 4
ENDMDL
MODEL 9
REMARK VINA RESULT:    -5.148      3.255      5.083
REMARK INTER + INTRA:          -6.804
REMARK INTER:                  -6.433
REMARK INTRA:                  -0.371
REMARK UNBOUND:                -0.453
REMARK  Name = 
REMARK  4 active torsions:
REMARK  status: ('A' for Active; 'I' for Inactive)
REMARK    1  A    between atoms: C_2  and  C_4
REMARK    2  A    between atoms: C_7  and  C_8
REMARK    3  A    between atoms: C_8  and  C_9
REMARK    4  A    between atoms: C_9  and  C_10
REMARK                            x       y       z     vdW  Elec       q    Type
REMARK                         _______ _______ _______ _____ _____    ______ ____
ROOT
ATOM      1  C   UNL     1      44.900   4.097  11.293  0.00  0.00    +0.000 A 
ATOM      2  C   UNL     1      45.254   5.174  10.480  0.00  0.00    +0.000 A 
ATOM      3  C   UNL     1      45.985   6.231  11.024  0.00  0.00    +0.000 A 
ATOM      4  C   UNL     1      46.347   6.186  12.369  0.00  0.00    +0.000 A 
ATOM      5  N   UNL     1      45.986   5.157  13.177  0.00  0.00    +0.000 NA
ATOM      6  C   UNL     1      45.268   4.145  12.629  0.00  0.00    +0.000 A 
ENDROOT
BRANCH   1   8
ATOM      7  N   UNL     1      43.366   2.258  11.701  0.00  0.00    +0.000 N 
ATOM      8  C   UNL     1      44.145   2.928  10.797  0.00  0.00    +0.000 C 
ATOM      9  O   UNL     1      44.180   2.593   9.621  0.00  0.00    +0.000 OA
ATOM     10  H   UNL     1      42.770   1.531  11.326  0.00  0.00    +0.000 HD
ATOM     11  H   UNL     1      43.114   2.652  12.596  0.00  0.00    +0.000 HD
ENDBRANCH   1   8
BRANCH   4  12
ATOM     12  C   UNL     1      47.147   7.304  12.997  0.00  0.00    +0.000 C 
BRANCH  12  13
ATOM     13  C   UNL     1      48.518   6.812  13.449  0.00  0.00    +0.000 C 
BRANCH  13  14
ATOM     14  C   UNL     1      48.642   6.814  14.948  0.00  0.00    +0.000 A 
ATOM     15  N   UNL     1      48.767   8.006  15.563  0.00  0.00    +0.000 NA
ATOM     16  C   UNL     1      48.816   7.987  16.908  0.00  0.00    +0.000 A 
ATOM     17  C   UNL     1      48.752   6.835  17.654  0.00  0.00    +0.000 A 
ATOM     18  C   UNL     1      48.647   5.670  16.931  0.00  0.00    +0.000 A 
ATOM     19  N   UNL     1      48.596   5.628  15.586  0.00  0.00    +0.000 NA
ENDBRANCH  13  14
ENDBRANCH  12  13
ENDBRANCH   4  12
TORSDOF 4
ENDMDL
