MODEL 1
REMARK VINA RESULT:    -7.590      0.000      0.000
REMARK INTER + INTRA:         -11.054
REMARK INTER:                 -10.030
REMARK INTRA:                  -1.024
REMARK UNBOUND:                -1.024
REMARK  Name = 
REMARK  9 active torsions:
REMARK  status: ('A' for Active; 'I' for Inactive)
REMARK    1  A    between atoms: C_1  and  C_2
REMARK    2  A    between atoms: C_4  and  C_5
REMARK    3  A    between atoms: N_10  and  C_11
REMARK    4  A    between atoms: C_11  and  C_12
REMARK    5  A    between atoms: C_16  and  C_17
REMARK    6  A    between atoms: C_21  and  C_22
REMARK    7  A    between atoms: C_22  and  C_23
REMARK    8  A    between atoms: C_22  and  C_24
REMARK    9  A    between atoms: C_22  and  O_25
REMARK                            x       y       z     vdW  Elec       q    Type
REMARK                         _______ _______ _______ _____ _____    ______ ____
ROOT
ATOM      1  C   UNL     1      49.210   8.976  15.928  0.00  0.00    +0.000 C 
ATOM      2  C   UNL     1      49.286  10.467  16.228  0.00  0.00    +0.000 C 
ATOM      3  C   UNL     1      48.053   9.701  16.589  0.00  0.00    +0.000 C 
ENDROOT
BRANCH   1  10
ATOM      4  C   UNL     1      52.155   3.948  17.558  0.00  0.00    +0.000 C 
ATOM      5  C   UNL     1      50.897   4.753  17.432  0.00  0.00    +0.000 A 
ATOM      6  C   UNL     1      49.668   4.205  17.697  0.00  0.00    +0.000 A 
ATOM      7  C   UNL     1      48.598   5.058  17.539  0.00  0.00    +0.000 A 
ATOM      8  N   UNL     1      48.698   6.353  17.154  0.00  0.00    +0.000 NA
ATOM      9  C   UNL     1      49.937   6.804  16.943  0.00  0.00    +0.000 A 
ATOM     10  N   UNL     1      50.171   8.146  16.660  0.00  0.00    +0.000 N 
ATOM     11  N   UNL     1      51.037   6.042  17.056  0.00  0.00    +0.000 NA
ATOM     12  H   UNL     1      51.150   8.217  16.401  0.00  0.00    +0.000 HD
BRANCH   7  13
ATOM     13  C   UNL     1      47.218   4.563  17.820  0.00  0.00    +0.000 C 
ATOM     14  N   UNL     1      46.481   5.312  18.699  0.00  0.00    +0.000 N 
ATOM     15  O   UNL     1      46.764   3.549  17.300  0.00  0.00    +0.000 OA
ATOM     16  H   UNL     1      46.891   6.134  19.129  0.00  0.00    +0.000 HD
ATOM     17  H   UNL     1      45.544   5.023  18.935  0.00  0.00    +0.000 HD
ENDBRANCH   7  13
ENDBRANCH   1  10
BRANCH   1  18
ATOM     18  C   UNL     1      48.959   8.535  14.494  0.00  0.00    +0.000 A 
ATOM     19  C   UNL     1      49.858   8.867  13.471  0.00  0.00    +0.000 A 
ATOM     20  C   UNL     1      49.761   8.283  12.212  0.00  0.00    +0.000 A 
ATOM     21  C   UNL     1      48.757   7.349  11.963  0.00  0.00    +0.000 A 
ATOM     22  C   UNL     1      47.817   7.011  12.946  0.00  0.00    +0.000 A 
ATOM     23  C   UNL     1      47.902   7.663  14.184  0.00  0.00    +0.000 A 
BRANCH  22  24
ATOM     24  C   UNL     1      46.843   5.932  12.735  0.00  0.00    +0.000 A 
ATOM     25  C   UNL     1      46.440   5.103  13.784  0.00  0.00    +0.000 A 
ATOM     26  N   UNL     1      45.537   4.107  13.684  0.00  0.00    +0.000 NA
ATOM     27  C   UNL     1      44.980   3.922  12.469  0.00  0.00    +0.000 A 
ATOM     28  C   UNL     1      45.273   4.682  11.335  0.00  0.00    +0.000 A 
ATOM     29  C   UNL     1      46.220   5.702  11.498  0.00  0.00    +0.000 A 
BRANCH  28  30
ATOM     30  C   UNL     1      44.589   4.398  10.011  0.00  0.00    +0.000 C 
ATOM     31  C   UNL     1      45.512   4.743   8.836  0.00  0.00    +0.000 C 
ATOM     32  C   UNL     1      44.139   2.935   9.931  0.00  0.00    +0.000 C 
BRANCH  30  33
ATOM     33  O   UNL     1      43.405   5.191   9.866  0.00  0.00    +0.000 OA
ATOM     34  H   UNL     1      42.789   4.697   9.298  0.00  0.00    +0.000 HD
ENDBRANCH  30  33
ENDBRANCH  28  30
ENDBRANCH  22  24
ENDBRANCH   1  18
TORSDOF 6
ENDMDL
MODEL 2
REMARK VINA RESULT:    -7.523      2.178      3.395
REMARK INTER + INTRA:         -10.966
REMARK INTER:                  -9.943
REMARK INTRA:                  -1.023
REMARK UNBOUND:                -1.024
REMARK  Name = 
REMARK  9 active torsions:
REMARK  status: ('A' for Active; 'I' for Inactive)
REMARK    1  A    between atoms: C_1  and  C_2
REMARK    2  A    between atoms: C_4  and  C_5
REMARK    3  A    between atoms: N_10  and  C_11
REMARK    4  A    between atoms: C_11  and  C_12
REMARK    5  A    between atoms: C_16  and  C_17
REMARK    6  A    between atoms: C_21  and  C_22
REMARK    7  A    between atoms: C_22  and  C_23
REMARK    8  A    between atoms: C_22  and  C_24
REMARK    9  A    between atoms: C_22  and  O_25
REMARK                            x       y       z     vdW  Elec       q    Type
REMARK                         _______ _______ _______ _____ _____    ______ ____
ROOT
ATOM      1  C   UNL     1      49.414   8.036  12.687  0.00  0.00    +0.000 C 
ATOM      2  C   UNL     1      50.277   8.015  11.432  0.00  0.00    +0.000 C 
ATOM      3  C   UNL     1      50.159   9.275  12.228  0.00  0.00    +0.000 C 
ENDROOT
BRANCH   1  10
ATOM      4  C   UNL     1      49.096   4.847  17.818  0.00  0.00    +0.000 C 
ATOM      5  C   UNL     1      49.030   6.143  17.069  0.00  0.00    +0.000 A 
ATOM      6  C   UNL     1      48.621   7.301  17.679  0.00  0.00    +0.000 A 
ATOM      7  C   UNL     1      48.609   8.418  16.873  0.00  0.00    +0.000 A 
ATOM      8  N   UNL     1      48.966   8.426  15.566  0.00  0.00    +0.000 NA
ATOM      9  C   UNL     1      49.374   7.256  15.067  0.00  0.00    +0.000 A 
ATOM     10  N   UNL     1      49.877   7.168  13.772  0.00  0.00    +0.000 N 
ATOM     11  N   UNL     1      49.405   6.114  15.771  0.00  0.00    +0.000 NA
ATOM     12  H   UNL     1      49.982   6.178  13.573  0.00  0.00    +0.000 HD
BRANCH   7  13
ATOM     13  C   UNL     1      48.195   9.732  17.447  0.00  0.00    +0.000 C 
ATOM     14  N   UNL     1      48.216  10.795  16.582  0.00  0.00    +0.000 N 
ATOM     15  O   UNL     1      47.857   9.861  18.618  0.00  0.00    +0.000 OA
ATOM     16  H   UNL     1      48.521  10.661  15.624  0.00  0.00    +0.000 HD
ATOM     17  H   UNL     1      47.955  11.711  16.914  0.00  0.00    +0.000 HD
ENDBRANCH   7  13
ENDBRANCH   1  10
BRANCH   1  18
ATOM     18  C   UNL     1      47.903   8.098  12.528  0.00  0.00    +0.000 A 
ATOM     19  C   UNL     1      47.232   9.329  12.506  0.00  0.00    +0.000 A 
ATOM     20  C   UNL     1      45.893   9.410  12.135  0.00  0.00    +0.000 A 
ATOM     21  C   UNL     1      45.207   8.252  11.777  0.00  0.00    +0.000 A 
ATOM     22  C   UNL     1      45.829   6.996  11.817  0.00  0.00    +0.000 A 
ATOM     23  C   UNL     1      47.159   6.938  12.254  0.00  0.00    +0.000 A 
BRANCH  22  24
ATOM     24  C   UNL     1      45.155   5.792  11.313  0.00  0.00    +0.000 A 
ATOM     25  C   UNL     1      44.055   5.246  11.979  0.00  0.00    +0.000 A 
ATOM     26  N   UNL     1      43.364   4.161  11.575  0.00  0.00    +0.000 NA
ATOM     27  C   UNL     1      43.776   3.579  10.430  0.00  0.00    +0.000 A 
ATOM     28  C   UNL     1      44.847   4.022   9.653  0.00  0.00    +0.000 A 
ATOM     29  C   UNL     1      45.529   5.153  10.121  0.00  0.00    +0.000 A 
BRANCH  28  30
ATOM     30  C   UNL     1      45.231   3.300   8.375  0.00  0.00    +0.000 C 
ATOM     31  C   UNL     1      46.374   4.031   7.659  0.00  0.00    +0.000 C 
ATOM     32  C   UNL     1      45.619   1.846   8.664  0.00  0.00    +0.000 C 
BRANCH  30  33
ATOM     33  O   UNL     1      44.126   3.248   7.465  0.00  0.00    +0.000 OA
ATOM     34  H   UNL     1      43.971   2.312   7.247  0.00  0.00    +0.000 HD
ENDBRANCH  30  33
ENDBRANCH  28  30
ENDBRANCH  22  24
ENDBRANCH   1  18
TORSDOF 6
ENDMDL
MODEL 3
REMARK VINA RESULT:    -7.512      1.854      2.838
REMARK INTER + INTRA:         -10.952
REMARK INTER:                 -10.671
REMARK INTRA:                  -0.280
REMARK UNBOUND:                -1.024
REMARK  Name = 
REMARK  9 active torsions:
REMARK  status: ('A' for Active; 'I' for Inactive)
REMARK    1  A    between atoms: C_1  and  C_2
REMARK    2  A    between atoms: C_4  and  C_5
REMARK    3  A    between atoms: N_10  and  C_11
REMARK    4  A    between atoms: C_11  and  C_12
REMARK    5  A    between atoms: C_16  and  C_17
REMARK    6  A    between atoms: C_21  and  C_22
REMARK    7  A    between atoms: C_22  and  C_23
REMARK    8  A    between atoms: C_22  and  C_24
REMARK    9  A    between atoms: C_22  and  O_25
REMARK                            x       y       z     vdW  Elec       q    Type
REMARK                         _______ _______ _______ _____ _____    ______ ____
ROOT
ATOM      1  C   UNL     1      48.921   8.173  12.975  0.00  0.00    +0.000 C 
ATOM      2  C   UNL     1      49.849   7.319  12.121  0.00  0.00    +0.000 C 
ATOM      3  C   UNL     1      49.747   8.788  11.860  0.00  0.00    +0.000 C 
ENDROOT
BRANCH   1  10
ATOM      4  C   UNL     1      50.980   6.286  18.342  0.00  0.00    +0.000 C 
ATOM      5  C   UNL     1      50.005   6.209  17.206  0.00  0.00    +0.000 A 
ATOM      6  C   UNL     1      49.077   5.202  17.128  0.00  0.00    +0.000 A 
ATOM      7  C   UNL     1      48.245   5.254  16.031  0.00  0.00    +0.000 A 
ATOM      8  N   UNL     1      48.297   6.209  15.071  0.00  0.00    +0.000 NA
ATOM      9  C   UNL     1      49.216   7.162  15.247  0.00  0.00    +0.000 A 
ATOM     10  N   UNL     1      49.283   8.257  14.392  0.00  0.00    +0.000 N 
ATOM     11  N   UNL     1      50.080   7.185  16.275  0.00  0.00    +0.000 NA
ATOM     12  H   UNL     1      50.133   8.757  14.633  0.00  0.00    +0.000 HD
BRANCH   7  13
ATOM     13  C   UNL     1      47.189   4.213  15.862  0.00  0.00    +0.000 C 
ATOM     14  N   UNL     1      46.752   4.006  14.580  0.00  0.00    +0.000 N 
ATOM     15  O   UNL     1      46.736   3.577  16.807  0.00  0.00    +0.000 OA
ATOM     16  H   UNL     1      47.132   4.563  13.822  0.00  0.00    +0.000 HD
ATOM     17  H   UNL     1      46.033   3.321  14.404  0.00  0.00    +0.000 HD
ENDBRANCH   7  13
ENDBRANCH   1  10
BRANCH   1  18
ATOM     18  C   UNL     1      47.425   8.110  12.707  0.00  0.00    +0.000 A 
ATOM     19  C   UNL     1      46.663   9.281  12.600  0.00  0.00    +0.000 A 
ATOM     20  C   UNL     1      45.353   9.245  12.133  0.00  0.00    +0.000 A 
ATOM     21  C   UNL     1      44.788   8.027  11.762  0.00  0.00    +0.000 A 
ATOM     22  C   UNL     1      45.502   6.826  11.884  0.00  0.00    +0.000 A 
ATOM     23  C   UNL     1      46.797   6.887  12.416  0.00  0.00    +0.000 A 
BRANCH  22  24
ATOM     24  C   UNL     1      44.963   5.560  11.370  0.00  0.00    +0.000 A 
ATOM     25  C   UNL     1      43.967   4.865  12.059  0.00  0.00    +0.000 A 
ATOM     26  N   UNL     1      43.401   3.712  11.650  0.00  0.00    +0.000 NA
ATOM     27  C   UNL     1      43.836   3.214  10.473  0.00  0.00    +0.000 A 
ATOM     28  C   UNL     1      44.812   3.806   9.672  0.00  0.00    +0.000 A 
ATOM     29  C   UNL     1      45.366   5.002  10.147  0.00  0.00    +0.000 A 
BRANCH  28  30
ATOM     30  C   UNL     1      45.232   3.169   8.360  0.00  0.00    +0.000 C 
ATOM     31  C   UNL     1      46.351   3.981   7.694  0.00  0.00    +0.000 C 
ATOM     32  C   UNL     1      45.674   1.718   8.574  0.00  0.00    +0.000 C 
BRANCH  30  33
ATOM     33  O   UNL     1      44.136   3.125   7.439  0.00  0.00    +0.000 OA
ATOM     34  H   UNL     1      44.506   3.175   6.541  0.00  0.00    +0.000 HD
ENDBRANCH  30  33
ENDBRANCH  28  30
ENDBRANCH  22  24
ENDBRANCH   1  18
TORSDOF 6
ENDMDL
MODEL 4
REMARK VINA RESULT:    -7.266      2.233      7.270
REMARK INTER + INTRA:         -10.627
REMARK INTER:                  -9.508
REMARK INTRA:                  -1.119
REMARK UNBOUND:                -1.024
REMARK  Name = 
REMARK  9 active torsions:
REMARK  status: ('A' for Active; 'I' for Inactive)
REMARK    1  A    between atoms: C_1  and  C_2
REMARK    2  A    between atoms: C_4  and  C_5
REMARK    3  A    between atoms: N_10  and  C_11
REMARK    4  A    between atoms: C_11  and  C_12
REMARK    5  A    between atoms: C_16  and  C_17
REMARK    6  A    between atoms: C_21  and  C_22
REMARK    7  A    between atoms: C_22  and  C_23
REMARK    8  A    between atoms: C_22  and  C_24
REMARK    9  A    between atoms: C_22  and  O_25
REMARK                            x       y       z     vdW  Elec       q    Type
REMARK                         _______ _______ _______ _____ _____    ______ ____
ROOT
ATOM      1  C   UNL     1      45.459   8.019  12.108  0.00  0.00    +0.000 C 
ATOM      2  C   UNL     1      45.001   9.404  12.546  0.00  0.00    +0.000 C 
ATOM      3  C   UNL     1      45.249   9.130  11.096  0.00  0.00    +0.000 C 
ENDROOT
BRANCH   1  10
ATOM      4  C   UNL     1      43.403   2.345  12.532  0.00  0.00    +0.000 C 
ATOM      5  C   UNL     1      43.990   3.476  11.742  0.00  0.00    +0.000 A 
ATOM      6  C   UNL     1      44.427   3.297  10.454  0.00  0.00    +0.000 A 
ATOM      7  C   UNL     1      44.944   4.421   9.848  0.00  0.00    +0.000 A 
ATOM      8  N   UNL     1      45.036   5.638  10.437  0.00  0.00    +0.000 NA
ATOM      9  C   UNL     1      44.561   5.720  11.682  0.00  0.00    +0.000 A 
ATOM     10  N   UNL     1      44.493   6.943  12.342  0.00  0.00    +0.000 N 
ATOM     11  N   UNL     1      44.055   4.676  12.358  0.00  0.00    +0.000 NA
ATOM     12  H   UNL     1      44.242   6.735  13.304  0.00  0.00    +0.000 HD
BRANCH   7  13
ATOM     13  C   UNL     1      45.431   4.336   8.440  0.00  0.00    +0.000 C 
ATOM     14  N   UNL     1      44.688   3.552   7.596  0.00  0.00    +0.000 N 
ATOM     15  O   UNL     1      46.433   4.929   8.054  0.00  0.00    +0.000 OA
ATOM     16  H   UNL     1      43.877   3.058   7.950  0.00  0.00    +0.000 HD
ATOM     17  H   UNL     1      44.973   3.449   6.634  0.00  0.00    +0.000 HD
ENDBRANCH   7  13
ENDBRANCH   1  10
BRANCH   1  18
ATOM     18  C   UNL     1      46.910   7.627  12.341  0.00  0.00    +0.000 A 
ATOM     19  C   UNL     1      47.905   7.963  11.411  0.00  0.00    +0.000 A 
ATOM     20  C   UNL     1      49.254   7.815  11.718  0.00  0.00    +0.000 A 
ATOM     21  C   UNL     1      49.626   7.328  12.969  0.00  0.00    +0.000 A 
ATOM     22  C   UNL     1      48.665   6.948  13.917  0.00  0.00    +0.000 A 
ATOM     23  C   UNL     1      47.315   7.050  13.557  0.00  0.00    +0.000 A 
BRANCH  22  24
ATOM     24  C   UNL     1      49.047   6.563  15.282  0.00  0.00    +0.000 A 
ATOM     25  C   UNL     1      50.188   7.091  15.891  0.00  0.00    +0.000 A 
ATOM     26  N   UNL     1      50.598   6.811  17.144  0.00  0.00    +0.000 NA
ATOM     27  C   UNL     1      49.826   5.961  17.853  0.00  0.00    +0.000 A 
ATOM     28  C   UNL     1      48.655   5.369  17.381  0.00  0.00    +0.000 A 
ATOM     29  C   UNL     1      48.277   5.695  16.071  0.00  0.00    +0.000 A 
BRANCH  28  30
ATOM     30  C   UNL     1      47.851   4.427  18.258  0.00  0.00    +0.000 C 
ATOM     31  C   UNL     1      47.501   3.141  17.499  0.00  0.00    +0.000 C 
ATOM     32  C   UNL     1      48.611   4.100  19.548  0.00  0.00    +0.000 C 
BRANCH  30  33
ATOM     33  O   UNL     1      46.616   5.031  18.661  0.00  0.00    +0.000 OA
ATOM     34  H   UNL     1      46.692   5.987  18.500  0.00  0.00    +0.000 HD
ENDBRANCH  30  33
ENDBRANCH  28  30
ENDBRANCH  22  24
ENDBRANCH   1  18
TORSDOF 6
ENDMDL
MODEL 5
REMARK VINA RESULT:    -7.233      1.552      2.043
REMARK INTER + INTRA:         -10.583
REMARK INTER:                 -10.392
REMARK INTRA:                  -0.191
REMARK UNBOUND:                -1.024
REMARK  Name = 
REMARK  9 active torsions:
REMARK  status: ('A' for Active; 'I' for Inactive)
REMARK    1  A    between atoms: C_1  and  C_2
REMARK    2  A    between atoms: C_4  and  C_5
REMARK    3  A    between atoms: N_10  and  C_11
REMARK    4  A    between atoms: C_11  and  C_12
REMARK    5  A    between atoms: C_16  and  C_17
REMARK    6  A    between atoms: C_21  and  C_22
REMARK    7  A    between atoms: C_22  and  C_23
REMARK    8  A    between atoms: C_22  and  C_24
REMARK    9  A    between atoms: C_22  and  O_25
REMARK                            x       y       z     vdW  Elec       q    Type
REMARK                         _______ _______ _______ _____ _____    ______ ____
ROOT
ATOM      1  C   UNL     1      49.815   7.835  15.644  0.00  0.00    +0.000 C 
ATOM      2  C   UNL     1      51.162   7.132  15.545  0.00  0.00    +0.000 C 
ATOM      3  C   UNL     1      51.109   8.625  15.618  0.00  0.00    +0.000 C 
ENDROOT
BRANCH   1  10
ATOM      4  C   UNL     1      48.328   5.000  20.778  0.00  0.00    +0.000 C 
ATOM      5  C   UNL     1      48.521   5.014  19.292  0.00  0.00    +0.000 A 
ATOM      6  C   UNL     1      48.445   3.863  18.550  0.00  0.00    +0.000 A 
ATOM      7  C   UNL     1      48.643   4.022  17.196  0.00  0.00    +0.000 A 
ATOM      8  N   UNL     1      48.896   5.207  16.591  0.00  0.00    +0.000 NA
ATOM      9  C   UNL     1      48.926   6.275  17.391  0.00  0.00    +0.000 A 
ATOM     10  N   UNL     1      49.058   7.558  16.868  0.00  0.00    +0.000 N 
ATOM     11  N   UNL     1      48.761   6.215  18.723  0.00  0.00    +0.000 NA
ATOM     12  H   UNL     1      49.199   8.177  17.660  0.00  0.00    +0.000 HD
BRANCH   7  13
ATOM     13  C   UNL     1      48.564   2.832  16.299  0.00  0.00    +0.000 C 
ATOM     14  N   UNL     1      49.388   1.785  16.619  0.00  0.00    +0.000 N 
ATOM     15  O   UNL     1      47.810   2.786  15.332  0.00  0.00    +0.000 OA
ATOM     16  H   UNL     1      50.015   1.861  17.412  0.00  0.00    +0.000 HD
ATOM     17  H   UNL     1      49.385   0.956  16.044  0.00  0.00    +0.000 HD
ENDBRANCH   7  13
ENDBRANCH   1  10
BRANCH   1  18
ATOM     18  C   UNL     1      48.963   7.953  14.389  0.00  0.00    +0.000 A 
ATOM     19  C   UNL     1      49.278   8.887  13.391  0.00  0.00    +0.000 A 
ATOM     20  C   UNL     1      48.652   8.850  12.149  0.00  0.00    +0.000 A 
ATOM     21  C   UNL     1      47.699   7.867  11.889  0.00  0.00    +0.000 A 
ATOM     22  C   UNL     1      47.330   6.934  12.868  0.00  0.00    +0.000 A 
ATOM     23  C   UNL     1      47.932   7.036  14.129  0.00  0.00    +0.000 A 
BRANCH  22  24
ATOM     24  C   UNL     1      46.428   5.816  12.558  0.00  0.00    +0.000 A 
ATOM     25  C   UNL     1      45.863   5.039  13.571  0.00  0.00    +0.000 A 
ATOM     26  N   UNL     1      45.010   4.013  13.377  0.00  0.00    +0.000 NA
ATOM     27  C   UNL     1      44.679   3.741  12.098  0.00  0.00    +0.000 A 
ATOM     28  C   UNL     1      45.152   4.441  10.988  0.00  0.00    +0.000 A 
ATOM     29  C   UNL     1      46.037   5.496  11.248  0.00  0.00    +0.000 A 
BRANCH  28  30
ATOM     30  C   UNL     1      44.717   4.060   9.584  0.00  0.00    +0.000 C 
ATOM     31  C   UNL     1      45.784   4.458   8.556  0.00  0.00    +0.000 C 
ATOM     32  C   UNL     1      44.416   2.560   9.494  0.00  0.00    +0.000 C 
BRANCH  30  33
ATOM     33  O   UNL     1      43.507   4.736   9.223  0.00  0.00    +0.000 OA
ATOM     34  H   UNL     1      43.720   5.349   8.499  0.00  0.00    +0.000 HD
ENDBRANCH  30  33
ENDBRANCH  28  30
ENDBRANCH  22  24
ENDBRANCH   1  18
TORSDOF 6
ENDMDL
MODEL 6
REMARK VINA RESULT:    -7.142      1.975      2.938
REMARK INTER + INTRA:         -10.463
REMARK INTER:                  -9.429
REMARK INTRA:                  -1.034
REMARK UNBOUND:                -1.024
REMARK  Name = 
REMARK  9 active torsions:
REMARK  status: ('A' for Active; 'I' for Inactive)
REMARK    1  A    between atoms: C_1  and  C_2
REMARK    2  A    between atoms: C_4  and  C_5
REMARK    3  A    between atoms: N_10  and  C_11
REMARK    4  A    between atoms: C_11  and  C_12
REMARK    5  A    between atoms: C_16  and  C_17
REMARK    6  A    between atoms: C_21  and  C_22
REMARK    7  A    between atoms: C_22  and  C_23
REMARK    8  A    between atoms: C_22  and  C_24
REMARK    9  A    between atoms: C_22  and  O_25
REMARK                            x       y       z     vdW  Elec       q    Type
REMARK                         _______ _______ _______ _____ _____    ______ ____
ROOT
ATOM      1  C   UNL     1      48.915   6.453  18.306  0.00  0.00    +0.000 C 
ATOM      2  C   UNL     1      47.986   7.224  19.233  0.00  0.00    +0.000 C 
ATOM      3  C   UNL     1      47.661   5.811  18.868  0.00  0.00    +0.000 C 
ENDROOT
BRANCH   1  10
ATOM      4  C   UNL     1      54.707   4.706  18.275  0.00  0.00    +0.000 C 
ATOM      5  C   UNL     1      53.244   4.413  18.133  0.00  0.00    +0.000 A 
ATOM      6  C   UNL     1      52.799   3.191  17.696  0.00  0.00    +0.000 A 
ATOM      7  C   UNL     1      51.431   3.060  17.613  0.00  0.00    +0.000 A 
ATOM      8  N   UNL     1      50.545   4.035  17.929  0.00  0.00    +0.000 NA
ATOM      9  C   UNL     1      51.072   5.180  18.370  0.00  0.00    +0.000 A 
ATOM     10  N   UNL     1      50.259   6.208  18.837  0.00  0.00    +0.000 N 
ATOM     11  N   UNL     1      52.392   5.405  18.469  0.00  0.00    +0.000 NA
ATOM     12  H   UNL     1      50.864   7.011  18.977  0.00  0.00    +0.000 HD
BRANCH   7  13
ATOM     13  C   UNL     1      50.844   1.763  17.163  0.00  0.00    +0.000 C 
ATOM     14  N   UNL     1      51.313   0.643  17.797  0.00  0.00    +0.000 N 
ATOM     15  O   UNL     1      49.994   1.697  16.282  0.00  0.00    +0.000 OA
ATOM     16  H   UNL     1      52.032   0.729  18.507  0.00  0.00    +0.000 HD
ATOM     17  H   UNL     1      50.961  -0.264  17.530  0.00  0.00    +0.000 HD
ENDBRANCH   7  13
ENDBRANCH   1  10
BRANCH   1  18
ATOM     18  C   UNL     1      48.870   6.756  16.816  0.00  0.00    +0.000 A 
ATOM     19  C   UNL     1      49.853   7.554  16.214  0.00  0.00    +0.000 A 
ATOM     20  C   UNL     1      49.953   7.649  14.829  0.00  0.00    +0.000 A 
ATOM     21  C   UNL     1      49.065   6.937  14.026  0.00  0.00    +0.000 A 
ATOM     22  C   UNL     1      48.046   6.152  14.585  0.00  0.00    +0.000 A 
ATOM     23  C   UNL     1      47.932   6.127  15.981  0.00  0.00    +0.000 A 
BRANCH  22  24
ATOM     24  C   UNL     1      47.194   5.296  13.749  0.00  0.00    +0.000 A 
ATOM     25  C   UNL     1      47.005   3.945  14.052  0.00  0.00    +0.000 A 
ATOM     26  N   UNL     1      46.225   3.096  13.354  0.00  0.00    +0.000 NA
ATOM     27  C   UNL     1      45.574   3.613  12.292  0.00  0.00    +0.000 A 
ATOM     28  C   UNL     1      45.655   4.944  11.880  0.00  0.00    +0.000 A 
ATOM     29  C   UNL     1      46.481   5.781  12.641  0.00  0.00    +0.000 A 
BRANCH  28  30
ATOM     30  C   UNL     1      44.879   5.432  10.671  0.00  0.00    +0.000 C 
ATOM     31  C   UNL     1      45.588   5.031   9.371  0.00  0.00    +0.000 C 
ATOM     32  C   UNL     1      43.444   4.896  10.689  0.00  0.00    +0.000 C 
BRANCH  30  33
ATOM     33  O   UNL     1      44.774   6.861  10.673  0.00  0.00    +0.000 OA
ATOM     34  H   UNL     1      43.867   7.087  10.940  0.00  0.00    +0.000 HD
ENDBRANCH  30  33
ENDBRANCH  28  30
ENDBRANCH  22  24
ENDBRANCH   1  18
TORSDOF 6
ENDMDL
MODEL 7
REMARK VINA RESULT:    -6.929      2.336      3.679
REMARK INTER + INTRA:         -10.181
REMARK INTER:                 -10.017
REMARK INTRA:                  -0.164
REMARK UNBOUND:                -1.024
REMARK  Name = 
REMARK  9 active torsions:
REMARK  status: ('A' for Active; 'I' for Inactive)
REMARK    1  A    between atoms: C_1  and  C_2
REMARK    2  A    between atoms: C_4  and  C_5
REMARK    3  A    between atoms: N_10  and  C_11
REMARK    4  A    between atoms: C_11  and  C_12
REMARK    5  A    between atoms: C_16  and  C_17
REMARK    6  A    between atoms: C_21  and  C_22
REMARK    7  A    between atoms: C_22  and  C_23
REMARK    8  A    between atoms: C_22  and  C_24
REMARK    9  A    between atoms: C_22  and  O_25
REMARK                            x       y       z     vdW  Elec       q    Type
REMARK                         _______ _______ _______ _____ _____    ______ ____
ROOT
ATOM      1  C   UNL     1      48.144   4.614  16.535  0.00  0.00    +0.000 C 
ATOM      2  C   UNL     1      47.130   3.911  17.427  0.00  0.00    +0.000 C 
ATOM      3  C   UNL     1      48.015   3.103  16.532  0.00  0.00    +0.000 C 
ENDROOT
BRANCH   1  10
ATOM      4  C   UNL     1      53.764   6.413  17.867  0.00  0.00    +0.000 C 
ATOM      5  C   UNL     1      52.723   5.344  17.734  0.00  0.00    +0.000 A 
ATOM      6  C   UNL     1      53.041   4.016  17.861  0.00  0.00    +0.000 A 
ATOM      7  C   UNL     1      51.986   3.142  17.714  0.00  0.00    +0.000 A 
ATOM      8  N   UNL     1      50.708   3.516  17.463  0.00  0.00    +0.000 NA
ATOM      9  C   UNL     1      50.491   4.831  17.382  0.00  0.00    +0.000 A 
ATOM     10  N   UNL     1      49.202   5.336  17.246  0.00  0.00    +0.000 N 
ATOM     11  N   UNL     1      51.459   5.755  17.495  0.00  0.00    +0.000 NA
ATOM     12  H   UNL     1      49.302   6.329  17.062  0.00  0.00    +0.000 HD
BRANCH   7  13
ATOM     13  C   UNL     1      52.224   1.675  17.851  0.00  0.00    +0.000 C 
ATOM     14  N   UNL     1      51.296   0.860  17.259  0.00  0.00    +0.000 N 
ATOM     15  O   UNL     1      53.189   1.219  18.455  0.00  0.00    +0.000 OA
ATOM     16  H   UNL     1      50.497   1.267  16.784  0.00  0.00    +0.000 HD
ATOM     17  H   UNL     1      51.398  -0.141  17.325  0.00  0.00    +0.000 HD
ENDBRANCH   7  13
ENDBRANCH   1  10
BRANCH   1  18
ATOM     18  C   UNL     1      47.647   5.304  15.274  0.00  0.00    +0.000 A 
ATOM     19  C   UNL     1      48.269   6.466  14.796  0.00  0.00    +0.000 A 
ATOM     20  C   UNL     1      47.975   6.972  13.533  0.00  0.00    +0.000 A 
ATOM     21  C   UNL     1      47.049   6.312  12.727  0.00  0.00    +0.000 A 
ATOM     22  C   UNL     1      46.378   5.166  13.178  0.00  0.00    +0.000 A 
ATOM     23  C   UNL     1      46.649   4.718  14.477  0.00  0.00    +0.000 A 
BRANCH  22  24
ATOM     24  C   UNL     1      45.504   4.392  12.286  0.00  0.00    +0.000 A 
ATOM     25  C   UNL     1      44.287   3.875  12.735  0.00  0.00    +0.000 A 
ATOM     26  N   UNL     1      43.416   3.175  11.981  0.00  0.00    +0.000 NA
ATOM     27  C   UNL     1      43.759   2.982  10.690  0.00  0.00    +0.000 A 
ATOM     28  C   UNL     1      44.933   3.453  10.101  0.00  0.00    +0.000 A 
ATOM     29  C   UNL     1      45.802   4.172  10.932  0.00  0.00    +0.000 A 
BRANCH  28  30
ATOM     30  C   UNL     1      45.229   3.186   8.636  0.00  0.00    +0.000 C 
ATOM     31  C   UNL     1      46.176   4.252   8.069  0.00  0.00    +0.000 C 
ATOM     32  C   UNL     1      45.817   1.785   8.443  0.00  0.00    +0.000 C 
BRANCH  30  33
ATOM     33  O   UNL     1      44.028   3.229   7.856  0.00  0.00    +0.000 OA
ATOM     34  H   UNL     1      43.277   3.215   8.474  0.00  0.00    +0.000 HD
ENDBRANCH  30  33
ENDBRANCH  28  30
ENDBRANCH  22  24
ENDBRANCH   1  18
TORSDOF 6
ENDMDL
MODEL 8
REMARK VINA RESULT:    -6.839      2.376      7.266
REMARK INTER + INTRA:         -10.062
REMARK INTER:                  -9.956
REMARK INTRA:                  -0.107
REMARK UNBOUND:                -1.024
REMARK  Name = 
REMARK  9 active torsions:
REMARK  status: ('A' for Active; 'I' for Inactive)
REMARK    1  A    between atoms: C_1  and  C_2
REMARK    2  A    between atoms: C_4  and  C_5
REMARK    3  A    between atoms: N_10  and  C_11
REMARK    4  A    between atoms: C_11  and  C_12
REMARK    5  A    between atoms: C_16  and  C_17
REMARK    6  A    between atoms: C_21  and  C_22
REMARK    7  A    between atoms: C_22  and  C_23
REMARK    8  A    between atoms: C_22  and  C_24
REMARK    9  A    between atoms: C_22  and  O_25
REMARK                            x       y       z     vdW  Elec       q    Type
REMARK                         _______ _______ _______ _____ _____    ______ ____
ROOT
ATOM      1  C   UNL     1      46.744   7.744  12.082  0.00  0.00    +0.000 C 
ATOM      2  C   UNL     1      45.306   8.087  12.447  0.00  0.00    +0.000 C 
ATOM      3  C   UNL     1      46.201   9.148  11.890  0.00  0.00    +0.000 C 
ENDROOT
BRANCH   1  10
ATOM      4  C   UNL     1      45.019   3.870   7.767  0.00  0.00    +0.000 C 
ATOM      5  C   UNL     1      45.082   4.298   9.202  0.00  0.00    +0.000 A 
ATOM      6  C   UNL     1      44.375   3.640  10.175  0.00  0.00    +0.000 A 
ATOM      7  C   UNL     1      44.525   4.139  11.450  0.00  0.00    +0.000 A 
ATOM      8  N   UNL     1      45.304   5.200  11.773  0.00  0.00    +0.000 NA
ATOM      9  C   UNL     1      45.973   5.759  10.762  0.00  0.00    +0.000 A 
ATOM     10  N   UNL     1      46.894   6.777  10.991  0.00  0.00    +0.000 N 
ATOM     11  N   UNL     1      45.877   5.352   9.486  0.00  0.00    +0.000 NA
ATOM     12  H   UNL     1      47.160   7.133  10.078  0.00  0.00    +0.000 HD
BRANCH   7  13
ATOM     13  C   UNL     1      43.810   3.483  12.584  0.00  0.00    +0.000 C 
ATOM     14  N   UNL     1      43.629   2.129  12.474  0.00  0.00    +0.000 N 
ATOM     15  O   UNL     1      43.407   4.109  13.558  0.00  0.00    +0.000 OA
ATOM     16  H   UNL     1      43.955   1.642  11.646  0.00  0.00    +0.000 HD
ATOM     17  H   UNL     1      43.145   1.631  13.205  0.00  0.00    +0.000 HD
ENDBRANCH   7  13
ENDBRANCH   1  10
BRANCH   1  18
ATOM     18  C   UNL     1      47.762   7.595  13.202  0.00  0.00    +0.000 A 
ATOM     19  C   UNL     1      48.681   8.617  13.480  0.00  0.00    +0.000 A 
ATOM     20  C   UNL     1      49.457   8.592  14.635  0.00  0.00    +0.000 A 
ATOM     21  C   UNL     1      49.317   7.536  15.534  0.00  0.00    +0.000 A 
ATOM     22  C   UNL     1      48.434   6.476  15.280  0.00  0.00    +0.000 A 
ATOM     23  C   UNL     1      47.713   6.499  14.079  0.00  0.00    +0.000 A 
BRANCH  22  24
ATOM     24  C   UNL     1      48.184   5.433  16.283  0.00  0.00    +0.000 A 
ATOM     25  C   UNL     1      47.617   4.207  15.928  0.00  0.00    +0.000 A 
ATOM     26  N   UNL     1      47.375   3.189  16.777  0.00  0.00    +0.000 NA
ATOM     27  C   UNL     1      47.728   3.384  18.065  0.00  0.00    +0.000 A 
ATOM     28  C   UNL     1      48.316   4.548  18.560  0.00  0.00    +0.000 A 
ATOM     29  C   UNL     1      48.543   5.574  17.633  0.00  0.00    +0.000 A 
BRANCH  28  30
ATOM     30  C   UNL     1      48.681   4.670  20.028  0.00  0.00    +0.000 C 
ATOM     31  C   UNL     1      50.186   4.918  20.196  0.00  0.00    +0.000 C 
ATOM     32  C   UNL     1      47.874   5.785  20.701  0.00  0.00    +0.000 C 
BRANCH  30  33
ATOM     33  O   UNL     1      48.369   3.464  20.735  0.00  0.00    +0.000 OA
ATOM     34  H   UNL     1      47.420   3.290  20.612  0.00  0.00    +0.000 HD
ENDBRANCH  30  33
ENDBRANCH  28  30
ENDBRANCH  22  24
ENDBRANCH   1  18
TORSDOF 6
ENDMDL
MODEL 9
REMARK VINA RESULT:    -6.545      2.529      3.965
REMARK INTER + INTRA:          -9.674
REMARK INTER:                  -8.671
REMARK INTRA:                  -1.003
REMARK UNBOUND:                -1.024
REMARK  Name = 
REMARK  9 active torsions:
REMARK  status: ('A' for Active; 'I' for Inactive)
REMARK    1  A    between atoms: C_1  and  C_2
REMARK    2  A    between atoms: C_4  and  C_5
REMARK    3  A    between atoms: N_10  and  C_11
REMARK    4  A    between atoms: C_11  and  C_12
REMARK    5  A    between atoms: C_16  and  C_17
REMARK    6  A    between atoms: C_21  and  C_22
REMARK    7  A    between atoms: C_22  and  C_23
REMARK    8  A    between atoms: C_22  and  C_24
REMARK    9  A    between atoms: C_22  and  O_25
REMARK                            x       y       z     vdW  Elec       q    Type
REMARK                         _______ _______ _______ _____ _____    ______ ____
ROOT
ATOM      1  C   UNL     1      49.181   6.531  17.803  0.00  0.00    +0.000 C 
ATOM      2  C   UNL     1      48.233   7.595  18.338  0.00  0.00    +0.000 C 
ATOM      3  C   UNL     1      48.672   6.479  19.231  0.00  0.00    +0.000 C 
ENDROOT
BRANCH   1  10
ATOM      4  C   UNL     1      54.778   6.306  15.517  0.00  0.00    +0.000 C 
ATOM      5  C   UNL     1      53.737   5.849  16.493  0.00  0.00    +0.000 A 
ATOM      6  C   UNL     1      53.956   4.780  17.324  0.00  0.00    +0.000 A 
ATOM      7  C   UNL     1      52.914   4.469  18.169  0.00  0.00    +0.000 A 
ATOM      8  N   UNL     1      51.738   5.140  18.218  0.00  0.00    +0.000 NA
ATOM      9  C   UNL     1      51.627   6.181  17.390  0.00  0.00    +0.000 A 
ATOM     10  N   UNL     1      50.514   7.015  17.435  0.00  0.00    +0.000 N 
ATOM     11  N   UNL     1      52.582   6.549  16.520  0.00  0.00    +0.000 NA
ATOM     12  H   UNL     1      50.587   7.633  16.632  0.00  0.00    +0.000 HD
BRANCH   7  13
ATOM     13  C   UNL     1      53.059   3.332  19.125  0.00  0.00    +0.000 C 
ATOM     14  N   UNL     1      52.778   2.088  18.624  0.00  0.00    +0.000 N 
ATOM     15  O   UNL     1      53.409   3.493  20.290  0.00  0.00    +0.000 OA
ATOM     16  H   UNL     1      52.472   1.990  17.662  0.00  0.00    +0.000 HD
ATOM     17  H   UNL     1      52.850   1.282  19.225  0.00  0.00    +0.000 HD
ENDBRANCH   7  13
ENDBRANCH   1  10
BRANCH   1  18
ATOM     18  C   UNL     1      48.623   5.458  16.882  0.00  0.00    +0.000 A 
ATOM     19  C   UNL     1      48.388   4.157  17.350  0.00  0.00    +0.000 A 
ATOM     20  C   UNL     1      47.671   3.238  16.591  0.00  0.00    +0.000 A 
ATOM     21  C   UNL     1      47.173   3.615  15.345  0.00  0.00    +0.000 A 
ATOM     22  C   UNL     1      47.411   4.894  14.823  0.00  0.00    +0.000 A 
ATOM     23  C   UNL     1      48.190   5.776  15.583  0.00  0.00    +0.000 A 
BRANCH  22  24
ATOM     24  C   UNL     1      46.778   5.341  13.575  0.00  0.00    +0.000 A 
ATOM     25  C   UNL     1      47.394   6.283  12.747  0.00  0.00    +0.000 A 
ATOM     26  N   UNL     1      46.895   6.730  11.577  0.00  0.00    +0.000 NA
ATOM     27  C   UNL     1      45.715   6.205  11.187  0.00  0.00    +0.000 A 
ATOM     28  C   UNL     1      44.995   5.247  11.902  0.00  0.00    +0.000 A 
ATOM     29  C   UNL     1      45.560   4.820  13.111  0.00  0.00    +0.000 A 
BRANCH  28  30
ATOM     30  C   UNL     1      43.675   4.714  11.376  0.00  0.00    +0.000 C 
ATOM     31  C   UNL     1      43.578   3.197  11.587  0.00  0.00    +0.000 C 
ATOM     32  C   UNL     1      42.494   5.426  12.042  0.00  0.00    +0.000 C 
BRANCH  30  33
ATOM     33  O   UNL     1      43.550   4.955   9.970  0.00  0.00    +0.000 OA
ATOM     34  H   UNL     1      42.640   5.258   9.805  0.00  0.00    +0.000 HD
ENDBRANCH  30  33
ENDBRANCH  28  30
ENDBRANCH  22  24
ENDBRANCH   1  18
TORSDOF 6
ENDMDL
