MODEL 1
REMARK VINA RESULT:    -8.033      0.000      0.000
REMARK INTER + INTRA:         -12.551
REMARK INTER:                 -11.321
REMARK INTRA:                  -1.230
REMARK UNBOUND:                -1.230
REMARK  Name = 
REMARK  8 active torsions:
REMARK  status: ('A' for Active; 'I' for Inactive)
REMARK    1  A    between atoms: C_1  and  O_2
REMARK    2  A    between atoms: O_2  and  C_3
REMARK    3  A    between atoms: C_5  and  C_6
REMARK    4  A    between atoms: C_6  and  N_7
REMARK    5  A    between atoms: C_8  and  C_10
REMARK    6  A    between atoms: C_22  and  C_23
REMARK    7  A    between atoms: C_23  and  N_24
REMARK    8  A    between atoms: C_25  and  C_27
REMARK                            x       y       z     vdW  Elec       q    Type
REMARK                         _______ _______ _______ _____ _____    ______ ____
ROOT
ATOM      1  C   UNL     1      44.378   5.764  11.860  0.00  0.00    +0.000 A 
ATOM      2  C   UNL     1      45.003   6.648  12.740  0.00  0.00    +0.000 A 
ATOM      3  C   UNL     1      46.242   7.183  12.401  0.00  0.00    +0.000 A 
ATOM      4  N   UNL     1      46.854   6.908  11.225  0.00  0.00    +0.000 NA
ATOM      5  C   UNL     1      46.226   6.049  10.388  0.00  0.00    +0.000 A 
ATOM      6  C   UNL     1      45.010   5.429  10.658  0.00  0.00    +0.000 A 
ENDROOT
BRANCH   1   8
ATOM      7  C   UNL     1      43.165   4.211  13.182  0.00  0.00    +0.000 C 
ATOM      8  O   UNL     1      43.176   5.156  12.114  0.00  0.00    +0.000 OA
ENDBRANCH   1   8
BRANCH   3   9
ATOM      9  C   UNL     1      46.942   8.119  13.357  0.00  0.00    +0.000 C 
BRANCH   9  10
ATOM     10  N   UNL     1      47.440   7.435  14.530  0.00  0.00    +0.000 N 
ATOM     11  C   UNL     1      48.669   6.836  14.576  0.00  0.00    +0.000 C 
ATOM     12  O   UNL     1      49.429   6.833  13.610  0.00  0.00    +0.000 OA
ATOM     13  H   UNL     1      46.746   7.228  15.242  0.00  0.00    +0.000 HD
BRANCH  11  14
ATOM     14  C   UNL     1      49.066   6.251  15.865  0.00  0.00    +0.000 A 
ATOM     15  C   UNL     1      50.113   6.818  16.582  0.00  0.00    +0.000 A 
ATOM     16  S   UNL     1      50.418   6.049  18.073  0.00  0.00    +0.000 S 
ATOM     17  C   UNL     1      49.192   4.903  17.794  0.00  0.00    +0.000 A 
ATOM     18  N   UNL     1      48.942   3.914  18.695  0.00  0.00    +0.000 NA
ATOM     19  C   UNL     1      48.008   3.095  18.343  0.00  0.00    +0.000 A 
ATOM     20  N   UNL     1      47.294   3.181  17.177  0.00  0.00    +0.000 N 
ATOM     21  C   UNL     1      47.474   4.194  16.265  0.00  0.00    +0.000 A 
ATOM     22  O   UNL     1      46.753   4.295  15.279  0.00  0.00    +0.000 OA
ATOM     23  C   UNL     1      48.540   5.121  16.594  0.00  0.00    +0.000 A 
ATOM     24  H   UNL     1      46.559   2.522  16.967  0.00  0.00    +0.000 HD
ENDBRANCH  11  14
ENDBRANCH   9  10
ENDBRANCH   3   9
BRANCH   6  25
ATOM     25  C   UNL     1      44.439   4.458   9.665  0.00  0.00    +0.000 C 
BRANCH  25  26
ATOM     26  N   UNL     1      45.397   4.075   8.653  0.00  0.00    +0.000 N 
ATOM     27  C   UNL     1      45.703   2.756   8.412  0.00  0.00    +0.000 C 
ATOM     28  O   UNL     1      45.296   1.824   9.099  0.00  0.00    +0.000 OA
ATOM     29  H   UNL     1      45.657   4.737   7.928  0.00  0.00    +0.000 HD
BRANCH  27  30
ATOM     30  C   UNL     1      46.576   2.564   7.251  0.00  0.00    +0.000 A 
ATOM     31  C   UNL     1      47.667   1.721   7.177  0.00  0.00    +0.000 A 
ATOM     32  N   UNL     1      48.179   1.891   5.923  0.00  0.00    +0.000 N 
ATOM     33  C   UNL     1      47.397   2.808   5.280  0.00  0.00    +0.000 A 
ATOM     34  N   UNL     1      46.416   3.233   6.044  0.00  0.00    +0.000 NA
ATOM     35  H   UNL     1      48.993   1.431   5.539  0.00  0.00    +0.000 HD
ENDBRANCH  27  30
ENDBRANCH  25  26
ENDBRANCH   6  25
TORSDOF 7
ENDMDL
MODEL 2
REMARK VINA RESULT:    -7.785      2.092      2.627
REMARK INTER + INTRA:         -12.201
REMARK INTER:                 -10.789
REMARK INTRA:                  -1.412
REMARK UNBOUND:                -1.230
REMARK  Name = 
REMARK  8 active torsions:
REMARK  status: ('A' for Active; 'I' for Inactive)
REMARK    1  A    between atoms: C_1  and  O_2
REMARK    2  A    between atoms: O_2  and  C_3
REMARK    3  A    between atoms: C_5  and  C_6
REMARK    4  A    between atoms: C_6  and  N_7
REMARK    5  A    between atoms: C_8  and  C_10
REMARK    6  A    between atoms: C_22  and  C_23
REMARK    7  A    between atoms: C_23  and  N_24
REMARK    8  A    between atoms: C_25  and  C_27
REMARK                            x       y       z     vdW  Elec       q    Type
REMARK                         _______ _______ _______ _____ _____    ______ ____
ROOT
ATOM      1  C   UNL     1      45.662   4.674  12.752  0.00  0.00    +0.000 A 
ATOM      2  C   UNL     1      46.258   5.868  13.160  0.00  0.00    +0.000 A 
ATOM      3  C   UNL     1      45.814   7.069  12.615  0.00  0.00    +0.000 A 
ATOM      4  N   UNL     1      44.796   7.131  11.726  0.00  0.00    +0.000 NA
ATOM      5  C   UNL     1      44.234   5.958  11.348  0.00  0.00    +0.000 A 
ATOM      6  C   UNL     1      44.637   4.707  11.801  0.00  0.00    +0.000 A 
ENDROOT
BRANCH   1   8
ATOM      7  C   UNL     1      47.143   3.414  14.112  0.00  0.00    +0.000 C 
ATOM      8  O   UNL     1      46.048   3.437  13.201  0.00  0.00    +0.000 OA
ENDBRANCH   1   8
BRANCH   3   9
ATOM      9  C   UNL     1      46.469   8.367  13.026  0.00  0.00    +0.000 C 
BRANCH   9  10
ATOM     10  N   UNL     1      47.036   8.300  14.355  0.00  0.00    +0.000 N 
ATOM     11  C   UNL     1      48.128   9.031  14.735  0.00  0.00    +0.000 C 
ATOM     12  O   UNL     1      48.705   9.791  13.960  0.00  0.00    +0.000 OA
ATOM     13  H   UNL     1      46.723   7.519  14.925  0.00  0.00    +0.000 HD
BRANCH  11  14
ATOM     14  C   UNL     1      48.537   8.916  16.142  0.00  0.00    +0.000 A 
ATOM     15  C   UNL     1      48.454  10.026  16.974  0.00  0.00    +0.000 A 
ATOM     16  S   UNL     1      48.925   9.714  18.583  0.00  0.00    +0.000 S 
ATOM     17  C   UNL     1      49.300   8.095  18.216  0.00  0.00    +0.000 A 
ATOM     18  N   UNL     1      49.794   7.259  19.170  0.00  0.00    +0.000 NA
ATOM     19  C   UNL     1      50.065   6.070  18.747  0.00  0.00    +0.000 A 
ATOM     20  N   UNL     1      49.878   5.637  17.461  0.00  0.00    +0.000 N 
ATOM     21  C   UNL     1      49.330   6.429  16.480  0.00  0.00    +0.000 A 
ATOM     22  O   UNL     1      49.086   5.981  15.365  0.00  0.00    +0.000 OA
ATOM     23  C   UNL     1      49.042   7.790  16.892  0.00  0.00    +0.000 A 
ATOM     24  H   UNL     1      50.088   4.687  17.196  0.00  0.00    +0.000 HD
ENDBRANCH  11  14
ENDBRANCH   9  10
ENDBRANCH   3   9
BRANCH   6  25
ATOM     25  C   UNL     1      43.963   3.475  11.270  0.00  0.00    +0.000 C 
BRANCH  25  26
ATOM     26  N   UNL     1      44.793   2.751  10.334  0.00  0.00    +0.000 N 
ATOM     27  C   UNL     1      44.881   3.120   9.012  0.00  0.00    +0.000 C 
ATOM     28  O   UNL     1      44.186   3.992   8.498  0.00  0.00    +0.000 OA
ATOM     29  H   UNL     1      45.525   2.137  10.679  0.00  0.00    +0.000 HD
BRANCH  27  30
ATOM     30  C   UNL     1      45.887   2.362   8.262  0.00  0.00    +0.000 A 
ATOM     31  C   UNL     1      46.814   2.882   7.380  0.00  0.00    +0.000 A 
ATOM     32  N   UNL     1      47.516   1.810   6.910  0.00  0.00    +0.000 N 
ATOM     33  C   UNL     1      47.012   0.693   7.513  0.00  0.00    +0.000 A 
ATOM     34  N   UNL     1      46.034   0.984   8.340  0.00  0.00    +0.000 NA
ATOM     35  H   UNL     1      48.267   1.834   6.234  0.00  0.00    +0.000 HD
ENDBRANCH  27  30
ENDBRANCH  25  26
ENDBRANCH   6  25
TORSDOF 7
ENDMDL
MODEL 3
REMARK VINA RESULT:    -7.652      2.253      3.714
REMARK INTER + INTRA:         -12.014
REMARK INTER:                 -10.708
REMARK INTRA:                  -1.306
REMARK UNBOUND:                -1.230
REMARK  Name = 
REMARK  8 active torsions:
REMARK  status: ('A' for Active; 'I' for Inactive)
REMARK    1  A    between atoms: C_1  and  O_2
REMARK    2  A    between atoms: O_2  and  C_3
REMARK    3  A    between atoms: C_5  and  C_6
REMARK    4  A    between atoms: C_6  and  N_7
REMARK    5  A    between atoms: C_8  and  C_10
REMARK    6  A    between atoms: C_22  and  C_23
REMARK    7  A    between atoms: C_23  and  N_24
REMARK    8  A    between atoms: C_25  and  C_27
REMARK                            x       y       z     vdW  Elec       q    Type
REMARK                         _______ _______ _______ _____ _____    ______ ____
ROOT
ATOM      1  C   UNL     1      45.190   5.669  12.044  0.00  0.00    +0.000 A 
ATOM      2  C   UNL     1      45.933   5.682  13.225  0.00  0.00    +0.000 A 
ATOM      3  C   UNL     1      46.294   4.476  13.815  0.00  0.00    +0.000 A 
ATOM      4  N   UNL     1      45.982   3.278  13.267  0.00  0.00    +0.000 NA
ATOM      5  C   UNL     1      45.262   3.292  12.121  0.00  0.00    +0.000 A 
ATOM      6  C   UNL     1      44.818   4.444  11.481  0.00  0.00    +0.000 A 
ENDROOT
BRANCH   1   8
ATOM      7  C   UNL     1      45.267   8.036  11.895  0.00  0.00    +0.000 C 
ATOM      8  O   UNL     1      44.756   6.800  11.402  0.00  0.00    +0.000 OA
ENDBRANCH   1   8
BRANCH   3   9
ATOM      9  C   UNL     1      47.074   4.476  15.108  0.00  0.00    +0.000 C 
BRANCH   9  10
ATOM     10  N   UNL     1      47.673   5.762  15.388  0.00  0.00    +0.000 N 
ATOM     11  C   UNL     1      48.805   5.906  16.144  0.00  0.00    +0.000 C 
ATOM     12  O   UNL     1      49.382   4.942  16.643  0.00  0.00    +0.000 OA
ATOM     13  H   UNL     1      47.091   6.569  15.185  0.00  0.00    +0.000 HD
BRANCH  11  14
ATOM     14  C   UNL     1      49.339   7.269  16.271  0.00  0.00    +0.000 A 
ATOM     15  C   UNL     1      49.510   7.824  17.534  0.00  0.00    +0.000 A 
ATOM     16  S   UNL     1      50.179   9.393  17.510  0.00  0.00    +0.000 S 
ATOM     17  C   UNL     1      50.222   9.406  15.808  0.00  0.00    +0.000 A 
ATOM     18  N   UNL     1      50.672  10.496  15.129  0.00  0.00    +0.000 NA
ATOM     19  C   UNL     1      50.619  10.384  13.845  0.00  0.00    +0.000 A 
ATOM     20  N   UNL     1      50.168   9.276  13.177  0.00  0.00    +0.000 N 
ATOM     21  C   UNL     1      49.758   8.132  13.820  0.00  0.00    +0.000 A 
ATOM     22  O   UNL     1      49.452   7.125  13.192  0.00  0.00    +0.000 OA
ATOM     23  C   UNL     1      49.760   8.220  15.268  0.00  0.00    +0.000 A 
ATOM     24  H   UNL     1      50.172   9.238  12.169  0.00  0.00    +0.000 HD
ENDBRANCH  11  14
ENDBRANCH   9  10
ENDBRANCH   3   9
BRANCH   6  25
ATOM     25  C   UNL     1      43.985   4.325  10.237  0.00  0.00    +0.000 C 
BRANCH  25  26
ATOM     26  N   UNL     1      44.633   3.538   9.212  0.00  0.00    +0.000 N 
ATOM     27  C   UNL     1      45.631   4.062   8.423  0.00  0.00    +0.000 C 
ATOM     28  O   UNL     1      45.962   5.244   8.436  0.00  0.00    +0.000 OA
ATOM     29  H   UNL     1      44.560   2.525   9.231  0.00  0.00    +0.000 HD
BRANCH  27  30
ATOM     30  C   UNL     1      46.265   3.069   7.552  0.00  0.00    +0.000 A 
ATOM     31  C   UNL     1      46.483   1.737   7.850  0.00  0.00    +0.000 A 
ATOM     32  N   UNL     1      47.116   1.215   6.760  0.00  0.00    +0.000 N 
ATOM     33  C   UNL     1      47.257   2.220   5.846  0.00  0.00    +0.000 A 
ATOM     34  N   UNL     1      46.751   3.351   6.283  0.00  0.00    +0.000 NA
ATOM     35  H   UNL     1      47.432   0.262   6.649  0.00  0.00    +0.000 HD
ENDBRANCH  27  30
ENDBRANCH  25  26
ENDBRANCH   6  25
TORSDOF 7
ENDMDL
MODEL 4
REMARK VINA RESULT:    -7.542      2.487      3.129
REMARK INTER + INTRA:         -11.859
REMARK INTER:                 -10.735
REMARK INTRA:                  -1.124
REMARK UNBOUND:                -1.230
REMARK  Name = 
REMARK  8 active torsions:
REMARK  status: ('A' for Active; 'I' for Inactive)
REMARK    1  A    between atoms: C_1  and  O_2
REMARK    2  A    between atoms: O_2  and  C_3
REMARK    3  A    between atoms: C_5  and  C_6
REMARK    4  A    between atoms: C_6  and  N_7
REMARK    5  A    between atoms: C_8  and  C_10
REMARK    6  A    between atoms: C_22  and  C_23
REMARK    7  A    between atoms: C_23  and  N_24
REMARK    8  A    between atoms: C_25  and  C_27
REMARK                            x       y       z     vdW  Elec       q    Type
REMARK                         _______ _______ _______ _____ _____    ______ ____
ROOT
ATOM      1  C   UNL     1      46.447   5.953  12.538  0.00  0.00    +0.000 A 
ATOM      2  C   UNL     1      47.356   6.729  13.259  0.00  0.00    +0.000 A 
ATOM      3  C   UNL     1      47.901   6.220  14.433  0.00  0.00    +0.000 A 
ATOM      4  N   UNL     1      47.612   4.980  14.891  0.00  0.00    +0.000 NA
ATOM      5  C   UNL     1      46.729   4.247  14.172  0.00  0.00    +0.000 A 
ATOM      6  C   UNL     1      46.098   4.685  13.012  0.00  0.00    +0.000 A 
ENDROOT
BRANCH   1   8
ATOM      7  C   UNL     1      44.926   7.470  11.528  0.00  0.00    +0.000 C 
ATOM      8  O   UNL     1      45.828   6.375  11.389  0.00  0.00    +0.000 OA
ENDBRANCH   1   8
BRANCH   3   9
ATOM      9  C   UNL     1      48.865   7.060  15.238  0.00  0.00    +0.000 C 
BRANCH   9  10
ATOM     10  N   UNL     1      49.907   6.267  15.849  0.00  0.00    +0.000 N 
ATOM     11  C   UNL     1      49.870   5.870  17.158  0.00  0.00    +0.000 C 
ATOM     12  O   UNL     1      48.942   6.175  17.905  0.00  0.00    +0.000 OA
ATOM     13  H   UNL     1      50.775   6.206  15.324  0.00  0.00    +0.000 HD
BRANCH  11  14
ATOM     14  C   UNL     1      50.964   4.999  17.612  0.00  0.00    +0.000 A 
ATOM     15  C   UNL     1      52.089   5.562  18.201  0.00  0.00    +0.000 A 
ATOM     16  S   UNL     1      53.244   4.414  18.710  0.00  0.00    +0.000 S 
ATOM     17  C   UNL     1      52.302   3.125  18.119  0.00  0.00    +0.000 A 
ATOM     18  N   UNL     1      52.739   1.840  18.213  0.00  0.00    +0.000 NA
ATOM     19  C   UNL     1      51.941   0.966  17.696  0.00  0.00    +0.000 A 
ATOM     20  N   UNL     1      50.741   1.260  17.103  0.00  0.00    +0.000 N 
ATOM     21  C   UNL     1      50.235   2.536  17.036  0.00  0.00    +0.000 A 
ATOM     22  O   UNL     1      49.116   2.752  16.585  0.00  0.00    +0.000 OA
ATOM     23  C   UNL     1      51.111   3.563  17.568  0.00  0.00    +0.000 A 
ATOM     24  H   UNL     1      50.150   0.530  16.737  0.00  0.00    +0.000 HD
ENDBRANCH  11  14
ENDBRANCH   9  10
ENDBRANCH   3   9
BRANCH   6  25
ATOM     25  C   UNL     1      45.100   3.793  12.331  0.00  0.00    +0.000 C 
BRANCH  25  26
ATOM     26  N   UNL     1      45.552   3.350  11.032  0.00  0.00    +0.000 N 
ATOM     27  C   UNL     1      44.858   3.652   9.884  0.00  0.00    +0.000 C 
ATOM     28  O   UNL     1      43.760   4.201   9.875  0.00  0.00    +0.000 OA
ATOM     29  H   UNL     1      46.513   3.045  10.909  0.00  0.00    +0.000 HD
BRANCH  27  30
ATOM     30  C   UNL     1      45.554   3.248   8.660  0.00  0.00    +0.000 A 
ATOM     31  C   UNL     1      45.982   1.973   8.344  0.00  0.00    +0.000 A 
ATOM     32  N   UNL     1      46.592   2.080   7.128  0.00  0.00    +0.000 N 
ATOM     33  C   UNL     1      46.513   3.388   6.742  0.00  0.00    +0.000 A 
ATOM     34  N   UNL     1      45.888   4.122   7.635  0.00  0.00    +0.000 NA
ATOM     35  H   UNL     1      47.030   1.333   6.608  0.00  0.00    +0.000 HD
ENDBRANCH  27  30
ENDBRANCH  25  26
ENDBRANCH   6  25
TORSDOF 7
ENDMDL
MODEL 5
REMARK VINA RESULT:    -7.506      3.533      4.849
REMARK INTER + INTRA:         -11.808
REMARK INTER:                 -10.441
REMARK INTRA:                  -1.367
REMARK UNBOUND:                -1.230
REMARK  Name = 
REMARK  8 active torsions:
REMARK  status: ('A' for Active; 'I' for Inactive)
REMARK    1  A    between atoms: C_1  and  O_2
REMARK    2  A    between atoms: O_2  and  C_3
REMARK    3  A    between atoms: C_5  and  C_6
REMARK    4  A    between atoms: C_6  and  N_7
REMARK    5  A    between atoms: C_8  and  C_10
REMARK    6  A    between atoms: C_22  and  C_23
REMARK    7  A    between atoms: C_23  and  N_24
REMARK    8  A    between atoms: C_25  and  C_27
REMARK                            x       y       z     vdW  Elec       q    Type
REMARK                         _______ _______ _______ _____ _____    ______ ____
ROOT
ATOM      1  C   UNL     1      45.453   4.657  12.579  0.00  0.00    +0.000 A 
ATOM      2  C   UNL     1      45.849   5.920  13.023  0.00  0.00    +0.000 A 
ATOM      3  C   UNL     1      45.232   7.050  12.498  0.00  0.00    +0.000 A 
ATOM      4  N   UNL     1      44.229   6.975  11.592  0.00  0.00    +0.000 NA
ATOM      5  C   UNL     1      43.863   5.739  11.178  0.00  0.00    +0.000 A 
ATOM      6  C   UNL     1      44.449   4.554  11.611  0.00  0.00    +0.000 A 
ENDROOT
BRANCH   1   8
ATOM      7  C   UNL     1      47.093   3.610  13.937  0.00  0.00    +0.000 C 
ATOM      8  O   UNL     1      46.021   3.485  13.007  0.00  0.00    +0.000 OA
ENDBRANCH   1   8
BRANCH   3   9
ATOM      9  C   UNL     1      45.671   8.423  12.949  0.00  0.00    +0.000 C 
BRANCH   9  10
ATOM     10  N   UNL     1      46.862   8.873  12.264  0.00  0.00    +0.000 N 
ATOM     11  C   UNL     1      47.868   9.555  12.891  0.00  0.00    +0.000 C 
ATOM     12  O   UNL     1      47.817   9.838  14.086  0.00  0.00    +0.000 OA
ATOM     13  H   UNL     1      46.815   8.855  11.249  0.00  0.00    +0.000 HD
BRANCH  11  14
ATOM     14  C   UNL     1      49.051   9.874  12.078  0.00  0.00    +0.000 A 
ATOM     15  C   UNL     1      49.302  11.192  11.720  0.00  0.00    +0.000 A 
ATOM     16  S   UNL     1      50.734  11.397  10.816  0.00  0.00    +0.000 S 
ATOM     17  C   UNL     1      51.045   9.724  10.830  0.00  0.00    +0.000 A 
ATOM     18  N   UNL     1      52.133   9.211  10.193  0.00  0.00    +0.000 NA
ATOM     19  C   UNL     1      52.230   7.925  10.256  0.00  0.00    +0.000 A 
ATOM     20  N   UNL     1      51.345   7.107  10.907  0.00  0.00    +0.000 N 
ATOM     21  C   UNL     1      50.265   7.586  11.610  0.00  0.00    +0.000 A 
ATOM     22  O   UNL     1      49.548   6.834  12.261  0.00  0.00    +0.000 OA
ATOM     23  C   UNL     1      50.087   9.023  11.539  0.00  0.00    +0.000 A 
ATOM     24  H   UNL     1      51.487   6.109  10.941  0.00  0.00    +0.000 HD
ENDBRANCH  11  14
ENDBRANCH   9  10
ENDBRANCH   3   9
BRANCH   6  25
ATOM     25  C   UNL     1      43.982   3.246  11.040  0.00  0.00    +0.000 C 
BRANCH  25  26
ATOM     26  N   UNL     1      44.921   2.692  10.092  0.00  0.00    +0.000 N 
ATOM     27  C   UNL     1      45.000   3.154   8.799  0.00  0.00    +0.000 C 
ATOM     28  O   UNL     1      44.217   3.968   8.316  0.00  0.00    +0.000 OA
ATOM     29  H   UNL     1      45.713   2.149  10.423  0.00  0.00    +0.000 HD
BRANCH  27  30
ATOM     30  C   UNL     1      46.111   2.575   8.040  0.00  0.00    +0.000 A 
ATOM     31  C   UNL     1      46.452   1.238   7.979  0.00  0.00    +0.000 A 
ATOM     32  N   UNL     1      47.557   1.176   7.179  0.00  0.00    +0.000 N 
ATOM     33  C   UNL     1      47.846   2.449   6.779  0.00  0.00    +0.000 A 
ATOM     34  N   UNL     1      46.994   3.320   7.270  0.00  0.00    +0.000 NA
ATOM     35  H   UNL     1      48.074   0.343   6.933  0.00  0.00    +0.000 HD
ENDBRANCH  27  30
ENDBRANCH  25  26
ENDBRANCH   6  25
TORSDOF 7
ENDMDL
MODEL 6
REMARK VINA RESULT:    -7.334      2.898      3.890
REMARK INTER + INTRA:         -11.565
REMARK INTER:                 -10.463
REMARK INTRA:                  -1.101
REMARK UNBOUND:                -1.230
REMARK  Name = 
REMARK  8 active torsions:
REMARK  status: ('A' for Active; 'I' for Inactive)
REMARK    1  A    between atoms: C_1  and  O_2
REMARK    2  A    between atoms: O_2  and  C_3
REMARK    3  A    between atoms: C_5  and  C_6
REMARK    4  A    between atoms: C_6  and  N_7
REMARK    5  A    between atoms: C_8  and  C_10
REMARK    6  A    between atoms: C_22  and  C_23
REMARK    7  A    between atoms: C_23  and  N_24
REMARK    8  A    between atoms: C_25  and  C_27
REMARK                            x       y       z     vdW  Elec       q    Type
REMARK                         _______ _______ _______ _____ _____    ______ ____
ROOT
ATOM      1  C   UNL     1      45.337   4.542  12.501  0.00  0.00    +0.000 A 
ATOM      2  C   UNL     1      45.697   5.830  12.901  0.00  0.00    +0.000 A 
ATOM      3  C   UNL     1      44.990   6.919  12.403  0.00  0.00    +0.000 A 
ATOM      4  N   UNL     1      43.933   6.778  11.568  0.00  0.00    +0.000 NA
ATOM      5  C   UNL     1      43.603   5.519  11.197  0.00  0.00    +0.000 A 
ATOM      6  C   UNL     1      44.276   4.372  11.606  0.00  0.00    +0.000 A 
ENDROOT
BRANCH   1   8
ATOM      7  C   UNL     1      46.947   3.572  13.949  0.00  0.00    +0.000 C 
ATOM      8  O   UNL     1      45.991   3.407  12.906  0.00  0.00    +0.000 OA
ENDBRANCH   1   8
BRANCH   3   9
ATOM      9  C   UNL     1      45.387   8.319  12.804  0.00  0.00    +0.000 C 
BRANCH   9  10
ATOM     10  N   UNL     1      46.621   8.346  13.558  0.00  0.00    +0.000 N 
ATOM     11  C   UNL     1      47.721   9.055  13.158  0.00  0.00    +0.000 C 
ATOM     12  O   UNL     1      47.731   9.711  12.119  0.00  0.00    +0.000 OA
ATOM     13  H   UNL     1      46.708   7.637  14.280  0.00  0.00    +0.000 HD
BRANCH  11  14
ATOM     14  C   UNL     1      48.873   9.049  14.071  0.00  0.00    +0.000 A 
ATOM     15  C   UNL     1      48.698   9.416  15.400  0.00  0.00    +0.000 A 
ATOM     16  S   UNL     1      50.121   9.313  16.334  0.00  0.00    +0.000 S 
ATOM     17  C   UNL     1      51.034   8.818  14.986  0.00  0.00    +0.000 A 
ATOM     18  N   UNL     1      52.369   8.580  15.095  0.00  0.00    +0.000 NA
ATOM     19  C   UNL     1      52.944   8.243  13.990  0.00  0.00    +0.000 A 
ATOM     20  N   UNL     1      52.302   8.111  12.786  0.00  0.00    +0.000 N 
ATOM     21  C   UNL     1      50.946   8.285  12.641  0.00  0.00    +0.000 A 
ATOM     22  O   UNL     1      50.390   8.065  11.571  0.00  0.00    +0.000 OA
ATOM     23  C   UNL     1      50.258   8.705  13.847  0.00  0.00    +0.000 A 
ATOM     24  H   UNL     1      52.802   7.822  11.959  0.00  0.00    +0.000 HD
ENDBRANCH  11  14
ENDBRANCH   9  10
ENDBRANCH   3   9
BRANCH   6  25
ATOM     25  C   UNL     1      43.840   3.033  11.086  0.00  0.00    +0.000 C 
BRANCH  25  26
ATOM     26  N   UNL     1      44.784   2.470  10.148  0.00  0.00    +0.000 N 
ATOM     27  C   UNL     1      44.920   2.967   8.873  0.00  0.00    +0.000 C 
ATOM     28  O   UNL     1      44.185   3.825   8.393  0.00  0.00    +0.000 OA
ATOM     29  H   UNL     1      45.544   1.887  10.486  0.00  0.00    +0.000 HD
BRANCH  27  30
ATOM     30  C   UNL     1      46.030   2.367   8.129  0.00  0.00    +0.000 A 
ATOM     31  C   UNL     1      46.924   3.033   7.312  0.00  0.00    +0.000 A 
ATOM     32  N   UNL     1      47.759   2.073   6.820  0.00  0.00    +0.000 N 
ATOM     33  C   UNL     1      47.363   0.875   7.345  0.00  0.00    +0.000 A 
ATOM     34  N   UNL     1      46.329   1.012   8.145  0.00  0.00    +0.000 NA
ATOM     35  H   UNL     1      48.525   2.215   6.177  0.00  0.00    +0.000 HD
ENDBRANCH  27  30
ENDBRANCH  25  26
ENDBRANCH   6  25
TORSDOF 7
ENDMDL
MODEL 7
REMARK VINA RESULT:    -7.252      2.616      3.282
REMARK INTER + INTRA:         -11.449
REMARK INTER:                 -10.326
REMARK INTRA:                  -1.124
REMARK UNBOUND:                -1.230
REMARK  Name = 
REMARK  8 active torsions:
REMARK  status: ('A' for Active; 'I' for Inactive)
REMARK    1  A    between atoms: C_1  and  O_2
REMARK    2  A    between atoms: O_2  and  C_3
REMARK    3  A    between atoms: C_5  and  C_6
REMARK    4  A    between atoms: C_6  and  N_7
REMARK    5  A    between atoms: C_8  and  C_10
REMARK    6  A    between atoms: C_22  and  C_23
REMARK    7  A    between atoms: C_23  and  N_24
REMARK    8  A    between atoms: C_25  and  C_27
REMARK                            x       y       z     vdW  Elec       q    Type
REMARK                         _______ _______ _______ _____ _____    ______ ____
ROOT
ATOM      1  C   UNL     1      45.989   5.832  12.316  0.00  0.00    +0.000 A 
ATOM      2  C   UNL     1      46.602   5.687  13.562  0.00  0.00    +0.000 A 
ATOM      3  C   UNL     1      46.662   4.426  14.146  0.00  0.00    +0.000 A 
ATOM      4  N   UNL     1      46.180   3.319  13.535  0.00  0.00    +0.000 NA
ATOM      5  C   UNL     1      45.592   3.487  12.328  0.00  0.00    +0.000 A 
ATOM      6  C   UNL     1      45.444   4.711  11.684  0.00  0.00    +0.000 A 
ENDROOT
BRANCH   1   8
ATOM      7  C   UNL     1      45.540   8.155  12.496  0.00  0.00    +0.000 C 
ATOM      8  O   UNL     1      45.847   7.034  11.671  0.00  0.00    +0.000 OA
ENDBRANCH   1   8
BRANCH   3   9
ATOM      9  C   UNL     1      47.297   4.259  15.506  0.00  0.00    +0.000 C 
BRANCH   9  10
ATOM     10  N   UNL     1      47.671   5.525  16.098  0.00  0.00    +0.000 N 
ATOM     11  C   UNL     1      48.916   5.768  16.609  0.00  0.00    +0.000 C 
ATOM     12  O   UNL     1      49.800   4.914  16.605  0.00  0.00    +0.000 OA
ATOM     13  H   UNL     1      46.900   6.149  16.318  0.00  0.00    +0.000 HD
BRANCH  11  14
ATOM     14  C   UNL     1      49.168   7.129  17.103  0.00  0.00    +0.000 A 
ATOM     15  C   UNL     1      50.079   7.942  16.439  0.00  0.00    +0.000 A 
ATOM     16  S   UNL     1      50.223   9.503  17.113  0.00  0.00    +0.000 S 
ATOM     17  C   UNL     1      49.107   9.133  18.344  0.00  0.00    +0.000 A 
ATOM     18  N   UNL     1      48.793  10.049  19.299  0.00  0.00    +0.000 NA
ATOM     19  C   UNL     1      47.959   9.626  20.190  0.00  0.00    +0.000 A 
ATOM     20  N   UNL     1      47.404   8.374  20.206  0.00  0.00    +0.000 N 
ATOM     21  C   UNL     1      47.649   7.437  19.231  0.00  0.00    +0.000 A 
ATOM     22  O   UNL     1      47.061   6.361  19.222  0.00  0.00    +0.000 OA
ATOM     23  C   UNL     1      48.611   7.847  18.225  0.00  0.00    +0.000 A 
ATOM     24  H   UNL     1      46.739   8.109  20.917  0.00  0.00    +0.000 HD
ENDBRANCH  11  14
ENDBRANCH   9  10
ENDBRANCH   3   9
BRANCH   6  25
ATOM     25  C   UNL     1      44.730   4.771  10.364  0.00  0.00    +0.000 C 
BRANCH  25  26
ATOM     26  N   UNL     1      45.534   4.261   9.277  0.00  0.00    +0.000 N 
ATOM     27  C   UNL     1      45.341   2.999   8.767  0.00  0.00    +0.000 C 
ATOM     28  O   UNL     1      44.576   2.174   9.257  0.00  0.00    +0.000 OA
ATOM     29  H   UNL     1      46.065   4.904   8.697  0.00  0.00    +0.000 HD
BRANCH  27  30
ATOM     30  C   UNL     1      46.147   2.724   7.574  0.00  0.00    +0.000 A 
ATOM     31  C   UNL     1      46.939   1.613   7.359  0.00  0.00    +0.000 A 
ATOM     32  N   UNL     1      47.511   1.800   6.134  0.00  0.00    +0.000 N 
ATOM     33  C   UNL     1      47.054   2.991   5.645  0.00  0.00    +0.000 A 
ATOM     34  N   UNL     1      46.225   3.574   6.480  0.00  0.00    +0.000 NA
ATOM     35  H   UNL     1      48.160   1.178   5.674  0.00  0.00    +0.000 HD
ENDBRANCH  27  30
ENDBRANCH  25  26
ENDBRANCH   6  25
TORSDOF 7
ENDMDL
MODEL 8
REMARK VINA RESULT:    -7.056      4.572      9.513
REMARK INTER + INTRA:         -11.173
REMARK INTER:                 -10.278
REMARK INTRA:                  -0.895
REMARK UNBOUND:                -1.230
REMARK  Name = 
REMARK  8 active torsions:
REMARK  status: ('A' for Active; 'I' for Inactive)
REMARK    1  A    between atoms: C_1  and  O_2
REMARK    2  A    between atoms: O_2  and  C_3
REMARK    3  A    between atoms: C_5  and  C_6
REMARK    4  A    between atoms: C_6  and  N_7
REMARK    5  A    between atoms: C_8  and  C_10
REMARK    6  A    between atoms: C_22  and  C_23
REMARK    7  A    between atoms: C_23  and  N_24
REMARK    8  A    between atoms: C_25  and  C_27
REMARK                            x       y       z     vdW  Elec       q    Type
REMARK                         _______ _______ _______ _____ _____    ______ ____
ROOT
ATOM      1  C   UNL     1      50.603   4.271  18.173  0.00  0.00    +0.000 A 
ATOM      2  C   UNL     1      49.232   4.340  17.921  0.00  0.00    +0.000 A 
ATOM      3  C   UNL     1      48.617   3.312  17.215  0.00  0.00    +0.000 A 
ATOM      4  N   UNL     1      49.293   2.218  16.790  0.00  0.00    +0.000 NA
ATOM      5  C   UNL     1      50.621   2.174  17.048  0.00  0.00    +0.000 A 
ATOM      6  C   UNL     1      51.332   3.172  17.706  0.00  0.00    +0.000 A 
ENDROOT
BRANCH   1   8
ATOM      7  C   UNL     1      50.567   6.054  19.738  0.00  0.00    +0.000 C 
ATOM      8  O   UNL     1      51.309   5.246  18.829  0.00  0.00    +0.000 OA
ENDBRANCH   1   8
BRANCH   3   9
ATOM      9  C   UNL     1      47.140   3.388  16.911  0.00  0.00    +0.000 C 
BRANCH   9  10
ATOM     10  N   UNL     1      46.835   4.387  15.911  0.00  0.00    +0.000 N 
ATOM     11  C   UNL     1      46.923   4.143  14.567  0.00  0.00    +0.000 C 
ATOM     12  O   UNL     1      47.279   3.054  14.124  0.00  0.00    +0.000 OA
ATOM     13  H   UNL     1      46.769   5.341  16.251  0.00  0.00    +0.000 HD
BRANCH  11  14
ATOM     14  C   UNL     1      46.503   5.233  13.675  0.00  0.00    +0.000 A 
ATOM     15  C   UNL     1      47.370   6.290  13.427  0.00  0.00    +0.000 A 
ATOM     16  S   UNL     1      46.748   7.447  12.338  0.00  0.00    +0.000 S 
ATOM     17  C   UNL     1      45.279   6.600  12.194  0.00  0.00    +0.000 A 
ATOM     18  N   UNL     1      44.272   7.077  11.413  0.00  0.00    +0.000 NA
ATOM     19  C   UNL     1      43.203   6.353  11.420  0.00  0.00    +0.000 A 
ATOM     20  N   UNL     1      43.053   5.190  12.129  0.00  0.00    +0.000 N 
ATOM     21  C   UNL     1      44.062   4.642  12.885  0.00  0.00    +0.000 A 
ATOM     22  O   UNL     1      43.928   3.552  13.429  0.00  0.00    +0.000 OA
ATOM     23  C   UNL     1      45.274   5.437  12.943  0.00  0.00    +0.000 A 
ATOM     24  H   UNL     1      42.200   4.655  12.077  0.00  0.00    +0.000 HD
ENDBRANCH  11  14
ENDBRANCH   9  10
ENDBRANCH   3   9
BRANCH   6  25
ATOM     25  C   UNL     1      52.815   3.025  17.890  0.00  0.00    +0.000 C 
BRANCH  25  26
ATOM     26  N   UNL     1      53.261   1.663  17.707  0.00  0.00    +0.000 N 
ATOM     27  C   UNL     1      54.012   1.015  18.661  0.00  0.00    +0.000 C 
ATOM     28  O   UNL     1      54.461   1.562  19.664  0.00  0.00    +0.000 OA
ATOM     29  H   UNL     1      52.814   1.074  17.012  0.00  0.00    +0.000 HD
BRANCH  27  30
ATOM     30  C   UNL     1      54.236  -0.402  18.362  0.00  0.00    +0.000 A 
ATOM     31  C   UNL     1      54.679  -0.926  17.163  0.00  0.00    +0.000 A 
ATOM     32  N   UNL     1      54.712  -2.278  17.344  0.00  0.00    +0.000 N 
ATOM     33  C   UNL     1      54.305  -2.533  18.622  0.00  0.00    +0.000 A 
ATOM     34  N   UNL     1      54.015  -1.428  19.271  0.00  0.00    +0.000 NA
ATOM     35  H   UNL     1      54.981  -2.969  16.657  0.00  0.00    +0.000 HD
ENDBRANCH  27  30
ENDBRANCH  25  26
ENDBRANCH   6  25
TORSDOF 7
ENDMDL
MODEL 9
REMARK VINA RESULT:    -6.984      2.424      3.565
REMARK INTER + INTRA:         -11.071
REMARK INTER:                  -9.936
REMARK INTRA:                  -1.136
REMARK UNBOUND:                -1.230
REMARK  Name = 
REMARK  8 active torsions:
REMARK  status: ('A' for Active; 'I' for Inactive)
REMARK    1  A    between atoms: C_1  and  O_2
REMARK    2  A    between atoms: O_2  and  C_3
REMARK    3  A    between atoms: C_5  and  C_6
REMARK    4  A    between atoms: C_6  and  N_7
REMARK    5  A    between atoms: C_8  and  C_10
REMARK    6  A    between atoms: C_22  and  C_23
REMARK    7  A    between atoms: C_23  and  N_24
REMARK    8  A    between atoms: C_25  and  C_27
REMARK                            x       y       z     vdW  Elec       q    Type
REMARK                         _______ _______ _______ _____ _____    ______ ____
ROOT
ATOM      1  C   UNL     1      46.260   5.934  12.420  0.00  0.00    +0.000 A 
ATOM      2  C   UNL     1      46.834   5.699  13.670  0.00  0.00    +0.000 A 
ATOM      3  C   UNL     1      46.739   4.431  14.234  0.00  0.00    +0.000 A 
ATOM      4  N   UNL     1      46.139   3.397  13.599  0.00  0.00    +0.000 NA
ATOM      5  C   UNL     1      45.591   3.651  12.388  0.00  0.00    +0.000 A 
ATOM      6  C   UNL     1      45.596   4.893  11.763  0.00  0.00    +0.000 A 
ENDROOT
BRANCH   1   8
ATOM      7  C   UNL     1      45.642   8.224  12.497  0.00  0.00    +0.000 C 
ATOM      8  O   UNL     1      46.267   7.154  11.794  0.00  0.00    +0.000 OA
ENDBRANCH   1   8
BRANCH   3   9
ATOM      9  C   UNL     1      47.332   4.170  15.598  0.00  0.00    +0.000 C 
BRANCH   9  10
ATOM     10  N   UNL     1      47.743   5.387  16.261  0.00  0.00    +0.000 N 
ATOM     11  C   UNL     1      47.946   5.467  17.612  0.00  0.00    +0.000 C 
ATOM     12  O   UNL     1      47.780   4.501  18.353  0.00  0.00    +0.000 OA
ATOM     13  H   UNL     1      47.659   6.236  15.709  0.00  0.00    +0.000 HD
BRANCH  11  14
ATOM     14  C   UNL     1      48.441   6.752  18.126  0.00  0.00    +0.000 A 
ATOM     15  C   UNL     1      47.724   7.418  19.113  0.00  0.00    +0.000 A 
ATOM     16  S   UNL     1      48.455   8.869  19.630  0.00  0.00    +0.000 S 
ATOM     17  C   UNL     1      49.733   8.684  18.522  0.00  0.00    +0.000 A 
ATOM     18  N   UNL     1      50.716   9.619  18.426  0.00  0.00    +0.000 NA
ATOM     19  C   UNL     1      51.604   9.370  17.524  0.00  0.00    +0.000 A 
ATOM     20  N   UNL     1      51.605   8.264  16.715  0.00  0.00    +0.000 N 
ATOM     21  C   UNL     1      50.664   7.267  16.814  0.00  0.00    +0.000 A 
ATOM     22  O   UNL     1      50.748   6.245  16.142  0.00  0.00    +0.000 OA
ATOM     23  C   UNL     1      49.618   7.517  17.788  0.00  0.00    +0.000 A 
ATOM     24  H   UNL     1      52.340   8.112  16.041  0.00  0.00    +0.000 HD
ENDBRANCH  11  14
ENDBRANCH   9  10
ENDBRANCH   3   9
BRANCH   6  25
ATOM     25  C   UNL     1      44.911   5.057  10.436  0.00  0.00    +0.000 C 
BRANCH  25  26
ATOM     26  N   UNL     1      45.648   4.443   9.355  0.00  0.00    +0.000 N 
ATOM     27  C   UNL     1      45.283   3.224   8.833  0.00  0.00    +0.000 C 
ATOM     28  O   UNL     1      44.402   2.514   9.309  0.00  0.00    +0.000 OA
ATOM     29  H   UNL     1      46.273   5.007   8.786  0.00  0.00    +0.000 HD
BRANCH  27  30
ATOM     30  C   UNL     1      46.057   2.843   7.648  0.00  0.00    +0.000 A 
ATOM     31  C   UNL     1      46.766   1.671   7.476  0.00  0.00    +0.000 A 
ATOM     32  N   UNL     1      47.339   1.766   6.240  0.00  0.00    +0.000 N 
ATOM     33  C   UNL     1      46.963   2.965   5.704  0.00  0.00    +0.000 A 
ATOM     34  N   UNL     1      46.185   3.640   6.519  0.00  0.00    +0.000 NA
ATOM     35  H   UNL     1      47.938   1.080   5.802  0.00  0.00    +0.000 HD
ENDBRANCH  27  30
ENDBRANCH  25  26
ENDBRANCH   6  25
TORSDOF 7
ENDMDL
