MODEL 1
REMARK VINA RESULT:    -8.127      0.000      0.000
REMARK INTER + INTRA:         -12.400
REMARK INTER:                 -11.216
REMARK INTRA:                  -1.185
REMARK UNBOUND:                -1.185
REMARK  Name = 
REMARK  7 active torsions:
REMARK  status: ('A' for Active; 'I' for Inactive)
REMARK    1  A    between atoms: C_2  and  C_21
REMARK    2  A    between atoms: N_3  and  C_4
REMARK    3  A    between atoms: C_4  and  C_5
REMARK    4  A    between atoms: C_8  and  C_9
REMARK    5  A    between atoms: C_9  and  N_10
REMARK    6  A    between atoms: C_11  and  C_13
REMARK    7  A    between atoms: C_16  and  O_17
REMARK                            x       y       z     vdW  Elec       q    Type
REMARK                         _______ _______ _______ _____ _____    ______ ____
ROOT
ATOM      1  C   UNL     1      46.276   7.173  12.586  0.00  0.00    +0.000 A 
ATOM      2  C   UNL     1      46.804   6.679  11.391  0.00  0.00    +0.000 A 
ATOM      3  C   UNL     1      46.006   5.913  10.540  0.00  0.00    +0.000 A 
ATOM      4  C   UNL     1      44.687   5.657  10.902  0.00  0.00    +0.000 A 
ATOM      5  N   UNL     1      44.136   6.166  12.034  0.00  0.00    +0.000 NA
ATOM      6  C   UNL     1      44.937   6.903  12.843  0.00  0.00    +0.000 A 
ENDROOT
BRANCH   1   7
ATOM      7  C   UNL     1      47.103   7.996  13.532  0.00  0.00    +0.000 C 
BRANCH   7  10
ATOM      8  O   UNL     1      49.666   6.957  13.934  0.00  0.00    +0.000 OA
ATOM      9  C   UNL     1      48.827   6.811  14.820  0.00  0.00    +0.000 C 
ATOM     10  N   UNL     1      47.525   7.218  14.669  0.00  0.00    +0.000 N 
ATOM     11  H   UNL     1      46.933   7.268  15.492  0.00  0.00    +0.000 HD
BRANCH   9  12
ATOM     12  C   UNL     1      49.156   6.155  16.092  0.00  0.00    +0.000 A 
ATOM     13  C   UNL     1      50.158   6.665  16.907  0.00  0.00    +0.000 A 
ATOM     14  S   UNL     1      50.408   5.760  18.332  0.00  0.00    +0.000 S 
ATOM     15  C   UNL     1      49.152   4.682  17.935  0.00  0.00    +0.000 A 
ATOM     16  N   UNL     1      48.811   3.663  18.769  0.00  0.00    +0.000 NA
ATOM     17  C   UNL     1      47.819   2.948  18.358  0.00  0.00    +0.000 A 
ATOM     18  N   UNL     1      47.139   3.151  17.187  0.00  0.00    +0.000 N 
ATOM     19  C   UNL     1      47.472   4.141  16.296  0.00  0.00    +0.000 A 
ATOM     20  O   UNL     1      46.887   4.254  15.223  0.00  0.00    +0.000 OA
ATOM     21  C   UNL     1      48.568   4.993  16.720  0.00  0.00    +0.000 A 
ATOM     22  H   UNL     1      46.376   2.546  16.916  0.00  0.00    +0.000 HD
ENDBRANCH   9  12
ENDBRANCH   7  10
ENDBRANCH   1   7
BRANCH   4  23
ATOM     23  C   UNL     1      43.812   4.788  10.026  0.00  0.00    +0.000 C 
BRANCH  23  24
ATOM     24  N   UNL     1      44.513   4.279   8.866  0.00  0.00    +0.000 N 
ATOM     25  C   UNL     1      45.011   2.996   8.796  0.00  0.00    +0.000 C 
ATOM     26  O   UNL     1      44.874   2.172   9.692  0.00  0.00    +0.000 OA
ATOM     27  H   UNL     1      44.792   4.965   8.178  0.00  0.00    +0.000 HD
BRANCH  25  28
ATOM     28  C   UNL     1      45.690   2.696   7.461  0.00  0.00    +0.000 C 
ATOM     29  C   UNL     1      46.368   1.317   7.371  0.00  0.00    +0.000 C 
ATOM     30  C   UNL     1      47.856   1.592   7.163  0.00  0.00    +0.000 C 
ATOM     31  C   UNL     1      47.891   2.940   6.462  0.00  0.00    +0.000 C 
ATOM     32  C   UNL     1      46.790   3.726   7.153  0.00  0.00    +0.000 C 
BRANCH  31  33
ATOM     33  O   UNL     1      47.613   2.807   5.074  0.00  0.00    +0.000 OA
ATOM     34  H   UNL     1      48.014   3.548   4.590  0.00  0.00    +0.000 HD
ENDBRANCH  31  33
ENDBRANCH  25  28
ENDBRANCH  23  24
ENDBRANCH   4  23
TORSDOF 7
ENDMDL
MODEL 2
REMARK VINA RESULT:    -7.392      1.920      2.206
REMARK INTER + INTRA:         -11.385
REMARK INTER:                 -10.561
REMARK INTRA:                  -0.824
REMARK UNBOUND:                -1.185
REMARK  Name = 
REMARK  7 active torsions:
REMARK  status: ('A' for Active; 'I' for Inactive)
REMARK    1  A    between atoms: C_2  and  C_21
REMARK    2  A    between atoms: N_3  and  C_4
REMARK    3  A    between atoms: C_4  and  C_5
REMARK    4  A    between atoms: C_8  and  C_9
REMARK    5  A    between atoms: C_9  and  N_10
REMARK    6  A    between atoms: C_11  and  C_13
REMARK    7  A    between atoms: C_16  and  O_17
REMARK                            x       y       z     vdW  Elec       q    Type
REMARK                         _______ _______ _______ _____ _____    ______ ____
ROOT
ATOM      1  C   UNL     1      47.188   6.253  13.623  0.00  0.00    +0.000 A 
ATOM      2  C   UNL     1      47.273   4.941  14.096  0.00  0.00    +0.000 A 
ATOM      3  C   UNL     1      46.436   3.956  13.571  0.00  0.00    +0.000 A 
ATOM      4  C   UNL     1      45.528   4.302  12.575  0.00  0.00    +0.000 A 
ATOM      5  N   UNL     1      45.460   5.559  12.064  0.00  0.00    +0.000 NA
ATOM      6  C   UNL     1      46.282   6.496  12.597  0.00  0.00    +0.000 A 
ENDROOT
BRANCH   1   7
ATOM      7  C   UNL     1      48.066   7.344  14.166  0.00  0.00    +0.000 C 
BRANCH   7  10
ATOM      8  O   UNL     1      50.317   6.449  15.559  0.00  0.00    +0.000 OA
ATOM      9  C   UNL     1      49.359   6.873  16.201  0.00  0.00    +0.000 C 
ATOM     10  N   UNL     1      48.185   7.254  15.599  0.00  0.00    +0.000 N 
ATOM     11  H   UNL     1      47.512   7.786  16.140  0.00  0.00    +0.000 HD
BRANCH   9  12
ATOM     12  C   UNL     1      49.393   6.965  17.667  0.00  0.00    +0.000 A 
ATOM     13  C   UNL     1      49.685   8.172  18.287  0.00  0.00    +0.000 A 
ATOM     14  S   UNL     1      49.696   8.079  19.991  0.00  0.00    +0.000 S 
ATOM     15  C   UNL     1      49.260   6.434  19.961  0.00  0.00    +0.000 A 
ATOM     16  N   UNL     1      49.066   5.737  21.114  0.00  0.00    +0.000 NA
ATOM     17  C   UNL     1      48.704   4.511  20.940  0.00  0.00    +0.000 A 
ATOM     18  N   UNL     1      48.527   3.912  19.722  0.00  0.00    +0.000 N 
ATOM     19  C   UNL     1      48.749   4.563  18.534  0.00  0.00    +0.000 A 
ATOM     20  O   UNL     1      48.647   3.978  17.459  0.00  0.00    +0.000 OA
ATOM     21  C   UNL     1      49.135   5.955  18.669  0.00  0.00    +0.000 A 
ATOM     22  H   UNL     1      48.254   2.941  19.653  0.00  0.00    +0.000 HD
ENDBRANCH   9  12
ENDBRANCH   7  10
ENDBRANCH   1   7
BRANCH   4  23
ATOM     23  C   UNL     1      44.573   3.268  12.021  0.00  0.00    +0.000 C 
BRANCH  23  24
ATOM     24  N   UNL     1      44.882   2.898  10.655  0.00  0.00    +0.000 N 
ATOM     25  C   UNL     1      44.342   3.542   9.563  0.00  0.00    +0.000 C 
ATOM     26  O   UNL     1      43.582   4.499   9.656  0.00  0.00    +0.000 OA
ATOM     27  H   UNL     1      45.368   2.019  10.532  0.00  0.00    +0.000 HD
BRANCH  25  28
ATOM     28  C   UNL     1      44.842   2.977   8.235  0.00  0.00    +0.000 C 
ATOM     29  C   UNL     1      45.378   1.536   8.302  0.00  0.00    +0.000 C 
ATOM     30  C   UNL     1      46.854   1.617   7.914  0.00  0.00    +0.000 C 
ATOM     31  C   UNL     1      46.934   2.835   7.009  0.00  0.00    +0.000 C 
ATOM     32  C   UNL     1      45.990   3.827   7.667  0.00  0.00    +0.000 C 
BRANCH  31  33
ATOM     33  O   UNL     1      46.494   2.528   5.691  0.00  0.00    +0.000 OA
ATOM     34  H   UNL     1      46.519   3.332   5.146  0.00  0.00    +0.000 HD
ENDBRANCH  31  33
ENDBRANCH  25  28
ENDBRANCH  23  24
ENDBRANCH   4  23
TORSDOF 7
ENDMDL
MODEL 3
REMARK VINA RESULT:    -7.371      2.242      2.677
REMARK INTER + INTRA:         -11.356
REMARK INTER:                 -10.344
REMARK INTRA:                  -1.013
REMARK UNBOUND:                -1.185
REMARK  Name = 
REMARK  7 active torsions:
REMARK  status: ('A' for Active; 'I' for Inactive)
REMARK    1  A    between atoms: C_2  and  C_21
REMARK    2  A    between atoms: N_3  and  C_4
REMARK    3  A    between atoms: C_4  and  C_5
REMARK    4  A    between atoms: C_8  and  C_9
REMARK    5  A    between atoms: C_9  and  N_10
REMARK    6  A    between atoms: C_11  and  C_13
REMARK    7  A    between atoms: C_16  and  O_17
REMARK                            x       y       z     vdW  Elec       q    Type
REMARK                         _______ _______ _______ _____ _____    ______ ____
ROOT
ATOM      1  C   UNL     1      47.022   6.803  13.063  0.00  0.00    +0.000 A 
ATOM      2  C   UNL     1      46.325   7.596  12.148  0.00  0.00    +0.000 A 
ATOM      3  C   UNL     1      45.301   7.040  11.381  0.00  0.00    +0.000 A 
ATOM      4  C   UNL     1      44.988   5.694  11.547  0.00  0.00    +0.000 A 
ATOM      5  N   UNL     1      45.617   4.914  12.465  0.00  0.00    +0.000 NA
ATOM      6  C   UNL     1      46.610   5.481  13.192  0.00  0.00    +0.000 A 
ENDROOT
BRANCH   1   7
ATOM      7  C   UNL     1      48.135   7.361  13.903  0.00  0.00    +0.000 C 
BRANCH   7  10
ATOM      8  O   UNL     1      50.149   6.420  15.596  0.00  0.00    +0.000 OA
ATOM      9  C   UNL     1      49.033   6.625  16.068  0.00  0.00    +0.000 C 
ATOM     10  N   UNL     1      47.968   7.008  15.290  0.00  0.00    +0.000 N 
ATOM     11  H   UNL     1      47.136   7.364  15.748  0.00  0.00    +0.000 HD
BRANCH   9  12
ATOM     12  C   UNL     1      48.754   6.436  17.498  0.00  0.00    +0.000 A 
ATOM     13  C   UNL     1      49.019   5.218  18.109  0.00  0.00    +0.000 A 
ATOM     14  S   UNL     1      48.614   5.184  19.767  0.00  0.00    +0.000 S 
ATOM     15  C   UNL     1      48.118   6.811  19.738  0.00  0.00    +0.000 A 
ATOM     16  N   UNL     1      47.679   7.432  20.866  0.00  0.00    +0.000 NA
ATOM     17  C   UNL     1      47.370   8.674  20.704  0.00  0.00    +0.000 A 
ATOM     18  N   UNL     1      47.451   9.353  19.518  0.00  0.00    +0.000 N 
ATOM     19  C   UNL     1      47.851   8.759  18.347  0.00  0.00    +0.000 A 
ATOM     20  O   UNL     1      47.848   9.377  17.287  0.00  0.00    +0.000 OA
ATOM     21  C   UNL     1      48.234   7.366  18.475  0.00  0.00    +0.000 A 
ATOM     22  H   UNL     1      47.182  10.325  19.455  0.00  0.00    +0.000 HD
ENDBRANCH   9  12
ENDBRANCH   7  10
ENDBRANCH   1   7
BRANCH   4  23
ATOM     23  C   UNL     1      43.917   5.050  10.695  0.00  0.00    +0.000 C 
BRANCH  23  24
ATOM     24  N   UNL     1      44.442   4.494   9.465  0.00  0.00    +0.000 N 
ATOM     25  C   UNL     1      44.946   3.214   9.377  0.00  0.00    +0.000 C 
ATOM     26  O   UNL     1      44.963   2.432  10.320  0.00  0.00    +0.000 OA
ATOM     27  H   UNL     1      44.600   5.150   8.712  0.00  0.00    +0.000 HD
BRANCH  25  28
ATOM     28  C   UNL     1      45.418   2.859   7.969  0.00  0.00    +0.000 C 
ATOM     29  C   UNL     1      46.055   1.465   7.828  0.00  0.00    +0.000 C 
ATOM     30  C   UNL     1      47.501   1.704   7.396  0.00  0.00    +0.000 C 
ATOM     31  C   UNL     1      47.453   3.028   6.652  0.00  0.00    +0.000 C 
ATOM     32  C   UNL     1      46.476   3.856   7.469  0.00  0.00    +0.000 C 
BRANCH  31  33
ATOM     33  O   UNL     1      46.972   2.856   5.324  0.00  0.00    +0.000 OA
ATOM     34  H   UNL     1      47.277   2.002   4.977  0.00  0.00    +0.000 HD
ENDBRANCH  31  33
ENDBRANCH  25  28
ENDBRANCH  23  24
ENDBRANCH   4  23
TORSDOF 7
ENDMDL
MODEL 4
REMARK VINA RESULT:    -7.012      2.243      3.072
REMARK INTER + INTRA:         -10.861
REMARK INTER:                  -9.729
REMARK INTRA:                  -1.132
REMARK UNBOUND:                -1.185
REMARK  Name = 
REMARK  7 active torsions:
REMARK  status: ('A' for Active; 'I' for Inactive)
REMARK    1  A    between atoms: C_2  and  C_21
REMARK    2  A    between atoms: N_3  and  C_4
REMARK    3  A    between atoms: C_4  and  C_5
REMARK    4  A    between atoms: C_8  and  C_9
REMARK    5  A    between atoms: C_9  and  N_10
REMARK    6  A    between atoms: C_11  and  C_13
REMARK    7  A    between atoms: C_16  and  O_17
REMARK                            x       y       z     vdW  Elec       q    Type
REMARK                         _______ _______ _______ _____ _____    ______ ____
ROOT
ATOM      1  C   UNL     1      47.886   7.654  13.563  0.00  0.00    +0.000 A 
ATOM      2  C   UNL     1      47.871   6.450  12.855  0.00  0.00    +0.000 A 
ATOM      3  C   UNL     1      46.733   6.076  12.139  0.00  0.00    +0.000 A 
ATOM      4  C   UNL     1      45.626   6.920  12.142  0.00  0.00    +0.000 A 
ATOM      5  N   UNL     1      45.633   8.119  12.782  0.00  0.00    +0.000 NA
ATOM      6  C   UNL     1      46.751   8.452  13.473  0.00  0.00    +0.000 A 
ENDROOT
BRANCH   1   7
ATOM      7  C   UNL     1      49.088   8.090  14.351  0.00  0.00    +0.000 C 
BRANCH   7  10
ATOM      8  O   UNL     1      48.540   7.488  17.024  0.00  0.00    +0.000 OA
ATOM      9  C   UNL     1      49.265   6.727  16.387  0.00  0.00    +0.000 C 
ATOM     10  N   UNL     1      49.650   6.992  15.096  0.00  0.00    +0.000 N 
ATOM     11  H   UNL     1      50.067   6.246  14.550  0.00  0.00    +0.000 HD
BRANCH   9  12
ATOM     12  C   UNL     1      49.801   5.495  16.981  0.00  0.00    +0.000 A 
ATOM     13  C   UNL     1      48.945   4.470  17.359  0.00  0.00    +0.000 A 
ATOM     14  S   UNL     1      49.748   3.128  18.045  0.00  0.00    +0.000 S 
ATOM     15  C   UNL     1      51.271   3.850  17.814  0.00  0.00    +0.000 A 
ATOM     16  N   UNL     1      52.416   3.202  18.163  0.00  0.00    +0.000 NA
ATOM     17  C   UNL     1      53.498   3.853  17.898  0.00  0.00    +0.000 A 
ATOM     18  N   UNL     1      53.544   5.096  17.326  0.00  0.00    +0.000 N 
ATOM     19  C   UNL     1      52.416   5.804  16.993  0.00  0.00    +0.000 A 
ATOM     20  O   UNL     1      52.490   6.943  16.544  0.00  0.00    +0.000 OA
ATOM     21  C   UNL     1      51.168   5.108  17.247  0.00  0.00    +0.000 A 
ATOM     22  H   UNL     1      54.426   5.558  17.156  0.00  0.00    +0.000 HD
ENDBRANCH   9  12
ENDBRANCH   7  10
ENDBRANCH   1   7
BRANCH   4  23
ATOM     23  C   UNL     1      44.361   6.520  11.418  0.00  0.00    +0.000 C 
BRANCH  23  24
ATOM     24  N   UNL     1      44.622   5.719  10.239  0.00  0.00    +0.000 N 
ATOM     25  C   UNL     1      44.081   4.466  10.050  0.00  0.00    +0.000 C 
ATOM     26  O   UNL     1      43.312   3.939  10.845  0.00  0.00    +0.000 OA
ATOM     27  H   UNL     1      45.372   6.039   9.642  0.00  0.00    +0.000 HD
BRANCH  25  28
ATOM     28  C   UNL     1      44.491   3.838   8.720  0.00  0.00    +0.000 C 
ATOM     29  C   UNL     1      44.572   2.301   8.724  0.00  0.00    +0.000 C 
ATOM     30  C   UNL     1      46.031   1.955   8.431  0.00  0.00    +0.000 C 
ATOM     31  C   UNL     1      46.536   3.133   7.613  0.00  0.00    +0.000 C 
ATOM     32  C   UNL     1      45.879   4.330   8.278  0.00  0.00    +0.000 C 
BRANCH  31  33
ATOM     33  O   UNL     1      46.127   3.030   6.255  0.00  0.00    +0.000 OA
ATOM     34  H   UNL     1      45.157   2.990   6.210  0.00  0.00    +0.000 HD
ENDBRANCH  31  33
ENDBRANCH  25  28
ENDBRANCH  23  24
ENDBRANCH   4  23
TORSDOF 7
ENDMDL
MODEL 5
REMARK VINA RESULT:    -6.665      3.733      8.659
REMARK INTER + INTRA:         -10.383
REMARK INTER:                  -9.350
REMARK INTRA:                  -1.032
REMARK UNBOUND:                -1.185
REMARK  Name = 
REMARK  7 active torsions:
REMARK  status: ('A' for Active; 'I' for Inactive)
REMARK    1  A    between atoms: C_2  and  C_21
REMARK    2  A    between atoms: N_3  and  C_4
REMARK    3  A    between atoms: C_4  and  C_5
REMARK    4  A    between atoms: C_8  and  C_9
REMARK    5  A    between atoms: C_9  and  N_10
REMARK    6  A    between atoms: C_11  and  C_13
REMARK    7  A    between atoms: C_16  and  O_17
REMARK                            x       y       z     vdW  Elec       q    Type
REMARK                         _______ _______ _______ _____ _____    ______ ____
ROOT
ATOM      1  C   UNL     1      48.846   7.374  14.088  0.00  0.00    +0.000 A 
ATOM      2  C   UNL     1      48.266   6.299  14.765  0.00  0.00    +0.000 A 
ATOM      3  C   UNL     1      48.618   6.038  16.090  0.00  0.00    +0.000 A 
ATOM      4  C   UNL     1      49.545   6.865  16.717  0.00  0.00    +0.000 A 
ATOM      5  N   UNL     1      50.086   7.946  16.097  0.00  0.00    +0.000 NA
ATOM      6  C   UNL     1      49.729   8.171  14.808  0.00  0.00    +0.000 A 
ENDROOT
BRANCH   1   7
ATOM      7  C   UNL     1      48.499   7.686  12.660  0.00  0.00    +0.000 C 
BRANCH   7  10
ATOM      8  O   UNL     1      45.832   7.953  11.869  0.00  0.00    +0.000 OA
ATOM      9  C   UNL     1      46.405   6.888  11.652  0.00  0.00    +0.000 C 
ATOM     10  N   UNL     1      47.686   6.645  12.082  0.00  0.00    +0.000 N 
ATOM     11  H   UNL     1      48.183   5.846  11.702  0.00  0.00    +0.000 HD
BRANCH   9  12
ATOM     12  C   UNL     1      45.739   5.784  10.948  0.00  0.00    +0.000 A 
ATOM     13  C   UNL     1      45.908   5.622   9.580  0.00  0.00    +0.000 A 
ATOM     14  S   UNL     1      45.044   4.297   8.938  0.00  0.00    +0.000 S 
ATOM     15  C   UNL     1      44.455   3.863  10.474  0.00  0.00    +0.000 A 
ATOM     16  N   UNL     1      43.661   2.771  10.639  0.00  0.00    +0.000 NA
ATOM     17  C   UNL     1      43.319   2.541  11.862  0.00  0.00    +0.000 A 
ATOM     18  N   UNL     1      43.688   3.307  12.935  0.00  0.00    +0.000 N 
ATOM     19  C   UNL     1      44.454   4.439  12.812  0.00  0.00    +0.000 A 
ATOM     20  O   UNL     1      44.711   5.142  13.785  0.00  0.00    +0.000 OA
ATOM     21  C   UNL     1      44.889   4.732  11.459  0.00  0.00    +0.000 A 
ATOM     22  H   UNL     1      43.375   3.080  13.869  0.00  0.00    +0.000 HD
ENDBRANCH   9  12
ENDBRANCH   7  10
ENDBRANCH   1   7
BRANCH   4  23
ATOM     23  C   UNL     1      49.985   6.578  18.136  0.00  0.00    +0.000 C 
BRANCH  23  24
ATOM     24  N   UNL     1      50.324   5.186  18.345  0.00  0.00    +0.000 N 
ATOM     25  C   UNL     1      51.611   4.705  18.243  0.00  0.00    +0.000 C 
ATOM     26  O   UNL     1      52.577   5.418  17.999  0.00  0.00    +0.000 OA
ATOM     27  H   UNL     1      49.547   4.540  18.383  0.00  0.00    +0.000 HD
BRANCH  25  28
ATOM     28  C   UNL     1      51.709   3.208  18.529  0.00  0.00    +0.000 C 
ATOM     29  C   UNL     1      53.141   2.669  18.690  0.00  0.00    +0.000 C 
ATOM     30  C   UNL     1      53.342   1.660  17.560  0.00  0.00    +0.000 C 
ATOM     31  C   UNL     1      51.942   1.143  17.271  0.00  0.00    +0.000 C 
ATOM     32  C   UNL     1      51.074   2.383  17.397  0.00  0.00    +0.000 C 
BRANCH  31  33
ATOM     33  O   UNL     1      51.548   0.160  18.222  0.00  0.00    +0.000 OA
ATOM     34  H   UNL     1      50.605  -0.041  18.108  0.00  0.00    +0.000 HD
ENDBRANCH  31  33
ENDBRANCH  25  28
ENDBRANCH  23  24
ENDBRANCH   4  23
TORSDOF 7
ENDMDL
MODEL 6
REMARK VINA RESULT:    -6.658      4.730      9.578
REMARK INTER + INTRA:         -10.373
REMARK INTER:                  -9.427
REMARK INTRA:                  -0.946
REMARK UNBOUND:                -1.185
REMARK  Name = 
REMARK  7 active torsions:
REMARK  status: ('A' for Active; 'I' for Inactive)
REMARK    1  A    between atoms: C_2  and  C_21
REMARK    2  A    between atoms: N_3  and  C_4
REMARK    3  A    between atoms: C_4  and  C_5
REMARK    4  A    between atoms: C_8  and  C_9
REMARK    5  A    between atoms: C_9  and  N_10
REMARK    6  A    between atoms: C_11  and  C_13
REMARK    7  A    between atoms: C_16  and  O_17
REMARK                            x       y       z     vdW  Elec       q    Type
REMARK                         _______ _______ _______ _____ _____    ______ ____
ROOT
ATOM      1  C   UNL     1      48.519   3.499  17.295  0.00  0.00    +0.000 A 
ATOM      2  C   UNL     1      49.391   2.438  17.040  0.00  0.00    +0.000 A 
ATOM      3  C   UNL     1      50.716   2.504  17.472  0.00  0.00    +0.000 A 
ATOM      4  C   UNL     1      51.146   3.636  18.158  0.00  0.00    +0.000 A 
ATOM      5  N   UNL     1      50.306   4.660  18.462  0.00  0.00    +0.000 NA
ATOM      6  C   UNL     1      49.026   4.569  18.025  0.00  0.00    +0.000 A 
ENDROOT
BRANCH   1   7
ATOM      7  C   UNL     1      47.087   3.470  16.842  0.00  0.00    +0.000 C 
BRANCH   7  10
ATOM      8  O   UNL     1      47.135   3.083  14.074  0.00  0.00    +0.000 OA
ATOM      9  C   UNL     1      46.805   4.184  14.508  0.00  0.00    +0.000 C 
ATOM     10  N   UNL     1      46.834   4.483  15.848  0.00  0.00    +0.000 N 
ATOM     11  H   UNL     1      46.359   5.319  16.170  0.00  0.00    +0.000 HD
BRANCH   9  12
ATOM     12  C   UNL     1      46.390   5.272  13.612  0.00  0.00    +0.000 A 
ATOM     13  C   UNL     1      47.277   6.288  13.284  0.00  0.00    +0.000 A 
ATOM     14  S   UNL     1      46.611   7.469  12.248  0.00  0.00    +0.000 S 
ATOM     15  C   UNL     1      45.128   6.638  12.161  0.00  0.00    +0.000 A 
ATOM     16  N   UNL     1      44.106   7.104  11.394  0.00  0.00    +0.000 NA
ATOM     17  C   UNL     1      43.056   6.354  11.394  0.00  0.00    +0.000 A 
ATOM     18  N   UNL     1      42.927   5.186  12.097  0.00  0.00    +0.000 N 
ATOM     19  C   UNL     1      43.917   4.698  12.914  0.00  0.00    +0.000 A 
ATOM     20  O   UNL     1      43.745   3.683  13.583  0.00  0.00    +0.000 OA
ATOM     21  C   UNL     1      45.132   5.490  12.933  0.00  0.00    +0.000 A 
ATOM     22  H   UNL     1      42.071   4.650  12.064  0.00  0.00    +0.000 HD
ENDBRANCH   9  12
ENDBRANCH   7  10
ENDBRANCH   1   7
BRANCH   4  23
ATOM     23  C   UNL     1      52.588   3.760  18.595  0.00  0.00    +0.000 C 
BRANCH  23  24
ATOM     24  N   UNL     1      53.402   2.644  18.158  0.00  0.00    +0.000 N 
ATOM     25  C   UNL     1      54.272   1.978  18.994  0.00  0.00    +0.000 C 
ATOM     26  O   UNL     1      54.406   2.252  20.180  0.00  0.00    +0.000 OA
ATOM     27  H   UNL     1      53.447   2.491  17.159  0.00  0.00    +0.000 HD
BRANCH  25  28
ATOM     28  C   UNL     1      54.997   0.827  18.299  0.00  0.00    +0.000 C 
ATOM     29  C   UNL     1      54.912   0.838  16.763  0.00  0.00    +0.000 C 
ATOM     30  C   UNL     1      54.172  -0.441  16.372  0.00  0.00    +0.000 C 
ATOM     31  C   UNL     1      54.482  -1.410  17.502  0.00  0.00    +0.000 C 
ATOM     32  C   UNL     1      54.433  -0.533  18.742  0.00  0.00    +0.000 C 
BRANCH  31  33
ATOM     33  O   UNL     1      55.775  -1.984  17.349  0.00  0.00    +0.000 OA
ATOM     34  H   UNL     1      56.429  -1.278  17.218  0.00  0.00    +0.000 HD
ENDBRANCH  31  33
ENDBRANCH  25  28
ENDBRANCH  23  24
ENDBRANCH   4  23
TORSDOF 7
ENDMDL
MODEL 7
REMARK VINA RESULT:    -6.624      3.257      9.163
REMARK INTER + INTRA:         -10.326
REMARK INTER:                  -9.225
REMARK INTRA:                  -1.101
REMARK UNBOUND:                -1.185
REMARK  Name = 
REMARK  7 active torsions:
REMARK  status: ('A' for Active; 'I' for Inactive)
REMARK    1  A    between atoms: C_2  and  C_21
REMARK    2  A    between atoms: N_3  and  C_4
REMARK    3  A    between atoms: C_4  and  C_5
REMARK    4  A    between atoms: C_8  and  C_9
REMARK    5  A    between atoms: C_9  and  N_10
REMARK    6  A    between atoms: C_11  and  C_13
REMARK    7  A    between atoms: C_16  and  O_17
REMARK                            x       y       z     vdW  Elec       q    Type
REMARK                         _______ _______ _______ _____ _____    ______ ____
ROOT
ATOM      1  C   UNL     1      48.197   8.167  13.184  0.00  0.00    +0.000 A 
ATOM      2  C   UNL     1      48.360   9.495  13.585  0.00  0.00    +0.000 A 
ATOM      3  C   UNL     1      48.728   9.787  14.899  0.00  0.00    +0.000 A 
ATOM      4  C   UNL     1      48.930   8.738  15.792  0.00  0.00    +0.000 A 
ATOM      5  N   UNL     1      48.826   7.437  15.414  0.00  0.00    +0.000 NA
ATOM      6  C   UNL     1      48.462   7.185  14.132  0.00  0.00    +0.000 A 
ENDROOT
BRANCH   1   7
ATOM      7  C   UNL     1      47.795   7.811  11.781  0.00  0.00    +0.000 C 
BRANCH   7  10
ATOM      8  O   UNL     1      45.012   7.604  11.918  0.00  0.00    +0.000 OA
ATOM      9  C   UNL     1      45.669   6.580  11.747  0.00  0.00    +0.000 C 
ATOM     10  N   UNL     1      47.042   6.582  11.750  0.00  0.00    +0.000 N 
ATOM     11  H   UNL     1      47.530   5.765  11.399  0.00  0.00    +0.000 HD
BRANCH   9  12
ATOM     12  C   UNL     1      45.025   5.273  11.563  0.00  0.00    +0.000 A 
ATOM     13  C   UNL     1      44.291   4.701  12.593  0.00  0.00    +0.000 A 
ATOM     14  S   UNL     1      43.635   3.176  12.199  0.00  0.00    +0.000 S 
ATOM     15  C   UNL     1      44.266   3.248  10.621  0.00  0.00    +0.000 A 
ATOM     16  N   UNL     1      44.037   2.249   9.726  0.00  0.00    +0.000 NA
ATOM     17  C   UNL     1      44.545   2.454   8.558  0.00  0.00    +0.000 A 
ATOM     18  N   UNL     1      45.269   3.560   8.201  0.00  0.00    +0.000 N 
ATOM     19  C   UNL     1      45.558   4.574   9.081  0.00  0.00    +0.000 A 
ATOM     20  O   UNL     1      46.268   5.519   8.749  0.00  0.00    +0.000 OA
ATOM     21  C   UNL     1      44.990   4.407  10.405  0.00  0.00    +0.000 A 
ATOM     22  H   UNL     1      45.651   3.655   7.271  0.00  0.00    +0.000 HD
ENDBRANCH   9  12
ENDBRANCH   7  10
ENDBRANCH   1   7
BRANCH   4  23
ATOM     23  C   UNL     1      49.281   9.023  17.235  0.00  0.00    +0.000 C 
BRANCH  23  24
ATOM     24  N   UNL     1      49.114   7.864  18.088  0.00  0.00    +0.000 N 
ATOM     25  C   UNL     1      48.017   7.686  18.903  0.00  0.00    +0.000 C 
ATOM     26  O   UNL     1      47.080   8.474  18.950  0.00  0.00    +0.000 OA
ATOM     27  H   UNL     1      49.929   7.278  18.206  0.00  0.00    +0.000 HD
BRANCH  25  28
ATOM     28  C   UNL     1      48.068   6.376  19.687  0.00  0.00    +0.000 C 
ATOM     29  C   UNL     1      49.311   6.199  20.577  0.00  0.00    +0.000 C 
ATOM     30  C   UNL     1      50.051   4.979  20.029  0.00  0.00    +0.000 C 
ATOM     31  C   UNL     1      48.957   4.134  19.397  0.00  0.00    +0.000 C 
ATOM     32  C   UNL     1      48.050   5.163  18.744  0.00  0.00    +0.000 C 
BRANCH  31  33
ATOM     33  O   UNL     1      48.244   3.394  20.380  0.00  0.00    +0.000 OA
ATOM     34  H   UNL     1      47.658   3.991  20.874  0.00  0.00    +0.000 HD
ENDBRANCH  31  33
ENDBRANCH  25  28
ENDBRANCH  23  24
ENDBRANCH   4  23
TORSDOF 7
ENDMDL
MODEL 8
REMARK VINA RESULT:    -6.623      2.990      4.444
REMARK INTER + INTRA:         -10.324
REMARK INTER:                  -9.221
REMARK INTRA:                  -1.103
REMARK UNBOUND:                -1.185
REMARK  Name = 
REMARK  7 active torsions:
REMARK  status: ('A' for Active; 'I' for Inactive)
REMARK    1  A    between atoms: C_2  and  C_21
REMARK    2  A    between atoms: N_3  and  C_4
REMARK    3  A    between atoms: C_4  and  C_5
REMARK    4  A    between atoms: C_8  and  C_9
REMARK    5  A    between atoms: C_9  and  N_10
REMARK    6  A    between atoms: C_11  and  C_13
REMARK    7  A    between atoms: C_16  and  O_17
REMARK                            x       y       z     vdW  Elec       q    Type
REMARK                         _______ _______ _______ _____ _____    ______ ____
ROOT
ATOM      1  C   UNL     1      48.769   7.408  15.148  0.00  0.00    +0.000 A 
ATOM      2  C   UNL     1      48.286   6.158  14.753  0.00  0.00    +0.000 A 
ATOM      3  C   UNL     1      47.709   6.000  13.492  0.00  0.00    +0.000 A 
ATOM      4  C   UNL     1      47.629   7.101  12.644  0.00  0.00    +0.000 A 
ATOM      5  N   UNL     1      48.136   8.315  12.985  0.00  0.00    +0.000 NA
ATOM      6  C   UNL     1      48.686   8.438  14.218  0.00  0.00    +0.000 A 
ENDROOT
BRANCH   1   7
ATOM      7  C   UNL     1      49.391   7.622  16.499  0.00  0.00    +0.000 C 
BRANCH   7  10
ATOM      8  O   UNL     1      50.311   6.887  19.033  0.00  0.00    +0.000 OA
ATOM      9  C   UNL     1      50.737   6.278  18.055  0.00  0.00    +0.000 C 
ATOM     10  N   UNL     1      50.400   6.629  16.771  0.00  0.00    +0.000 N 
ATOM     11  H   UNL     1      50.603   5.978  16.020  0.00  0.00    +0.000 HD
BRANCH   9  12
ATOM     12  C   UNL     1      51.669   5.152  18.193  0.00  0.00    +0.000 A 
ATOM     13  C   UNL     1      52.922   5.343  18.760  0.00  0.00    +0.000 A 
ATOM     14  S   UNL     1      53.869   3.925  18.820  0.00  0.00    +0.000 S 
ATOM     15  C   UNL     1      52.619   2.993  18.138  0.00  0.00    +0.000 A 
ATOM     16  N   UNL     1      52.766   1.655  17.942  0.00  0.00    +0.000 NA
ATOM     17  C   UNL     1      51.726   1.071  17.450  0.00  0.00    +0.000 A 
ATOM     18  N   UNL     1      50.554   1.700  17.127  0.00  0.00    +0.000 N 
ATOM     19  C   UNL     1      50.373   3.054  17.270  0.00  0.00    +0.000 A 
ATOM     20  O   UNL     1      49.334   3.598  16.907  0.00  0.00    +0.000 OA
ATOM     21  C   UNL     1      51.504   3.759  17.843  0.00  0.00    +0.000 A 
ATOM     22  H   UNL     1      49.779   1.186  16.732  0.00  0.00    +0.000 HD
ENDBRANCH   9  12
ENDBRANCH   7  10
ENDBRANCH   1   7
BRANCH   4  23
ATOM     23  C   UNL     1      46.965   6.974  11.292  0.00  0.00    +0.000 C 
BRANCH  23  24
ATOM     24  N   UNL     1      45.894   5.998  11.285  0.00  0.00    +0.000 N 
ATOM     25  C   UNL     1      45.484   5.344  10.144  0.00  0.00    +0.000 C 
ATOM     26  O   UNL     1      46.009   5.510   9.049  0.00  0.00    +0.000 OA
ATOM     27  H   UNL     1      45.329   5.953  12.122  0.00  0.00    +0.000 HD
BRANCH  25  28
ATOM     28  C   UNL     1      44.354   4.350  10.404  0.00  0.00    +0.000 C 
ATOM     29  C   UNL     1      43.141   4.927  11.155  0.00  0.00    +0.000 C 
ATOM     30  C   UNL     1      43.055   4.156  12.472  0.00  0.00    +0.000 C 
ATOM     31  C   UNL     1      43.677   2.806  12.153  0.00  0.00    +0.000 C 
ATOM     32  C   UNL     1      44.843   3.161  11.246  0.00  0.00    +0.000 C 
BRANCH  31  33
ATOM     33  O   UNL     1      42.757   1.961  11.474  0.00  0.00    +0.000 OA
ATOM     34  H   UNL     1      41.916   1.940  11.961  0.00  0.00    +0.000 HD
ENDBRANCH  31  33
ENDBRANCH  25  28
ENDBRANCH  23  24
ENDBRANCH   4  23
TORSDOF 7
ENDMDL
MODEL 9
REMARK VINA RESULT:    -6.489      4.047      9.066
REMARK INTER + INTRA:         -10.139
REMARK INTER:                  -9.261
REMARK INTRA:                  -0.878
REMARK UNBOUND:                -1.185
REMARK  Name = 
REMARK  7 active torsions:
REMARK  status: ('A' for Active; 'I' for Inactive)
REMARK    1  A    between atoms: C_2  and  C_21
REMARK    2  A    between atoms: N_3  and  C_4
REMARK    3  A    between atoms: C_4  and  C_5
REMARK    4  A    between atoms: C_8  and  C_9
REMARK    5  A    between atoms: C_9  and  N_10
REMARK    6  A    between atoms: C_11  and  C_13
REMARK    7  A    between atoms: C_16  and  O_17
REMARK                            x       y       z     vdW  Elec       q    Type
REMARK                         _______ _______ _______ _____ _____    ______ ____
ROOT
ATOM      1  C   UNL     1      48.650   3.449  17.145  0.00  0.00    +0.000 A 
ATOM      2  C   UNL     1      49.461   2.324  16.973  0.00  0.00    +0.000 A 
ATOM      3  C   UNL     1      50.815   2.384  17.306  0.00  0.00    +0.000 A 
ATOM      4  C   UNL     1      51.334   3.572  17.810  0.00  0.00    +0.000 A 
ATOM      5  N   UNL     1      50.557   4.664  18.033  0.00  0.00    +0.000 NA
ATOM      6  C   UNL     1      49.246   4.577  17.696  0.00  0.00    +0.000 A 
ENDROOT
BRANCH   1   7
ATOM      7  C   UNL     1      47.190   3.428  16.794  0.00  0.00    +0.000 C 
BRANCH   7  10
ATOM      8  O   UNL     1      47.252   3.109  14.018  0.00  0.00    +0.000 OA
ATOM      9  C   UNL     1      46.857   4.178  14.478  0.00  0.00    +0.000 C 
ATOM     10  N   UNL     1      46.872   4.446  15.824  0.00  0.00    +0.000 N 
ATOM     11  H   UNL     1      46.349   5.244  16.167  0.00  0.00    +0.000 HD
BRANCH   9  12
ATOM     12  C   UNL     1      46.374   5.259  13.609  0.00  0.00    +0.000 A 
ATOM     13  C   UNL     1      47.179   6.358  13.343  0.00  0.00    +0.000 A 
ATOM     14  S   UNL     1      46.440   7.517  12.330  0.00  0.00    +0.000 S 
ATOM     15  C   UNL     1      45.038   6.566  12.169  0.00  0.00    +0.000 A 
ATOM     16  N   UNL     1      44.000   6.971  11.389  0.00  0.00    +0.000 NA
ATOM     17  C   UNL     1      43.019   6.135  11.331  0.00  0.00    +0.000 A 
ATOM     18  N   UNL     1      42.973   4.935  11.988  0.00  0.00    +0.000 N 
ATOM     19  C   UNL     1      43.979   4.502  12.817  0.00  0.00    +0.000 A 
ATOM     20  O   UNL     1      43.878   3.453  13.445  0.00  0.00    +0.000 OA
ATOM     21  C   UNL     1      45.121   5.394  12.900  0.00  0.00    +0.000 A 
ATOM     22  H   UNL     1      42.168   4.330  11.912  0.00  0.00    +0.000 HD
ENDBRANCH   9  12
ENDBRANCH   7  10
ENDBRANCH   1   7
BRANCH   4  23
ATOM     23  C   UNL     1      52.808   3.684  18.133  0.00  0.00    +0.000 C 
BRANCH  23  24
ATOM     24  N   UNL     1      53.439   4.811  17.478  0.00  0.00    +0.000 N 
ATOM     25  C   UNL     1      54.701   4.748  16.930  0.00  0.00    +0.000 C 
ATOM     26  O   UNL     1      55.381   3.729  16.923  0.00  0.00    +0.000 OA
ATOM     27  H   UNL     1      52.989   5.708  17.605  0.00  0.00    +0.000 HD
BRANCH  25  28
ATOM     28  C   UNL     1      55.131   6.062  16.279  0.00  0.00    +0.000 C 
ATOM     29  C   UNL     1      54.226   7.267  16.589  0.00  0.00    +0.000 C 
ATOM     30  C   UNL     1      53.644   7.712  15.248  0.00  0.00    +0.000 C 
ATOM     31  C   UNL     1      54.690   7.288  14.230  0.00  0.00    +0.000 C 
ATOM     32  C   UNL     1      55.160   5.940  14.747  0.00  0.00    +0.000 C 
BRANCH  31  33
ATOM     33  O   UNL     1      55.772   8.211  14.187  0.00  0.00    +0.000 OA
ATOM     34  H   UNL     1      56.162   8.293  15.073  0.00  0.00    +0.000 HD
ENDBRANCH  31  33
ENDBRANCH  25  28
ENDBRANCH  23  24
ENDBRANCH   4  23
TORSDOF 7
ENDMDL
