MODEL 1
REMARK VINA RESULT:    -7.457      0.000      0.000
REMARK INTER + INTRA:         -11.277
REMARK INTER:                 -10.291
REMARK INTRA:                  -0.986
REMARK UNBOUND:                -0.986
REMARK  Name = 
REMARK  7 active torsions:
REMARK  status: ('A' for Active; 'I' for Inactive)
REMARK    1  A    between atoms: C_2  and  C_20
REMARK    2  A    between atoms: N_3  and  C_4
REMARK    3  A    between atoms: C_4  and  C_5
REMARK    4  A    between atoms: C_8  and  C_9
REMARK    5  A    between atoms: C_9  and  O_10
REMARK    6  A    between atoms: C_9  and  C_11
REMARK    7  A    between atoms: C_11  and  C_12
REMARK                            x       y       z     vdW  Elec       q    Type
REMARK                         _______ _______ _______ _____ _____    ______ ____
ROOT
ATOM      1  C   UNL     1      47.405   6.636  13.464  0.00  0.00    +0.000 A 
ATOM      2  C   UNL     1      46.845   6.913  12.217  0.00  0.00    +0.000 A 
ATOM      3  C   UNL     1      45.961   6.005  11.640  0.00  0.00    +0.000 A 
ATOM      4  C   UNL     1      45.654   4.830  12.326  0.00  0.00    +0.000 A 
ATOM      5  N   UNL     1      46.204   4.526  13.530  0.00  0.00    +0.000 NA
ATOM      6  C   UNL     1      47.075   5.421  14.054  0.00  0.00    +0.000 A 
ENDROOT
BRANCH   1   7
ATOM      7  C   UNL     1      48.360   7.584  14.125  0.00  0.00    +0.000 C 
BRANCH   7  10
ATOM      8  O   UNL     1      50.383   6.500  15.708  0.00  0.00    +0.000 OA
ATOM      9  C   UNL     1      49.392   6.971  16.262  0.00  0.00    +0.000 C 
ATOM     10  N   UNL     1      48.317   7.444  15.556  0.00  0.00    +0.000 N 
ATOM     11  H   UNL     1      47.620   7.998  16.042  0.00  0.00    +0.000 HD
BRANCH   9  12
ATOM     12  C   UNL     1      49.282   7.029  17.723  0.00  0.00    +0.000 A 
ATOM     13  C   UNL     1      49.370   8.250  18.381  0.00  0.00    +0.000 A 
ATOM     14  S   UNL     1      49.238   8.122  20.076  0.00  0.00    +0.000 S 
ATOM     15  C   UNL     1      49.011   6.439  19.988  0.00  0.00    +0.000 A 
ATOM     16  N   UNL     1      48.804   5.700  21.111  0.00  0.00    +0.000 NA
ATOM     17  C   UNL     1      48.612   4.441  20.895  0.00  0.00    +0.000 A 
ATOM     18  N   UNL     1      48.618   3.852  19.656  0.00  0.00    +0.000 N 
ATOM     19  C   UNL     1      48.851   4.550  18.499  0.00  0.00    +0.000 A 
ATOM     20  O   UNL     1      48.899   3.984  17.415  0.00  0.00    +0.000 OA
ATOM     21  C   UNL     1      49.054   5.976  18.683  0.00  0.00    +0.000 A 
ATOM     22  H   UNL     1      48.475   2.857  19.555  0.00  0.00    +0.000 HD
ENDBRANCH   9  12
ENDBRANCH   7  10
ENDBRANCH   1   7
BRANCH   4  23
ATOM     23  C   UNL     1      44.640   3.854  11.753  0.00  0.00    +0.000 C 
BRANCH  23  24
ATOM     24  O   UNL     1      44.101   3.050  12.806  0.00  0.00    +0.000 OA
ATOM     25  H   UNL     1      43.384   2.541  12.381  0.00  0.00    +0.000 HD
ENDBRANCH  23  24
BRANCH  23  26
ATOM     26  C   UNL     1      45.281   2.920  10.723  0.00  0.00    +0.000 C 
BRANCH  26  27
ATOM     27  C   UNL     1      44.430   2.740   9.438  0.00  0.00    +0.000 C 
ATOM     28  C   UNL     1      44.959   1.573   8.588  0.00  0.00    +0.000 C 
ATOM     29  C   UNL     1      46.348   1.888   8.035  0.00  0.00    +0.000 C 
ATOM     30  C   UNL     1      46.412   3.271   7.376  0.00  0.00    +0.000 C 
ATOM     31  N   UNL     1      45.794   4.342   8.165  0.00  0.00    +0.000 NA
ATOM     32  C   UNL     1      44.425   3.995   8.554  0.00  0.00    +0.000 C 
ATOM     33  H   UNL     1      45.779   5.198   7.613  0.00  0.00    +0.000 HD
ENDBRANCH  26  27
ENDBRANCH  23  26
ENDBRANCH   4  23
TORSDOF 7
ENDMDL
MODEL 2
REMARK VINA RESULT:    -7.265      2.376      2.726
REMARK INTER + INTRA:         -11.012
REMARK INTER:                 -10.088
REMARK INTRA:                  -0.923
REMARK UNBOUND:                -0.986
REMARK  Name = 
REMARK  7 active torsions:
REMARK  status: ('A' for Active; 'I' for Inactive)
REMARK    1  A    between atoms: C_2  and  C_20
REMARK    2  A    between atoms: N_3  and  C_4
REMARK    3  A    between atoms: C_4  and  C_5
REMARK    4  A    between atoms: C_8  and  C_9
REMARK    5  A    between atoms: C_9  and  O_10
REMARK    6  A    between atoms: C_9  and  C_11
REMARK    7  A    between atoms: C_11  and  C_12
REMARK                            x       y       z     vdW  Elec       q    Type
REMARK                         _______ _______ _______ _____ _____    ______ ____
ROOT
ATOM      1  C   UNL     1      47.497   5.967  14.541  0.00  0.00    +0.000 A 
ATOM      2  C   UNL     1      47.090   6.527  13.330  0.00  0.00    +0.000 A 
ATOM      3  C   UNL     1      46.276   5.794  12.471  0.00  0.00    +0.000 A 
ATOM      4  C   UNL     1      45.883   4.508  12.842  0.00  0.00    +0.000 A 
ATOM      5  N   UNL     1      46.285   3.932  14.005  0.00  0.00    +0.000 NA
ATOM      6  C   UNL     1      47.093   4.664  14.809  0.00  0.00    +0.000 A 
ENDROOT
BRANCH   1   7
ATOM      7  C   UNL     1      48.373   6.719  15.499  0.00  0.00    +0.000 C 
BRANCH   7  10
ATOM      8  O   UNL     1      49.837   6.988  17.857  0.00  0.00    +0.000 OA
ATOM      9  C   UNL     1      50.139   6.088  17.077  0.00  0.00    +0.000 C 
ATOM     10  N   UNL     1      49.528   5.941  15.859  0.00  0.00    +0.000 N 
ATOM     11  H   UNL     1      49.668   5.078  15.344  0.00  0.00    +0.000 HD
BRANCH   9  12
ATOM     12  C   UNL     1      51.202   5.125  17.387  0.00  0.00    +0.000 A 
ATOM     13  C   UNL     1      52.468   5.573  17.738  0.00  0.00    +0.000 A 
ATOM     14  S   UNL     1      53.577   4.314  18.046  0.00  0.00    +0.000 S 
ATOM     15  C   UNL     1      52.391   3.127  17.769  0.00  0.00    +0.000 A 
ATOM     16  N   UNL     1      52.680   1.804  17.899  0.00  0.00    +0.000 NA
ATOM     17  C   UNL     1      51.678   1.016  17.693  0.00  0.00    +0.000 A 
ATOM     18  N   UNL     1      50.413   1.430  17.359  0.00  0.00    +0.000 N 
ATOM     19  C   UNL     1      50.082   2.749  17.187  0.00  0.00    +0.000 A 
ATOM     20  O   UNL     1      48.957   3.081  16.840  0.00  0.00    +0.000 OA
ATOM     21  C   UNL     1      51.169   3.682  17.426  0.00  0.00    +0.000 A 
ATOM     22  H   UNL     1      49.675   0.761  17.197  0.00  0.00    +0.000 HD
ENDBRANCH   9  12
ENDBRANCH   7  10
ENDBRANCH   1   7
BRANCH   4  23
ATOM     23  C   UNL     1      44.939   3.712  11.957  0.00  0.00    +0.000 C 
BRANCH  23  24
ATOM     24  O   UNL     1      44.527   2.526  12.641  0.00  0.00    +0.000 OA
ATOM     25  H   UNL     1      44.041   2.012  11.967  0.00  0.00    +0.000 HD
ENDBRANCH  23  24
BRANCH  23  26
ATOM     26  C   UNL     1      45.614   3.296  10.648  0.00  0.00    +0.000 C 
BRANCH  26  27
ATOM     27  C   UNL     1      44.610   2.953   9.516  0.00  0.00    +0.000 C 
ATOM     28  C   UNL     1      45.016   1.657   8.795  0.00  0.00    +0.000 C 
ATOM     29  C   UNL     1      46.331   1.843   8.039  0.00  0.00    +0.000 C 
ATOM     30  C   UNL     1      46.331   3.110   7.175  0.00  0.00    +0.000 C 
ATOM     31  N   UNL     1      45.826   4.305   7.861  0.00  0.00    +0.000 NA
ATOM     32  C   UNL     1      44.511   4.062   8.458  0.00  0.00    +0.000 C 
ATOM     33  H   UNL     1      45.755   5.070   7.191  0.00  0.00    +0.000 HD
ENDBRANCH  26  27
ENDBRANCH  23  26
ENDBRANCH   4  23
TORSDOF 7
ENDMDL
MODEL 3
REMARK VINA RESULT:    -7.099      2.125      2.498
REMARK INTER + INTRA:         -10.783
REMARK INTER:                  -9.564
REMARK INTRA:                  -1.219
REMARK UNBOUND:                -0.986
REMARK  Name = 
REMARK  7 active torsions:
REMARK  status: ('A' for Active; 'I' for Inactive)
REMARK    1  A    between atoms: C_2  and  C_20
REMARK    2  A    between atoms: N_3  and  C_4
REMARK    3  A    between atoms: C_4  and  C_5
REMARK    4  A    between atoms: C_8  and  C_9
REMARK    5  A    between atoms: C_9  and  O_10
REMARK    6  A    between atoms: C_9  and  C_11
REMARK    7  A    between atoms: C_11  and  C_12
REMARK                            x       y       z     vdW  Elec       q    Type
REMARK                         _______ _______ _______ _____ _____    ______ ____
ROOT
ATOM      1  C   UNL     1      48.012   7.010  12.667  0.00  0.00    +0.000 A 
ATOM      2  C   UNL     1      47.811   5.959  13.562  0.00  0.00    +0.000 A 
ATOM      3  C   UNL     1      46.723   5.107  13.391  0.00  0.00    +0.000 A 
ATOM      4  C   UNL     1      45.852   5.325  12.324  0.00  0.00    +0.000 A 
ATOM      5  N   UNL     1      46.013   6.355  11.452  0.00  0.00    +0.000 NA
ATOM      6  C   UNL     1      47.069   7.178  11.658  0.00  0.00    +0.000 A 
ENDROOT
BRANCH   1   7
ATOM      7  C   UNL     1      49.170   7.952  12.809  0.00  0.00    +0.000 C 
BRANCH   7  10
ATOM      8  O   UNL     1      49.740   8.784  15.408  0.00  0.00    +0.000 OA
ATOM      9  C   UNL     1      50.344   7.813  14.956  0.00  0.00    +0.000 C 
ATOM     10  N   UNL     1      50.185   7.394  13.661  0.00  0.00    +0.000 N 
ATOM     11  H   UNL     1      50.545   6.483  13.395  0.00  0.00    +0.000 HD
BRANCH   9  12
ATOM     12  C   UNL     1      51.301   7.055  15.768  0.00  0.00    +0.000 A 
ATOM     13  C   UNL     1      52.662   7.312  15.664  0.00  0.00    +0.000 A 
ATOM     14  S   UNL     1      53.622   6.324  16.669  0.00  0.00    +0.000 S 
ATOM     15  C   UNL     1      52.251   5.551  17.314  0.00  0.00    +0.000 A 
ATOM     16  N   UNL     1      52.372   4.594  18.272  0.00  0.00    +0.000 NA
ATOM     17  C   UNL     1      51.249   4.117  18.696  0.00  0.00    +0.000 A 
ATOM     18  N   UNL     1      50.015   4.504  18.241  0.00  0.00    +0.000 N 
ATOM     19  C   UNL     1      49.844   5.442  17.256  0.00  0.00    +0.000 A 
ATOM     20  O   UNL     1      48.730   5.728  16.837  0.00  0.00    +0.000 OA
ATOM     21  C   UNL     1      51.075   6.027  16.756  0.00  0.00    +0.000 A 
ATOM     22  H   UNL     1      49.173   4.081  18.604  0.00  0.00    +0.000 HD
ENDBRANCH   9  12
ENDBRANCH   7  10
ENDBRANCH   1   7
BRANCH   4  23
ATOM     23  C   UNL     1      44.696   4.371  12.072  0.00  0.00    +0.000 C 
BRANCH  23  24
ATOM     24  O   UNL     1      44.262   3.807  13.312  0.00  0.00    +0.000 OA
ATOM     25  H   UNL     1      45.085   3.518  13.750  0.00  0.00    +0.000 HD
ENDBRANCH  23  24
BRANCH  23  26
ATOM     26  C   UNL     1      45.108   3.223  11.146  0.00  0.00    +0.000 C 
BRANCH  26  27
ATOM     27  C   UNL     1      44.192   3.073   9.903  0.00  0.00    +0.000 C 
ATOM     28  C   UNL     1      44.675   1.927   8.999  0.00  0.00    +0.000 C 
ATOM     29  C   UNL     1      46.035   2.255   8.383  0.00  0.00    +0.000 C 
ATOM     30  C   UNL     1      46.066   3.653   7.754  0.00  0.00    +0.000 C 
ATOM     31  N   UNL     1      45.489   4.705   8.599  0.00  0.00    +0.000 NA
ATOM     32  C   UNL     1      44.142   4.349   9.050  0.00  0.00    +0.000 C 
ATOM     33  H   UNL     1      45.447   5.574   8.069  0.00  0.00    +0.000 HD
ENDBRANCH  26  27
ENDBRANCH  23  26
ENDBRANCH   4  23
TORSDOF 7
ENDMDL
MODEL 4
REMARK VINA RESULT:    -7.088      2.680      3.363
REMARK INTER + INTRA:         -10.767
REMARK INTER:                  -9.088
REMARK INTRA:                  -1.679
REMARK UNBOUND:                -0.986
REMARK  Name = 
REMARK  7 active torsions:
REMARK  status: ('A' for Active; 'I' for Inactive)
REMARK    1  A    between atoms: C_2  and  C_20
REMARK    2  A    between atoms: N_3  and  C_4
REMARK    3  A    between atoms: C_4  and  C_5
REMARK    4  A    between atoms: C_8  and  C_9
REMARK    5  A    between atoms: C_9  and  O_10
REMARK    6  A    between atoms: C_9  and  C_11
REMARK    7  A    between atoms: C_11  and  C_12
REMARK                            x       y       z     vdW  Elec       q    Type
REMARK                         _______ _______ _______ _____ _____    ______ ____
ROOT
ATOM      1  C   UNL     1      48.745   7.984  13.474  0.00  0.00    +0.000 A 
ATOM      2  C   UNL     1      47.707   8.887  13.707  0.00  0.00    +0.000 A 
ATOM      3  C   UNL     1      46.529   8.788  12.971  0.00  0.00    +0.000 A 
ATOM      4  C   UNL     1      46.412   7.784  12.011  0.00  0.00    +0.000 A 
ATOM      5  N   UNL     1      47.416   6.907  11.749  0.00  0.00    +0.000 NA
ATOM      6  C   UNL     1      48.556   7.043  12.467  0.00  0.00    +0.000 A 
ENDROOT
BRANCH   1   7
ATOM      7  C   UNL     1      50.031   8.049  14.242  0.00  0.00    +0.000 C 
BRANCH   7  10
ATOM      8  O   UNL     1      49.269   8.574  16.872  0.00  0.00    +0.000 OA
ATOM      9  C   UNL     1      49.569   7.422  16.566  0.00  0.00    +0.000 C 
ATOM     10  N   UNL     1      50.036   7.097  15.319  0.00  0.00    +0.000 N 
ATOM     11  H   UNL     1      50.079   6.118  15.054  0.00  0.00    +0.000 HD
BRANCH   9  12
ATOM     12  C   UNL     1      49.475   6.319  17.529  0.00  0.00    +0.000 A 
ATOM     13  C   UNL     1      50.115   6.411  18.758  0.00  0.00    +0.000 A 
ATOM     14  S   UNL     1      49.909   5.031  19.739  0.00  0.00    +0.000 S 
ATOM     15  C   UNL     1      48.920   4.283  18.575  0.00  0.00    +0.000 A 
ATOM     16  N   UNL     1      48.372   3.059  18.804  0.00  0.00    +0.000 NA
ATOM     17  C   UNL     1      47.615   2.626  17.852  0.00  0.00    +0.000 A 
ATOM     18  N   UNL     1      47.364   3.303  16.685  0.00  0.00    +0.000 N 
ATOM     19  C   UNL     1      47.917   4.523  16.396  0.00  0.00    +0.000 A 
ATOM     20  O   UNL     1      47.712   5.076  15.324  0.00  0.00    +0.000 OA
ATOM     21  C   UNL     1      48.763   5.067  17.444  0.00  0.00    +0.000 A 
ATOM     22  H   UNL     1      46.772   2.902  15.971  0.00  0.00    +0.000 HD
ENDBRANCH   9  12
ENDBRANCH   7  10
ENDBRANCH   1   7
BRANCH   4  23
ATOM     23  C   UNL     1      45.113   7.609  11.242  0.00  0.00    +0.000 C 
BRANCH  23  24
ATOM     24  O   UNL     1      44.079   8.374  11.866  0.00  0.00    +0.000 OA
ATOM     25  H   UNL     1      44.495   9.237  12.055  0.00  0.00    +0.000 HD
ENDBRANCH  23  24
BRANCH  23  26
ATOM     26  C   UNL     1      44.670   6.143  11.216  0.00  0.00    +0.000 C 
BRANCH  26  27
ATOM     27  C   UNL     1      44.138   5.634  12.582  0.00  0.00    +0.000 C 
ATOM     28  C   UNL     1      45.055   4.542  13.156  0.00  0.00    +0.000 C 
ATOM     29  C   UNL     1      45.018   3.286  12.287  0.00  0.00    +0.000 C 
ATOM     30  C   UNL     1      43.586   2.845  11.962  0.00  0.00    +0.000 C 
ATOM     31  N   UNL     1      42.706   3.936  11.528  0.00  0.00    +0.000 NA
ATOM     32  C   UNL     1      42.723   5.047  12.481  0.00  0.00    +0.000 C 
ATOM     33  H   UNL     1      41.754   3.583  11.441  0.00  0.00    +0.000 HD
ENDBRANCH  26  27
ENDBRANCH  23  26
ENDBRANCH   4  23
TORSDOF 7
ENDMDL
MODEL 5
REMARK VINA RESULT:    -7.040      3.233      8.396
REMARK INTER + INTRA:         -10.702
REMARK INTER:                  -9.299
REMARK INTRA:                  -1.403
REMARK UNBOUND:                -0.986
REMARK  Name = 
REMARK  7 active torsions:
REMARK  status: ('A' for Active; 'I' for Inactive)
REMARK    1  A    between atoms: C_2  and  C_20
REMARK    2  A    between atoms: N_3  and  C_4
REMARK    3  A    between atoms: C_4  and  C_5
REMARK    4  A    between atoms: C_8  and  C_9
REMARK    5  A    between atoms: C_9  and  O_10
REMARK    6  A    between atoms: C_9  and  C_11
REMARK    7  A    between atoms: C_11  and  C_12
REMARK                            x       y       z     vdW  Elec       q    Type
REMARK                         _______ _______ _______ _____ _____    ______ ____
ROOT
ATOM      1  C   UNL     1      48.487   7.973  13.590  0.00  0.00    +0.000 A 
ATOM      2  C   UNL     1      48.451   9.079  14.439  0.00  0.00    +0.000 A 
ATOM      3  C   UNL     1      48.734   8.919  15.793  0.00  0.00    +0.000 A 
ATOM      4  C   UNL     1      49.049   7.649  16.274  0.00  0.00    +0.000 A 
ATOM      5  N   UNL     1      49.068   6.552  15.472  0.00  0.00    +0.000 NA
ATOM      6  C   UNL     1      48.768   6.738  14.165  0.00  0.00    +0.000 A 
ENDROOT
BRANCH   1   7
ATOM      7  C   UNL     1      48.191   8.096  12.125  0.00  0.00    +0.000 C 
BRANCH   7  10
ATOM      8  O   UNL     1      45.431   7.865  11.807  0.00  0.00    +0.000 OA
ATOM      9  C   UNL     1      46.145   6.934  11.441  0.00  0.00    +0.000 C 
ATOM     10  N   UNL     1      47.501   6.932  11.640  0.00  0.00    +0.000 N 
ATOM     11  H   UNL     1      48.065   6.246  11.149  0.00  0.00    +0.000 HD
BRANCH   9  12
ATOM     12  C   UNL     1      45.585   5.745  10.790  0.00  0.00    +0.000 A 
ATOM     13  C   UNL     1      45.837   5.502   9.446  0.00  0.00    +0.000 A 
ATOM     14  S   UNL     1      45.092   4.085   8.858  0.00  0.00    +0.000 S 
ATOM     15  C   UNL     1      44.446   3.722  10.388  0.00  0.00    +0.000 A 
ATOM     16  N   UNL     1      43.709   2.597  10.589  0.00  0.00    +0.000 NA
ATOM     17  C   UNL     1      43.311   2.428  11.806  0.00  0.00    +0.000 A 
ATOM     18  N   UNL     1      43.576   3.289  12.841  0.00  0.00    +0.000 N 
ATOM     19  C   UNL     1      44.289   4.449  12.681  0.00  0.00    +0.000 A 
ATOM     20  O   UNL     1      44.465   5.219  13.615  0.00  0.00    +0.000 OA
ATOM     21  C   UNL     1      44.779   4.678  11.334  0.00  0.00    +0.000 A 
ATOM     22  H   UNL     1      43.223   3.107  13.769  0.00  0.00    +0.000 HD
ENDBRANCH   9  12
ENDBRANCH   7  10
ENDBRANCH   1   7
BRANCH   4  23
ATOM     23  C   UNL     1      49.430   7.456  17.732  0.00  0.00    +0.000 C 
BRANCH  23  24
ATOM     24  O   UNL     1      50.649   8.151  18.005  0.00  0.00    +0.000 OA
ATOM     25  H   UNL     1      50.364   8.993  18.411  0.00  0.00    +0.000 HD
ENDBRANCH  23  24
BRANCH  23  26
ATOM     26  C   UNL     1      49.641   5.976  18.065  0.00  0.00    +0.000 C 
BRANCH  26  27
ATOM     27  C   UNL     1      48.586   5.409  19.051  0.00  0.00    +0.000 C 
ATOM     28  C   UNL     1      48.833   3.915  19.321  0.00  0.00    +0.000 C 
ATOM     29  C   UNL     1      48.599   3.087  18.059  0.00  0.00    +0.000 C 
ATOM     30  C   UNL     1      47.267   3.426  17.379  0.00  0.00    +0.000 C 
ATOM     31  N   UNL     1      47.011   4.864  17.243  0.00  0.00    +0.000 NA
ATOM     32  C   UNL     1      47.150   5.554  18.527  0.00  0.00    +0.000 C 
ATOM     33  H   UNL     1      46.066   5.003  16.888  0.00  0.00    +0.000 HD
ENDBRANCH  26  27
ENDBRANCH  23  26
ENDBRANCH   4  23
TORSDOF 7
ENDMDL
MODEL 6
REMARK VINA RESULT:    -6.779      2.893      9.128
REMARK INTER + INTRA:         -10.341
REMARK INTER:                  -8.973
REMARK INTRA:                  -1.369
REMARK UNBOUND:                -0.986
REMARK  Name = 
REMARK  7 active torsions:
REMARK  status: ('A' for Active; 'I' for Inactive)
REMARK    1  A    between atoms: C_2  and  C_20
REMARK    2  A    between atoms: N_3  and  C_4
REMARK    3  A    between atoms: C_4  and  C_5
REMARK    4  A    between atoms: C_8  and  C_9
REMARK    5  A    between atoms: C_9  and  O_10
REMARK    6  A    between atoms: C_9  and  C_11
REMARK    7  A    between atoms: C_11  and  C_12
REMARK                            x       y       z     vdW  Elec       q    Type
REMARK                         _______ _______ _______ _____ _____    ______ ____
ROOT
ATOM      1  C   UNL     1      48.552   7.507  13.034  0.00  0.00    +0.000 A 
ATOM      2  C   UNL     1      49.687   8.314  13.117  0.00  0.00    +0.000 A 
ATOM      3  C   UNL     1      50.541   8.194  14.210  0.00  0.00    +0.000 A 
ATOM      4  C   UNL     1      50.240   7.264  15.205  0.00  0.00    +0.000 A 
ATOM      5  N   UNL     1      49.129   6.483  15.159  0.00  0.00    +0.000 NA
ATOM      6  C   UNL     1      48.309   6.639  14.093  0.00  0.00    +0.000 A 
ENDROOT
BRANCH   1   7
ATOM      7  C   UNL     1      47.604   7.600  11.875  0.00  0.00    +0.000 C 
BRANCH   7  10
ATOM      8  O   UNL     1      44.856   7.265  12.203  0.00  0.00    +0.000 OA
ATOM      9  C   UNL     1      45.521   6.312  11.804  0.00  0.00    +0.000 C 
ATOM     10  N   UNL     1      46.886   6.367  11.698  0.00  0.00    +0.000 N 
ATOM     11  H   UNL     1      47.366   5.637  11.182  0.00  0.00    +0.000 HD
BRANCH   9  12
ATOM     12  C   UNL     1      44.895   5.035  11.441  0.00  0.00    +0.000 A 
ATOM     13  C   UNL     1      44.084   4.372  12.353  0.00  0.00    +0.000 A 
ATOM     14  S   UNL     1      43.459   2.898  11.763  0.00  0.00    +0.000 S 
ATOM     15  C   UNL     1      44.211   3.118  10.254  0.00  0.00    +0.000 A 
ATOM     16  N   UNL     1      44.054   2.210   9.254  0.00  0.00    +0.000 NA
ATOM     17  C   UNL     1      44.651   2.520   8.152  0.00  0.00    +0.000 A 
ATOM     18  N   UNL     1      45.401   3.653   7.961  0.00  0.00    +0.000 N 
ATOM     19  C   UNL     1      45.613   4.581   8.948  0.00  0.00    +0.000 A 
ATOM     20  O   UNL     1      46.328   5.556   8.759  0.00  0.00    +0.000 OA
ATOM     21  C   UNL     1      44.946   4.292  10.205  0.00  0.00    +0.000 A 
ATOM     22  H   UNL     1      45.856   3.831   7.078  0.00  0.00    +0.000 HD
ENDBRANCH   9  12
ENDBRANCH   7  10
ENDBRANCH   1   7
BRANCH   4  23
ATOM     23  C   UNL     1      51.189   7.062  16.374  0.00  0.00    +0.000 C 
BRANCH  23  24
ATOM     24  O   UNL     1      52.515   6.849  15.884  0.00  0.00    +0.000 OA
ATOM     25  H   UNL     1      53.023   7.617  16.213  0.00  0.00    +0.000 HD
ENDBRANCH  23  24
BRANCH  23  26
ATOM     26  C   UNL     1      50.792   5.845  17.214  0.00  0.00    +0.000 C 
BRANCH  26  27
ATOM     27  C   UNL     1      50.311   6.211  18.643  0.00  0.00    +0.000 C 
ATOM     28  C   UNL     1      49.976   4.947  19.451  0.00  0.00    +0.000 C 
ATOM     29  C   UNL     1      48.766   4.226  18.859  0.00  0.00    +0.000 C 
ATOM     30  C   UNL     1      47.592   5.178  18.599  0.00  0.00    +0.000 C 
ATOM     31  N   UNL     1      47.968   6.428  17.930  0.00  0.00    +0.000 NA
ATOM     32  C   UNL     1      49.060   7.102  18.634  0.00  0.00    +0.000 C 
ATOM     33  H   UNL     1      47.158   7.046  17.896  0.00  0.00    +0.000 HD
ENDBRANCH  26  27
ENDBRANCH  23  26
ENDBRANCH   4  23
TORSDOF 7
ENDMDL
MODEL 7
REMARK VINA RESULT:    -6.746      1.813      2.268
REMARK INTER + INTRA:         -10.296
REMARK INTER:                  -9.463
REMARK INTRA:                  -0.833
REMARK UNBOUND:                -0.986
REMARK  Name = 
REMARK  7 active torsions:
REMARK  status: ('A' for Active; 'I' for Inactive)
REMARK    1  A    between atoms: C_2  and  C_20
REMARK    2  A    between atoms: N_3  and  C_4
REMARK    3  A    between atoms: C_4  and  C_5
REMARK    4  A    between atoms: C_8  and  C_9
REMARK    5  A    between atoms: C_9  and  O_10
REMARK    6  A    between atoms: C_9  and  C_11
REMARK    7  A    between atoms: C_11  and  C_12
REMARK                            x       y       z     vdW  Elec       q    Type
REMARK                         _______ _______ _______ _____ _____    ______ ____
ROOT
ATOM      1  C   UNL     1      46.326   7.573  13.002  0.00  0.00    +0.000 A 
ATOM      2  C   UNL     1      45.907   6.327  13.469  0.00  0.00    +0.000 A 
ATOM      3  C   UNL     1      44.822   5.695  12.868  0.00  0.00    +0.000 A 
ATOM      4  C   UNL     1      44.173   6.325  11.807  0.00  0.00    +0.000 A 
ATOM      5  N   UNL     1      44.547   7.548  11.348  0.00  0.00    +0.000 NA
ATOM      6  C   UNL     1      45.593   8.145  11.968  0.00  0.00    +0.000 A 
ENDROOT
BRANCH   1   7
ATOM      7  C   UNL     1      47.490   8.292  13.616  0.00  0.00    +0.000 C 
BRANCH   7  10
ATOM      8  O   UNL     1      49.954   7.064  14.058  0.00  0.00    +0.000 OA
ATOM      9  C   UNL     1      49.162   7.147  14.994  0.00  0.00    +0.000 C 
ATOM     10  N   UNL     1      47.899   7.657  14.839  0.00  0.00    +0.000 N 
ATOM     11  H   UNL     1      47.361   7.888  15.668  0.00  0.00    +0.000 HD
BRANCH   9  12
ATOM     12  C   UNL     1      49.508   6.674  16.339  0.00  0.00    +0.000 A 
ATOM     13  C   UNL     1      50.348   7.428  17.148  0.00  0.00    +0.000 A 
ATOM     14  S   UNL     1      50.652   6.715  18.668  0.00  0.00    +0.000 S 
ATOM     15  C   UNL     1      49.634   5.399  18.317  0.00  0.00    +0.000 A 
ATOM     16  N   UNL     1      49.423   4.413  19.230  0.00  0.00    +0.000 NA
ATOM     17  C   UNL     1      48.601   3.495  18.844  0.00  0.00    +0.000 A 
ATOM     18  N   UNL     1      47.977   3.467  17.623  0.00  0.00    +0.000 N 
ATOM     19  C   UNL     1      48.181   4.422  16.660  0.00  0.00    +0.000 A 
ATOM     20  O   UNL     1      47.647   4.340  15.562  0.00  0.00    +0.000 OA
ATOM     21  C   UNL     1      49.083   5.491  17.049  0.00  0.00    +0.000 A 
ATOM     22  H   UNL     1      47.355   2.712  17.376  0.00  0.00    +0.000 HD
ENDBRANCH   9  12
ENDBRANCH   7  10
ENDBRANCH   1   7
BRANCH   4  23
ATOM     23  C   UNL     1      43.030   5.628  11.087  0.00  0.00    +0.000 C 
BRANCH  23  24
ATOM     24  O   UNL     1      42.343   4.768  11.999  0.00  0.00    +0.000 OA
ATOM     25  H   UNL     1      42.838   3.926  11.960  0.00  0.00    +0.000 HD
ENDBRANCH  23  24
BRANCH  23  26
ATOM     26  C   UNL     1      43.539   4.776   9.921  0.00  0.00    +0.000 C 
BRANCH  26  27
ATOM     27  C   UNL     1      45.040   4.400  10.040  0.00  0.00    +0.000 C 
ATOM     28  C   UNL     1      45.721   4.415   8.661  0.00  0.00    +0.000 C 
ATOM     29  C   UNL     1      45.162   3.309   7.766  0.00  0.00    +0.000 C 
ATOM     30  C   UNL     1      45.128   1.950   8.474  0.00  0.00    +0.000 C 
ATOM     31  N   UNL     1      44.579   1.994   9.833  0.00  0.00    +0.000 NA
ATOM     32  C   UNL     1      45.253   3.007  10.648  0.00  0.00    +0.000 C 
ATOM     33  H   UNL     1      44.694   1.080  10.270  0.00  0.00    +0.000 HD
ENDBRANCH  26  27
ENDBRANCH  23  26
ENDBRANCH   4  23
TORSDOF 7
ENDMDL
MODEL 8
REMARK VINA RESULT:    -6.549      3.643      4.815
REMARK INTER + INTRA:         -10.024
REMARK INTER:                  -8.939
REMARK INTRA:                  -1.085
REMARK UNBOUND:                -0.986
REMARK  Name = 
REMARK  7 active torsions:
REMARK  status: ('A' for Active; 'I' for Inactive)
REMARK    1  A    between atoms: C_2  and  C_20
REMARK    2  A    between atoms: N_3  and  C_4
REMARK    3  A    between atoms: C_4  and  C_5
REMARK    4  A    between atoms: C_8  and  C_9
REMARK    5  A    between atoms: C_9  and  O_10
REMARK    6  A    between atoms: C_9  and  C_11
REMARK    7  A    between atoms: C_11  and  C_12
REMARK                            x       y       z     vdW  Elec       q    Type
REMARK                         _______ _______ _______ _____ _____    ______ ____
ROOT
ATOM      1  C   UNL     1      48.244   5.037  16.281  0.00  0.00    +0.000 A 
ATOM      2  C   UNL     1      47.235   4.267  15.703  0.00  0.00    +0.000 A 
ATOM      3  C   UNL     1      46.766   4.588  14.432  0.00  0.00    +0.000 A 
ATOM      4  C   UNL     1      47.318   5.678  13.761  0.00  0.00    +0.000 A 
ATOM      5  N   UNL     1      48.286   6.456  14.311  0.00  0.00    +0.000 NA
ATOM      6  C   UNL     1      48.705   6.131  15.557  0.00  0.00    +0.000 A 
ENDROOT
BRANCH   1   7
ATOM      7  C   UNL     1      48.783   4.730  17.647  0.00  0.00    +0.000 C 
BRANCH   7  10
ATOM      8  O   UNL     1      50.586   4.762  19.773  0.00  0.00    +0.000 OA
ATOM      9  C   UNL     1      50.957   4.305  18.695  0.00  0.00    +0.000 C 
ATOM     10  N   UNL     1      50.163   4.331  17.579  0.00  0.00    +0.000 N 
ATOM     11  H   UNL     1      50.430   3.771  16.776  0.00  0.00    +0.000 HD
BRANCH   9  12
ATOM     12  C   UNL     1      52.294   3.726  18.523  0.00  0.00    +0.000 A 
ATOM     13  C   UNL     1      53.417   4.425  18.948  0.00  0.00    +0.000 A 
ATOM     14  S   UNL     1      54.883   3.606  18.652  0.00  0.00    +0.000 S 
ATOM     15  C   UNL     1      54.067   2.269  17.990  0.00  0.00    +0.000 A 
ATOM     16  N   UNL     1      54.750   1.176  17.556  0.00  0.00    +0.000 NA
ATOM     17  C   UNL     1      54.003   0.221  17.110  0.00  0.00    +0.000 A 
ATOM     18  N   UNL     1      52.633   0.264  17.050  0.00  0.00    +0.000 N 
ATOM     19  C   UNL     1      51.904   1.354  17.448  0.00  0.00    +0.000 A 
ATOM     20  O   UNL     1      50.686   1.379  17.333  0.00  0.00    +0.000 OA
ATOM     21  C   UNL     1      52.694   2.451  17.977  0.00  0.00    +0.000 A 
ATOM     22  H   UNL     1      52.107  -0.512  16.676  0.00  0.00    +0.000 HD
ENDBRANCH   9  12
ENDBRANCH   7  10
ENDBRANCH   1   7
BRANCH   4  23
ATOM     23  C   UNL     1      46.875   6.009  12.345  0.00  0.00    +0.000 C 
BRANCH  23  24
ATOM     24  O   UNL     1      47.248   7.352  12.028  0.00  0.00    +0.000 OA
ATOM     25  H   UNL     1      47.692   7.283  11.160  0.00  0.00    +0.000 HD
ENDBRANCH  23  24
BRANCH  23  26
ATOM     26  C   UNL     1      45.357   5.888  12.191  0.00  0.00    +0.000 C 
BRANCH  26  27
ATOM     27  C   UNL     1      44.923   5.217  10.861  0.00  0.00    +0.000 C 
ATOM     28  C   UNL     1      43.393   5.230  10.712  0.00  0.00    +0.000 C 
ATOM     29  C   UNL     1      42.735   4.345  11.770  0.00  0.00    +0.000 C 
ATOM     30  C   UNL     1      43.381   2.957  11.851  0.00  0.00    +0.000 C 
ATOM     31  N   UNL     1      44.848   2.978  11.874  0.00  0.00    +0.000 NA
ATOM     32  C   UNL     1      45.388   3.757  10.758  0.00  0.00    +0.000 C 
ATOM     33  H   UNL     1      45.196   2.022  11.816  0.00  0.00    +0.000 HD
ENDBRANCH  26  27
ENDBRANCH  23  26
ENDBRANCH   4  23
TORSDOF 7
ENDMDL
MODEL 9
REMARK VINA RESULT:    -6.458      3.292      4.165
REMARK INTER + INTRA:          -9.899
REMARK INTER:                  -8.498
REMARK INTRA:                  -1.401
REMARK UNBOUND:                -0.986
REMARK  Name = 
REMARK  7 active torsions:
REMARK  status: ('A' for Active; 'I' for Inactive)
REMARK    1  A    between atoms: C_2  and  C_20
REMARK    2  A    between atoms: N_3  and  C_4
REMARK    3  A    between atoms: C_4  and  C_5
REMARK    4  A    between atoms: C_8  and  C_9
REMARK    5  A    between atoms: C_9  and  O_10
REMARK    6  A    between atoms: C_9  and  C_11
REMARK    7  A    between atoms: C_11  and  C_12
REMARK                            x       y       z     vdW  Elec       q    Type
REMARK                         _______ _______ _______ _____ _____    ______ ____
ROOT
ATOM      1  C   UNL     1      49.065   8.120  13.736  0.00  0.00    +0.000 A 
ATOM      2  C   UNL     1      49.023   7.334  12.584  0.00  0.00    +0.000 A 
ATOM      3  C   UNL     1      47.825   7.197  11.887  0.00  0.00    +0.000 A 
ATOM      4  C   UNL     1      46.688   7.851  12.358  0.00  0.00    +0.000 A 
ATOM      5  N   UNL     1      46.698   8.603  13.490  0.00  0.00    +0.000 NA
ATOM      6  C   UNL     1      47.873   8.700  14.156  0.00  0.00    +0.000 A 
ENDROOT
BRANCH   1   7
ATOM      7  C   UNL     1      50.332   8.299  14.519  0.00  0.00    +0.000 C 
BRANCH   7  10
ATOM      8  O   UNL     1      49.571   7.680  17.129  0.00  0.00    +0.000 OA
ATOM      9  C   UNL     1      50.189   6.839  16.482  0.00  0.00    +0.000 C 
ATOM     10  N   UNL     1      50.674   7.095  15.226  0.00  0.00    +0.000 N 
ATOM     11  H   UNL     1      50.998   6.317  14.659  0.00  0.00    +0.000 HD
BRANCH   9  12
ATOM     12  C   UNL     1      50.477   5.507  17.027  0.00  0.00    +0.000 A 
ATOM     13  C   UNL     1      49.441   4.614  17.268  0.00  0.00    +0.000 A 
ATOM     14  S   UNL     1      49.962   3.125  17.917  0.00  0.00    +0.000 S 
ATOM     15  C   UNL     1      51.593   3.603  17.853  0.00  0.00    +0.000 A 
ATOM     16  N   UNL     1      52.586   2.761  18.245  0.00  0.00    +0.000 NA
ATOM     17  C   UNL     1      53.778   3.241  18.111  0.00  0.00    +0.000 A 
ATOM     18  N   UNL     1      54.066   4.492  17.628  0.00  0.00    +0.000 N 
ATOM     19  C   UNL     1      53.099   5.387  17.249  0.00  0.00    +0.000 A 
ATOM     20  O   UNL     1      53.389   6.513  16.870  0.00  0.00    +0.000 OA
ATOM     21  C   UNL     1      51.739   4.890  17.361  0.00  0.00    +0.000 A 
ATOM     22  H   UNL     1      55.021   4.814  17.561  0.00  0.00    +0.000 HD
ENDBRANCH   9  12
ENDBRANCH   7  10
ENDBRANCH   1   7
BRANCH   4  23
ATOM     23  C   UNL     1      45.384   7.775  11.580  0.00  0.00    +0.000 C 
BRANCH  23  24
ATOM     24  O   UNL     1      44.389   8.566  12.235  0.00  0.00    +0.000 OA
ATOM     25  H   UNL     1      43.758   8.798  11.526  0.00  0.00    +0.000 HD
ENDBRANCH  23  24
BRANCH  23  26
ATOM     26  C   UNL     1      44.867   6.337  11.492  0.00  0.00    +0.000 C 
BRANCH  26  27
ATOM     27  C   UNL     1      44.398   5.765  12.856  0.00  0.00    +0.000 C 
ATOM     28  C   UNL     1      45.293   4.596  13.300  0.00  0.00    +0.000 C 
ATOM     29  C   UNL     1      45.137   3.403  12.358  0.00  0.00    +0.000 C 
ATOM     30  C   UNL     1      43.667   3.052  12.102  0.00  0.00    +0.000 C 
ATOM     31  N   UNL     1      42.817   4.208  11.796  0.00  0.00    +0.000 NA
ATOM     32  C   UNL     1      42.951   5.252  12.814  0.00  0.00    +0.000 C 
ATOM     33  H   UNL     1      41.845   3.905  11.751  0.00  0.00    +0.000 HD
ENDBRANCH  26  27
ENDBRANCH  23  26
ENDBRANCH   4  23
TORSDOF 7
ENDMDL
