MODEL 1
REMARK VINA RESULT:    -8.537      0.000      0.000
REMARK INTER + INTRA:         -12.397
REMARK INTER:                 -11.531
REMARK INTRA:                  -0.866
REMARK UNBOUND:                -0.866
REMARK  Name = 
REMARK  6 active torsions:
REMARK  status: ('A' for Active; 'I' for Inactive)
REMARK    1  A    between atoms: C_2  and  C_5
REMARK    2  A    between atoms: C_9  and  N_10
REMARK    3  A    between atoms: N_10  and  C_11
REMARK    4  A    between atoms: C_11  and  C_12
REMARK    5  A    between atoms: C_16  and  C_17
REMARK    6  A    between atoms: C_21  and  C_22
REMARK                            x       y       z     vdW  Elec       q    Type
REMARK                         _______ _______ _______ _____ _____    ______ ____
ROOT
ATOM      1  C   UNL     1      46.155   6.304  12.137  0.00  0.00    +0.000 A 
ATOM      2  C   UNL     1      47.024   7.022  11.306  0.00  0.00    +0.000 A 
ATOM      3  C   UNL     1      48.289   7.386  11.764  0.00  0.00    +0.000 A 
ATOM      4  C   UNL     1      48.694   7.040  13.056  0.00  0.00    +0.000 A 
ATOM      5  C   UNL     1      47.858   6.308  13.917  0.00  0.00    +0.000 A 
ATOM      6  C   UNL     1      46.592   5.933  13.422  0.00  0.00    +0.000 A 
ENDROOT
BRANCH   5   7
ATOM      7  C   UNL     1      48.282   6.006  15.304  0.00  0.00    +0.000 A 
ATOM      8  C   UNL     1      48.957   6.915  16.099  0.00  0.00    +0.000 A 
ATOM      9  C   UNL     1      49.331   6.481  17.348  0.00  0.00    +0.000 A 
ATOM     10  N   UNL     1      49.077   5.250  17.816  0.00  0.00    +0.000 NA
ATOM     11  C   UNL     1      48.404   4.408  16.996  0.00  0.00    +0.000 A 
ATOM     12  N   UNL     1      47.994   4.761  15.749  0.00  0.00    +0.000 NA
BRANCH  11  13
ATOM     13  C   UNL     1      48.096   2.987  17.487  0.00  0.00    +0.000 C 
ATOM     14  F   UNL     1      46.760   2.695  17.540  0.00  0.00    +0.000 F 
ATOM     15  F   UNL     1      48.643   2.014  16.696  0.00  0.00    +0.000 F 
ATOM     16  F   UNL     1      48.565   2.739  18.748  0.00  0.00    +0.000 F 
ENDBRANCH  11  13
ENDBRANCH   5   7
BRANCH   1  17
ATOM     17  C   UNL     1      44.746   6.001  11.684  0.00  0.00    +0.000 C 
BRANCH  17  18
ATOM     18  N   UNL     1      44.686   5.762  10.251  0.00  0.00    +0.000 N 
ATOM     19  H   UNL     1      43.924   6.255   9.786  0.00  0.00    +0.000 HD
BRANCH  18  24
ATOM     20  C   UNL     1      45.764   2.841   8.169  0.00  0.00    +0.000 A 
ATOM     21  C   UNL     1      44.974   1.874   8.764  0.00  0.00    +0.000 A 
ATOM     22  N   UNL     1      44.145   2.124   9.798  0.00  0.00    +0.000 NA
ATOM     23  C   UNL     1      44.106   3.402  10.257  0.00  0.00    +0.000 A 
ATOM     24  C   UNL     1      44.868   4.464   9.761  0.00  0.00    +0.000 A 
ATOM     25  C   UNL     1      45.688   4.150   8.672  0.00  0.00    +0.000 A 
BRANCH  20  27
ATOM     26  F   UNL     1      46.181   2.878   5.810  0.00  0.00    +0.000 F 
ATOM     27  C   UNL     1      46.668   2.507   7.025  0.00  0.00    +0.000 C 
ATOM     28  F   UNL     1      46.915   1.170   6.935  0.00  0.00    +0.000 F 
ATOM     29  F   UNL     1      47.888   3.101   7.135  0.00  0.00    +0.000 F 
ENDBRANCH  20  27
ENDBRANCH  18  24
ENDBRANCH  17  18
ENDBRANCH   1  17
TORSDOF 6
ENDMDL
MODEL 2
REMARK VINA RESULT:    -8.449      4.494      5.881
REMARK INTER + INTRA:         -12.279
REMARK INTER:                 -11.806
REMARK INTRA:                  -0.472
REMARK UNBOUND:                -0.866
REMARK  Name = 
REMARK  6 active torsions:
REMARK  status: ('A' for Active; 'I' for Inactive)
REMARK    1  A    between atoms: C_2  and  C_5
REMARK    2  A    between atoms: C_9  and  N_10
REMARK    3  A    between atoms: N_10  and  C_11
REMARK    4  A    between atoms: C_11  and  C_12
REMARK    5  A    between atoms: C_16  and  C_17
REMARK    6  A    between atoms: C_21  and  C_22
REMARK                            x       y       z     vdW  Elec       q    Type
REMARK                         _______ _______ _______ _____ _____    ______ ____
ROOT
ATOM      1  C   UNL     1      44.490   4.096  12.189  0.00  0.00    +0.000 A 
ATOM      2  C   UNL     1      45.523   3.496  12.920  0.00  0.00    +0.000 A 
ATOM      3  C   UNL     1      46.562   4.272  13.429  0.00  0.00    +0.000 A 
ATOM      4  C   UNL     1      46.581   5.651  13.209  0.00  0.00    +0.000 A 
ATOM      5  C   UNL     1      45.557   6.296  12.492  0.00  0.00    +0.000 A 
ATOM      6  C   UNL     1      44.506   5.490  12.006  0.00  0.00    +0.000 A 
ENDROOT
BRANCH   5   7
ATOM      7  C   UNL     1      45.628   7.749  12.215  0.00  0.00    +0.000 A 
ATOM      8  C   UNL     1      46.680   8.543  12.632  0.00  0.00    +0.000 A 
ATOM      9  C   UNL     1      46.590   9.884  12.348  0.00  0.00    +0.000 A 
ATOM     10  N   UNL     1      45.555  10.440  11.700  0.00  0.00    +0.000 NA
ATOM     11  C   UNL     1      44.559   9.610  11.308  0.00  0.00    +0.000 A 
ATOM     12  N   UNL     1      44.575   8.272  11.546  0.00  0.00    +0.000 NA
BRANCH  11  13
ATOM     13  C   UNL     1      43.351  10.203  10.569  0.00  0.00    +0.000 C 
ATOM     14  F   UNL     1      42.862  11.349  11.135  0.00  0.00    +0.000 F 
ATOM     15  F   UNL     1      43.624  10.534   9.271  0.00  0.00    +0.000 F 
ATOM     16  F   UNL     1      42.282   9.350  10.513  0.00  0.00    +0.000 F 
ENDBRANCH  11  13
ENDBRANCH   5   7
BRANCH   1  17
ATOM     17  C   UNL     1      43.420   3.245  11.544  0.00  0.00    +0.000 C 
BRANCH  17  18
ATOM     18  N   UNL     1      43.996   2.232  10.675  0.00  0.00    +0.000 N 
ATOM     19  H   UNL     1      44.483   1.490  11.178  0.00  0.00    +0.000 HD
BRANCH  18  24
ATOM     20  C   UNL     1      46.253   2.273   7.686  0.00  0.00    +0.000 A 
ATOM     21  C   UNL     1      46.081   3.599   7.330  0.00  0.00    +0.000 A 
ATOM     22  N   UNL     1      45.268   4.448   7.992  0.00  0.00    +0.000 NA
ATOM     23  C   UNL     1      44.597   3.945   9.060  0.00  0.00    +0.000 A 
ATOM     24  C   UNL     1      44.664   2.623   9.509  0.00  0.00    +0.000 A 
ATOM     25  C   UNL     1      45.543   1.798   8.801  0.00  0.00    +0.000 A 
BRANCH  20  27
ATOM     26  F   UNL     1      48.474   1.473   7.278  0.00  0.00    +0.000 F 
ATOM     27  C   UNL     1      47.166   1.376   6.913  0.00  0.00    +0.000 C 
ATOM     28  F   UNL     1      47.132   1.631   5.575  0.00  0.00    +0.000 F 
ATOM     29  F   UNL     1      46.838   0.061   7.046  0.00  0.00    +0.000 F 
ENDBRANCH  20  27
ENDBRANCH  18  24
ENDBRANCH  17  18
ENDBRANCH   1  17
TORSDOF 6
ENDMDL
MODEL 3
REMARK VINA RESULT:    -8.336      1.348      2.194
REMARK INTER + INTRA:         -12.126
REMARK INTER:                 -11.771
REMARK INTRA:                  -0.355
REMARK UNBOUND:                -0.866
REMARK  Name = 
REMARK  6 active torsions:
REMARK  status: ('A' for Active; 'I' for Inactive)
REMARK    1  A    between atoms: C_2  and  C_5
REMARK    2  A    between atoms: C_9  and  N_10
REMARK    3  A    between atoms: N_10  and  C_11
REMARK    4  A    between atoms: C_11  and  C_12
REMARK    5  A    between atoms: C_16  and  C_17
REMARK    6  A    between atoms: C_21  and  C_22
REMARK                            x       y       z     vdW  Elec       q    Type
REMARK                         _______ _______ _______ _____ _____    ______ ____
ROOT
ATOM      1  C   UNL     1      44.925   4.302  12.248  0.00  0.00    +0.000 A 
ATOM      2  C   UNL     1      44.450   5.528  11.769  0.00  0.00    +0.000 A 
ATOM      3  C   UNL     1      44.990   6.722  12.243  0.00  0.00    +0.000 A 
ATOM      4  C   UNL     1      46.006   6.701  13.201  0.00  0.00    +0.000 A 
ATOM      5  C   UNL     1      46.522   5.490  13.700  0.00  0.00    +0.000 A 
ATOM      6  C   UNL     1      45.972   4.297  13.187  0.00  0.00    +0.000 A 
ENDROOT
BRANCH   5   7
ATOM      7  C   UNL     1      47.554   5.490  14.761  0.00  0.00    +0.000 A 
ATOM      8  C   UNL     1      48.479   6.507  14.911  0.00  0.00    +0.000 A 
ATOM      9  C   UNL     1      49.410   6.350  15.910  0.00  0.00    +0.000 A 
ATOM     10  N   UNL     1      49.458   5.284  16.724  0.00  0.00    +0.000 NA
ATOM     11  C   UNL     1      48.519   4.326  16.535  0.00  0.00    +0.000 A 
ATOM     12  N   UNL     1      47.562   4.407  15.574  0.00  0.00    +0.000 NA
BRANCH  11  13
ATOM     13  C   UNL     1      48.538   3.085  17.438  0.00  0.00    +0.000 C 
ATOM     14  F   UNL     1      48.974   3.333  18.712  0.00  0.00    +0.000 F 
ATOM     15  F   UNL     1      47.307   2.509  17.587  0.00  0.00    +0.000 F 
ATOM     16  F   UNL     1      49.354   2.091  16.970  0.00  0.00    +0.000 F 
ENDBRANCH  11  13
ENDBRANCH   5   7
BRANCH   1  17
ATOM     17  C   UNL     1      44.269   3.010  11.817  0.00  0.00    +0.000 C 
BRANCH  17  18
ATOM     18  N   UNL     1      43.729   3.109  10.471  0.00  0.00    +0.000 N 
ATOM     19  H   UNL     1      42.922   2.508  10.309  0.00  0.00    +0.000 HD
BRANCH  18  24
ATOM     20  C   UNL     1      46.224   2.144   7.850  0.00  0.00    +0.000 A 
ATOM     21  C   UNL     1      46.465   3.405   7.335  0.00  0.00    +0.000 A 
ATOM     22  N   UNL     1      45.851   4.520   7.781  0.00  0.00    +0.000 NA
ATOM     23  C   UNL     1      44.953   4.364   8.789  0.00  0.00    +0.000 A 
ATOM     24  C   UNL     1      44.603   3.146   9.379  0.00  0.00    +0.000 A 
ATOM     25  C   UNL     1      45.293   2.031   8.895  0.00  0.00    +0.000 A 
BRANCH  20  27
ATOM     26  F   UNL     1      46.561  -0.227   7.908  0.00  0.00    +0.000 F 
ATOM     27  C   UNL     1      46.933   0.941   7.316  0.00  0.00    +0.000 C 
ATOM     28  F   UNL     1      48.284   1.024   7.473  0.00  0.00    +0.000 F 
ATOM     29  F   UNL     1      46.727   0.765   5.981  0.00  0.00    +0.000 F 
ENDBRANCH  20  27
ENDBRANCH  18  24
ENDBRANCH  17  18
ENDBRANCH   1  17
TORSDOF 6
ENDMDL
MODEL 4
REMARK VINA RESULT:    -8.145      1.720      2.289
REMARK INTER + INTRA:         -11.867
REMARK INTER:                 -10.954
REMARK INTRA:                  -0.914
REMARK UNBOUND:                -0.866
REMARK  Name = 
REMARK  6 active torsions:
REMARK  status: ('A' for Active; 'I' for Inactive)
REMARK    1  A    between atoms: C_2  and  C_5
REMARK    2  A    between atoms: C_9  and  N_10
REMARK    3  A    between atoms: N_10  and  C_11
REMARK    4  A    between atoms: C_11  and  C_12
REMARK    5  A    between atoms: C_16  and  C_17
REMARK    6  A    between atoms: C_21  and  C_22
REMARK                            x       y       z     vdW  Elec       q    Type
REMARK                         _______ _______ _______ _____ _____    ______ ____
ROOT
ATOM      1  C   UNL     1      45.293   5.978  12.164  0.00  0.00    +0.000 A 
ATOM      2  C   UNL     1      46.128   6.814  11.413  0.00  0.00    +0.000 A 
ATOM      3  C   UNL     1      47.431   7.067  11.837  0.00  0.00    +0.000 A 
ATOM      4  C   UNL     1      47.909   6.491  13.017  0.00  0.00    +0.000 A 
ATOM      5  C   UNL     1      47.108   5.635  13.794  0.00  0.00    +0.000 A 
ATOM      6  C   UNL     1      45.800   5.378  13.331  0.00  0.00    +0.000 A 
ENDROOT
BRANCH   5   7
ATOM      7  C   UNL     1      47.611   5.085  15.074  0.00  0.00    +0.000 A 
ATOM      8  C   UNL     1      47.021   4.012  15.716  0.00  0.00    +0.000 A 
ATOM      9  C   UNL     1      47.565   3.640  16.921  0.00  0.00    +0.000 A 
ATOM     10  N   UNL     1      48.616   4.255  17.486  0.00  0.00    +0.000 NA
ATOM     11  C   UNL     1      49.158   5.292  16.804  0.00  0.00    +0.000 A 
ATOM     12  N   UNL     1      48.682   5.719  15.605  0.00  0.00    +0.000 NA
BRANCH  11  13
ATOM     13  C   UNL     1      50.358   6.030  17.415  0.00  0.00    +0.000 C 
ATOM     14  F   UNL     1      50.372   6.030  18.784  0.00  0.00    +0.000 F 
ATOM     15  F   UNL     1      51.562   5.497  17.045  0.00  0.00    +0.000 F 
ATOM     16  F   UNL     1      50.417   7.350  17.058  0.00  0.00    +0.000 F 
ENDBRANCH  11  13
ENDBRANCH   5   7
BRANCH   1  17
ATOM     17  C   UNL     1      43.848   5.788  11.765  0.00  0.00    +0.000 C 
BRANCH  17  18
ATOM     18  N   UNL     1      43.721   5.487  10.348  0.00  0.00    +0.000 N 
ATOM     19  H   UNL     1      42.781   5.634   9.982  0.00  0.00    +0.000 HD
BRANCH  18  24
ATOM     20  C   UNL     1      45.744   3.157   8.225  0.00  0.00    +0.000 A 
ATOM     21  C   UNL     1      45.303   1.964   8.769  0.00  0.00    +0.000 A 
ATOM     22  N   UNL     1      44.415   1.892   9.782  0.00  0.00    +0.000 NA
ATOM     23  C   UNL     1      43.949   3.070  10.273  0.00  0.00    +0.000 A 
ATOM     24  C   UNL     1      44.330   4.339   9.830  0.00  0.00    +0.000 A 
ATOM     25  C   UNL     1      45.231   4.350   8.760  0.00  0.00    +0.000 A 
BRANCH  20  27
ATOM     26  F   UNL     1      47.798   2.353   7.291  0.00  0.00    +0.000 F 
ATOM     27  C   UNL     1      46.732   3.178   7.103  0.00  0.00    +0.000 C 
ATOM     28  F   UNL     1      47.255   4.420   6.897  0.00  0.00    +0.000 F 
ATOM     29  F   UNL     1      46.179   2.809   5.915  0.00  0.00    +0.000 F 
ENDBRANCH  20  27
ENDBRANCH  18  24
ENDBRANCH  17  18
ENDBRANCH   1  17
TORSDOF 6
ENDMDL
MODEL 5
REMARK VINA RESULT:    -8.141      3.815      4.814
REMARK INTER + INTRA:         -11.862
REMARK INTER:                 -10.920
REMARK INTRA:                  -0.942
REMARK UNBOUND:                -0.866
REMARK  Name = 
REMARK  6 active torsions:
REMARK  status: ('A' for Active; 'I' for Inactive)
REMARK    1  A    between atoms: C_2  and  C_5
REMARK    2  A    between atoms: C_9  and  N_10
REMARK    3  A    between atoms: N_10  and  C_11
REMARK    4  A    between atoms: C_11  and  C_12
REMARK    5  A    between atoms: C_16  and  C_17
REMARK    6  A    between atoms: C_21  and  C_22
REMARK                            x       y       z     vdW  Elec       q    Type
REMARK                         _______ _______ _______ _____ _____    ______ ____
ROOT
ATOM      1  C   UNL     1      44.787   4.810  11.510  0.00  0.00    +0.000 A 
ATOM      2  C   UNL     1      45.174   3.857  12.460  0.00  0.00    +0.000 A 
ATOM      3  C   UNL     1      46.260   4.105  13.297  0.00  0.00    +0.000 A 
ATOM      4  C   UNL     1      46.970   5.304  13.190  0.00  0.00    +0.000 A 
ATOM      5  C   UNL     1      46.606   6.293  12.258  0.00  0.00    +0.000 A 
ATOM      6  C   UNL     1      45.490   6.026  11.438  0.00  0.00    +0.000 A 
ENDROOT
BRANCH   5   7
ATOM      7  C   UNL     1      47.409   7.529  12.117  0.00  0.00    +0.000 A 
ATOM      8  C   UNL     1      46.871   8.796  12.256  0.00  0.00    +0.000 A 
ATOM      9  C   UNL     1      47.724   9.853  12.049  0.00  0.00    +0.000 A 
ATOM     10  N   UNL     1      49.020   9.713  11.729  0.00  0.00    +0.000 NA
ATOM     11  C   UNL     1      49.491   8.448  11.617  0.00  0.00    +0.000 A 
ATOM     12  N   UNL     1      48.715   7.350  11.810  0.00  0.00    +0.000 NA
BRANCH  11  13
ATOM     13  C   UNL     1      50.966   8.239  11.245  0.00  0.00    +0.000 C 
ATOM     14  F   UNL     1      51.477   9.216  10.432  0.00  0.00    +0.000 F 
ATOM     15  F   UNL     1      51.795   8.209  12.332  0.00  0.00    +0.000 F 
ATOM     16  F   UNL     1      51.193   7.066  10.578  0.00  0.00    +0.000 F 
ENDBRANCH  11  13
ENDBRANCH   5   7
BRANCH   1  17
ATOM     17  C   UNL     1      43.679   4.500  10.530  0.00  0.00    +0.000 C 
BRANCH  17  18
ATOM     18  N   UNL     1      44.167   4.489   9.160  0.00  0.00    +0.000 N 
ATOM     19  H   UNL     1      43.464   4.761   8.474  0.00  0.00    +0.000 HD
BRANCH  18  24
ATOM     20  C   UNL     1      46.634   2.418   7.248  0.00  0.00    +0.000 A 
ATOM     21  C   UNL     1      46.336   1.190   7.811  0.00  0.00    +0.000 A 
ATOM     22  N   UNL     1      45.406   1.018   8.773  0.00  0.00    +0.000 NA
ATOM     23  C   UNL     1      44.745   2.129   9.191  0.00  0.00    +0.000 A 
ATOM     24  C   UNL     1      44.966   3.427   8.722  0.00  0.00    +0.000 A 
ATOM     25  C   UNL     1      45.922   3.538   7.707  0.00  0.00    +0.000 A 
BRANCH  20  27
ATOM     26  F   UNL     1      48.062   1.364   5.639  0.00  0.00    +0.000 F 
ATOM     27  C   UNL     1      47.678   2.550   6.186  0.00  0.00    +0.000 C 
ATOM     28  F   UNL     1      48.819   3.133   6.651  0.00  0.00    +0.000 F 
ATOM     29  F   UNL     1      47.266   3.325   5.145  0.00  0.00    +0.000 F 
ENDBRANCH  20  27
ENDBRANCH  18  24
ENDBRANCH  17  18
ENDBRANCH   1  17
TORSDOF 6
ENDMDL
MODEL 6
REMARK VINA RESULT:    -7.845      1.230      1.837
REMARK INTER + INTRA:         -11.463
REMARK INTER:                 -10.491
REMARK INTRA:                  -0.971
REMARK UNBOUND:                -0.866
REMARK  Name = 
REMARK  6 active torsions:
REMARK  status: ('A' for Active; 'I' for Inactive)
REMARK    1  A    between atoms: C_2  and  C_5
REMARK    2  A    between atoms: C_9  and  N_10
REMARK    3  A    between atoms: N_10  and  C_11
REMARK    4  A    between atoms: C_11  and  C_12
REMARK    5  A    between atoms: C_16  and  C_17
REMARK    6  A    between atoms: C_21  and  C_22
REMARK                            x       y       z     vdW  Elec       q    Type
REMARK                         _______ _______ _______ _____ _____    ______ ____
ROOT
ATOM      1  C   UNL     1      46.851   7.411  12.327  0.00  0.00    +0.000 A 
ATOM      2  C   UNL     1      47.925   7.880  11.561  0.00  0.00    +0.000 A 
ATOM      3  C   UNL     1      49.221   7.833  12.070  0.00  0.00    +0.000 A 
ATOM      4  C   UNL     1      49.455   7.322  13.350  0.00  0.00    +0.000 A 
ATOM      5  C   UNL     1      48.406   6.828  14.147  0.00  0.00    +0.000 A 
ATOM      6  C   UNL     1      47.107   6.867  13.599  0.00  0.00    +0.000 A 
ENDROOT
BRANCH   5   7
ATOM      7  C   UNL     1      48.666   6.349  15.524  0.00  0.00    +0.000 A 
ATOM      8  C   UNL     1      49.262   7.135  16.493  0.00  0.00    +0.000 A 
ATOM      9  C   UNL     1      49.486   6.544  17.713  0.00  0.00    +0.000 A 
ATOM     10  N   UNL     1      49.160   5.273  17.996  0.00  0.00    +0.000 NA
ATOM     11  C   UNL     1      48.570   4.557  17.010  0.00  0.00    +0.000 A 
ATOM     12  N   UNL     1      48.310   5.069  15.778  0.00  0.00    +0.000 NA
BRANCH  11  13
ATOM     13  C   UNL     1      48.186   3.097  17.286  0.00  0.00    +0.000 C 
ATOM     14  F   UNL     1      48.718   2.592  18.442  0.00  0.00    +0.000 F 
ATOM     15  F   UNL     1      46.837   2.909  17.402  0.00  0.00    +0.000 F 
ATOM     16  F   UNL     1      48.593   2.237  16.302  0.00  0.00    +0.000 F 
ENDBRANCH  11  13
ENDBRANCH   5   7
BRANCH   1  17
ATOM     17  C   UNL     1      45.434   7.558  11.822  0.00  0.00    +0.000 C 
BRANCH  17  18
ATOM     18  N   UNL     1      44.567   6.521  12.357  0.00  0.00    +0.000 N 
ATOM     19  H   UNL     1      44.623   6.423  13.370  0.00  0.00    +0.000 HD
BRANCH  18  24
ATOM     20  C   UNL     1      44.835   3.810   9.787  0.00  0.00    +0.000 A 
ATOM     21  C   UNL     1      44.052   2.862  10.420  0.00  0.00    +0.000 A 
ATOM     22  N   UNL     1      43.474   3.057  11.624  0.00  0.00    +0.000 NA
ATOM     23  C   UNL     1      43.693   4.259  12.220  0.00  0.00    +0.000 A 
ATOM     24  C   UNL     1      44.480   5.289  11.698  0.00  0.00    +0.000 A 
ATOM     25  C   UNL     1      45.029   5.039  10.437  0.00  0.00    +0.000 A 
BRANCH  20  27
ATOM     26  F   UNL     1      46.099   2.342   8.377  0.00  0.00    +0.000 F 
ATOM     27  C   UNL     1      45.453   3.538   8.452  0.00  0.00    +0.000 C 
ATOM     28  F   UNL     1      46.374   4.480   8.107  0.00  0.00    +0.000 F 
ATOM     29  F   UNL     1      44.537   3.531   7.445  0.00  0.00    +0.000 F 
ENDBRANCH  20  27
ENDBRANCH  18  24
ENDBRANCH  17  18
ENDBRANCH   1  17
TORSDOF 6
ENDMDL
MODEL 7
REMARK VINA RESULT:    -7.724      1.494      8.041
REMARK INTER + INTRA:         -11.299
REMARK INTER:                 -10.355
REMARK INTRA:                  -0.944
REMARK UNBOUND:                -0.866
REMARK  Name = 
REMARK  6 active torsions:
REMARK  status: ('A' for Active; 'I' for Inactive)
REMARK    1  A    between atoms: C_2  and  C_5
REMARK    2  A    between atoms: C_9  and  N_10
REMARK    3  A    between atoms: N_10  and  C_11
REMARK    4  A    between atoms: C_11  and  C_12
REMARK    5  A    between atoms: C_16  and  C_17
REMARK    6  A    between atoms: C_21  and  C_22
REMARK                            x       y       z     vdW  Elec       q    Type
REMARK                         _______ _______ _______ _____ _____    ______ ____
ROOT
ATOM      1  C   UNL     1      47.123   7.670  13.283  0.00  0.00    +0.000 A 
ATOM      2  C   UNL     1      46.518   8.891  12.960  0.00  0.00    +0.000 A 
ATOM      3  C   UNL     1      45.355   8.914  12.192  0.00  0.00    +0.000 A 
ATOM      4  C   UNL     1      44.791   7.719  11.737  0.00  0.00    +0.000 A 
ATOM      5  C   UNL     1      45.359   6.471  12.050  0.00  0.00    +0.000 A 
ATOM      6  C   UNL     1      46.523   6.475  12.847  0.00  0.00    +0.000 A 
ENDROOT
BRANCH   5   7
ATOM      7  C   UNL     1      44.782   5.221  11.506  0.00  0.00    +0.000 A 
ATOM      8  C   UNL     1      43.833   4.475  12.181  0.00  0.00    +0.000 A 
ATOM      9  C   UNL     1      43.423   3.310  11.577  0.00  0.00    +0.000 A 
ATOM     10  N   UNL     1      43.888   2.880  10.395  0.00  0.00    +0.000 NA
ATOM     11  C   UNL     1      44.808   3.659   9.777  0.00  0.00    +0.000 A 
ATOM     12  N   UNL     1      45.263   4.826  10.304  0.00  0.00    +0.000 NA
BRANCH  11  13
ATOM     13  C   UNL     1      45.374   3.203   8.425  0.00  0.00    +0.000 C 
ATOM     14  F   UNL     1      44.464   3.237   7.402  0.00  0.00    +0.000 F 
ATOM     15  F   UNL     1      46.423   3.968   7.996  0.00  0.00    +0.000 F 
ATOM     16  F   UNL     1      45.841   1.916   8.443  0.00  0.00    +0.000 F 
ENDBRANCH  11  13
ENDBRANCH   5   7
BRANCH   1  17
ATOM     17  C   UNL     1      48.441   7.647  14.023  0.00  0.00    +0.000 C 
BRANCH  17  18
ATOM     18  N   UNL     1      48.246   7.717  15.462  0.00  0.00    +0.000 N 
ATOM     19  H   UNL     1      48.470   8.628  15.861  0.00  0.00    +0.000 HD
BRANCH  18  24
ATOM     20  C   UNL     1      48.640   4.323  16.996  0.00  0.00    +0.000 A 
ATOM     21  C   UNL     1      49.434   4.685  18.069  0.00  0.00    +0.000 A 
ATOM     22  N   UNL     1      49.851   5.948  18.294  0.00  0.00    +0.000 NA
ATOM     23  C   UNL     1      49.452   6.892  17.403  0.00  0.00    +0.000 A 
ATOM     24  C   UNL     1      48.671   6.655  16.268  0.00  0.00    +0.000 A 
ATOM     25  C   UNL     1      48.248   5.333  16.103  0.00  0.00    +0.000 A 
BRANCH  20  27
ATOM     26  F   UNL     1      47.184   2.519  17.600  0.00  0.00    +0.000 F 
ATOM     27  C   UNL     1      48.210   2.905  16.793  0.00  0.00    +0.000 C 
ATOM     28  F   UNL     1      49.219   2.020  17.026  0.00  0.00    +0.000 F 
ATOM     29  F   UNL     1      47.794   2.664  15.520  0.00  0.00    +0.000 F 
ENDBRANCH  20  27
ENDBRANCH  18  24
ENDBRANCH  17  18
ENDBRANCH   1  17
TORSDOF 6
ENDMDL
MODEL 8
REMARK VINA RESULT:    -7.620      2.895      3.891
REMARK INTER + INTRA:         -11.159
REMARK INTER:                 -10.268
REMARK INTRA:                  -0.892
REMARK UNBOUND:                -0.866
REMARK  Name = 
REMARK  6 active torsions:
REMARK  status: ('A' for Active; 'I' for Inactive)
REMARK    1  A    between atoms: C_2  and  C_5
REMARK    2  A    between atoms: C_9  and  N_10
REMARK    3  A    between atoms: N_10  and  C_11
REMARK    4  A    between atoms: C_11  and  C_12
REMARK    5  A    between atoms: C_16  and  C_17
REMARK    6  A    between atoms: C_21  and  C_22
REMARK                            x       y       z     vdW  Elec       q    Type
REMARK                         _______ _______ _______ _____ _____    ______ ____
ROOT
ATOM      1  C   UNL     1      45.168   5.560  12.321  0.00  0.00    +0.000 A 
ATOM      2  C   UNL     1      45.268   4.531  13.265  0.00  0.00    +0.000 A 
ATOM      3  C   UNL     1      46.404   4.422  14.065  0.00  0.00    +0.000 A 
ATOM      4  C   UNL     1      47.451   5.337  13.926  0.00  0.00    +0.000 A 
ATOM      5  C   UNL     1      47.385   6.394  12.999  0.00  0.00    +0.000 A 
ATOM      6  C   UNL     1      46.215   6.494  12.218  0.00  0.00    +0.000 A 
ENDROOT
BRANCH   5   7
ATOM      7  C   UNL     1      48.531   7.315  12.823  0.00  0.00    +0.000 A 
ATOM      8  C   UNL     1      48.693   8.108  11.702  0.00  0.00    +0.000 A 
ATOM      9  C   UNL     1      49.830   8.878  11.651  0.00  0.00    +0.000 A 
ATOM     10  N   UNL     1      50.763   8.894  12.615  0.00  0.00    +0.000 NA
ATOM     11  C   UNL     1      50.544   8.103  13.693  0.00  0.00    +0.000 A 
ATOM     12  N   UNL     1      49.444   7.316  13.822  0.00  0.00    +0.000 NA
BRANCH  11  13
ATOM     13  C   UNL     1      51.588   8.084  14.818  0.00  0.00    +0.000 C 
ATOM     14  F   UNL     1      52.882   8.046  14.374  0.00  0.00    +0.000 F 
ATOM     15  F   UNL     1      51.521   9.181  15.632  0.00  0.00    +0.000 F 
ATOM     16  F   UNL     1      51.465   7.003  15.649  0.00  0.00    +0.000 F 
ENDBRANCH  11  13
ENDBRANCH   5   7
BRANCH   1  17
ATOM     17  C   UNL     1      43.987   5.618  11.380  0.00  0.00    +0.000 C 
BRANCH  17  18
ATOM     18  N   UNL     1      44.407   5.525   9.991  0.00  0.00    +0.000 N 
ATOM     19  H   UNL     1      43.805   6.036   9.347  0.00  0.00    +0.000 HD
BRANCH  18  24
ATOM     20  C   UNL     1      45.992   2.886   7.857  0.00  0.00    +0.000 A 
ATOM     21  C   UNL     1      45.395   1.781   8.438  0.00  0.00    +0.000 A 
ATOM     22  N   UNL     1      44.539   1.857   9.477  0.00  0.00    +0.000 NA
ATOM     23  C   UNL     1      44.269   3.099   9.958  0.00  0.00    +0.000 A 
ATOM     24  C   UNL     1      44.822   4.290   9.479  0.00  0.00    +0.000 A 
ATOM     25  C   UNL     1      45.679   4.150   8.384  0.00  0.00    +0.000 A 
BRANCH  20  27
ATOM     26  F   UNL     1      46.862   1.536   6.080  0.00  0.00    +0.000 F 
ATOM     27  C   UNL     1      46.936   2.742   6.707  0.00  0.00    +0.000 C 
ATOM     28  F   UNL     1      48.238   2.885   7.085  0.00  0.00    +0.000 F 
ATOM     29  F   UNL     1      46.728   3.678   5.741  0.00  0.00    +0.000 F 
ENDBRANCH  20  27
ENDBRANCH  18  24
ENDBRANCH  17  18
ENDBRANCH   1  17
TORSDOF 6
ENDMDL
MODEL 9
REMARK VINA RESULT:    -7.598      2.302      8.314
REMARK INTER + INTRA:         -11.129
REMARK INTER:                 -10.293
REMARK INTRA:                  -0.836
REMARK UNBOUND:                -0.866
REMARK  Name = 
REMARK  6 active torsions:
REMARK  status: ('A' for Active; 'I' for Inactive)
REMARK    1  A    between atoms: C_2  and  C_5
REMARK    2  A    between atoms: C_9  and  N_10
REMARK    3  A    between atoms: N_10  and  C_11
REMARK    4  A    between atoms: C_11  and  C_12
REMARK    5  A    between atoms: C_16  and  C_17
REMARK    6  A    between atoms: C_21  and  C_22
REMARK                            x       y       z     vdW  Elec       q    Type
REMARK                         _______ _______ _______ _____ _____    ______ ____
ROOT
ATOM      1  C   UNL     1      47.861   6.510  14.098  0.00  0.00    +0.000 A 
ATOM      2  C   UNL     1      48.332   7.404  13.128  0.00  0.00    +0.000 A 
ATOM      3  C   UNL     1      47.784   7.399  11.847  0.00  0.00    +0.000 A 
ATOM      4  C   UNL     1      46.765   6.500  11.523  0.00  0.00    +0.000 A 
ATOM      5  C   UNL     1      46.254   5.595  12.471  0.00  0.00    +0.000 A 
ATOM      6  C   UNL     1      46.811   5.635  13.766  0.00  0.00    +0.000 A 
ENDROOT
BRANCH   5   7
ATOM      7  C   UNL     1      45.218   4.607  12.090  0.00  0.00    +0.000 A 
ATOM      8  C   UNL     1      44.150   4.285  12.906  0.00  0.00    +0.000 A 
ATOM      9  C   UNL     1      43.293   3.315  12.445  0.00  0.00    +0.000 A 
ATOM     10  N   UNL     1      43.443   2.686  11.269  0.00  0.00    +0.000 NA
ATOM     11  C   UNL     1      44.502   3.052  10.509  0.00  0.00    +0.000 A 
ATOM     12  N   UNL     1      45.393   4.005  10.890  0.00  0.00    +0.000 NA
BRANCH  11  13
ATOM     13  C   UNL     1      44.718   2.354   9.159  0.00  0.00    +0.000 C 
ATOM     14  F   UNL     1      44.324   3.099   8.080  0.00  0.00    +0.000 F 
ATOM     15  F   UNL     1      46.028   2.043   8.918  0.00  0.00    +0.000 F 
ATOM     16  F   UNL     1      44.034   1.175   9.046  0.00  0.00    +0.000 F 
ENDBRANCH  11  13
ENDBRANCH   5   7
BRANCH   1  17
ATOM     17  C   UNL     1      48.525   6.439  15.453  0.00  0.00    +0.000 C 
BRANCH  17  18
ATOM     18  N   UNL     1      47.962   5.375  16.268  0.00  0.00    +0.000 N 
ATOM     19  H   UNL     1      47.399   5.711  17.048  0.00  0.00    +0.000 HD
BRANCH  18  24
ATOM     20  C   UNL     1      50.788   3.247  17.502  0.00  0.00    +0.000 A 
ATOM     21  C   UNL     1      50.328   2.026  17.044  0.00  0.00    +0.000 A 
ATOM     22  N   UNL     1      49.160   1.870  16.386  0.00  0.00    +0.000 NA
ATOM     23  C   UNL     1      48.419   2.990  16.179  0.00  0.00    +0.000 A 
ATOM     24  C   UNL     1      48.758   4.276  16.611  0.00  0.00    +0.000 A 
ATOM     25  C   UNL     1      49.991   4.379  17.261  0.00  0.00    +0.000 A 
BRANCH  20  27
ATOM     26  F   UNL     1      52.691   2.166  18.474  0.00  0.00    +0.000 F 
ATOM     27  C   UNL     1      52.090   3.362  18.228  0.00  0.00    +0.000 C 
ATOM     28  F   UNL     1      51.954   3.967  19.442  0.00  0.00    +0.000 F 
ATOM     29  F   UNL     1      53.003   4.106  17.546  0.00  0.00    +0.000 F 
ENDBRANCH  20  27
ENDBRANCH  18  24
ENDBRANCH  17  18
ENDBRANCH   1  17
TORSDOF 6
ENDMDL
