MODEL 1
REMARK VINA RESULT:    -7.328      0.000      0.000
REMARK INTER + INTRA:          -9.986
REMARK INTER:                  -9.470
REMARK INTRA:                  -0.517
REMARK UNBOUND:                -0.517
REMARK  Name = 
REMARK  7 active torsions:
REMARK  status: ('A' for Active; 'I' for Inactive)
REMARK    1  A    between atoms: C_1  and  N_2
REMARK    2  A    between atoms: N_2  and  C_3
REMARK    3  A    between atoms: C_3  and  C_4
REMARK    4  A    between atoms: C_6  and  O_7
REMARK    5  A    between atoms: O_7  and  C_8
REMARK    6  A    between atoms: C_8  and  C_9
REMARK    7  A    between atoms: C_13  and  C_14
REMARK                            x       y       z     vdW  Elec       q    Type
REMARK                         _______ _______ _______ _____ _____    ______ ____
ROOT
ATOM      1  C   UNL     1      45.484   4.538  12.917  0.00  0.00    +0.000 A 
ATOM      2  C   UNL     1      45.229   3.904  11.704  0.00  0.00    +0.000 A 
ATOM      3  C   UNL     1      43.970   4.028  11.129  0.00  0.00    +0.000 A 
ATOM      4  C   UNL     1      43.007   4.790  11.782  0.00  0.00    +0.000 A 
ATOM      5  C   UNL     1      43.332   5.357  13.002  0.00  0.00    +0.000 A 
ATOM      6  N   UNL     1      44.542   5.252  13.578  0.00  0.00    +0.000 NA
ENDROOT
BRANCH   1   7
ATOM      7  C   UNL     1      46.891   4.561  13.485  0.00  0.00    +0.000 C 
BRANCH   7   9
ATOM      8  C   UNL     1      47.328   4.073  15.821  0.00  0.00    +0.000 C 
ATOM      9  N   UNL     1      47.145   3.508  14.487  0.00  0.00    +0.000 NA
ATOM     10  H   UNL     1      46.338   2.889  14.504  0.00  0.00    +0.000 HD
ENDBRANCH   7   9
ENDBRANCH   1   7
BRANCH   3  11
ATOM     11  O   UNL     1      43.807   3.391   9.925  0.00  0.00    +0.000 OA
BRANCH  11  12
ATOM     12  C   UNL     1      44.504   3.966   8.816  0.00  0.00    +0.000 C 
BRANCH  12  13
ATOM     13  C   UNL     1      45.444   2.982   8.158  0.00  0.00    +0.000 A 
ATOM     14  C   UNL     1      45.670   1.695   8.659  0.00  0.00    +0.000 A 
ATOM     15  C   UNL     1      46.485   0.800   7.961  0.00  0.00    +0.000 A 
ATOM     16  C   UNL     1      47.098   1.189   6.770  0.00  0.00    +0.000 A 
ATOM     17  C   UNL     1      46.925   2.485   6.278  0.00  0.00    +0.000 A 
ATOM     18  C   UNL     1      47.607   2.936   5.021  0.00  0.00    +0.000 C 
ATOM     19  C   UNL     1      46.105   3.376   6.983  0.00  0.00    +0.000 A 
ENDBRANCH  12  13
ENDBRANCH  11  12
ENDBRANCH   3  11
TORSDOF 5
ENDMDL
MODEL 2
REMARK VINA RESULT:    -7.205      2.021      3.008
REMARK INTER + INTRA:          -9.828
REMARK INTER:                  -9.172
REMARK INTRA:                  -0.656
REMARK UNBOUND:                -0.517
REMARK  Name = 
REMARK  7 active torsions:
REMARK  status: ('A' for Active; 'I' for Inactive)
REMARK    1  A    between atoms: C_1  and  N_2
REMARK    2  A    between atoms: N_2  and  C_3
REMARK    3  A    between atoms: C_3  and  C_4
REMARK    4  A    between atoms: C_6  and  O_7
REMARK    5  A    between atoms: O_7  and  C_8
REMARK    6  A    between atoms: C_8  and  C_9
REMARK    7  A    between atoms: C_13  and  C_14
REMARK                            x       y       z     vdW  Elec       q    Type
REMARK                         _______ _______ _______ _____ _____    ______ ____
ROOT
ATOM      1  C   UNL     1      47.319   5.892  12.804  0.00  0.00    +0.000 A 
ATOM      2  C   UNL     1      46.318   5.870  11.836  0.00  0.00    +0.000 A 
ATOM      3  C   UNL     1      45.431   4.801  11.808  0.00  0.00    +0.000 A 
ATOM      4  C   UNL     1      45.568   3.790  12.754  0.00  0.00    +0.000 A 
ATOM      5  C   UNL     1      46.613   3.872  13.657  0.00  0.00    +0.000 A 
ATOM      6  N   UNL     1      47.483   4.895  13.705  0.00  0.00    +0.000 NA
ENDROOT
BRANCH   1   7
ATOM      7  C   UNL     1      48.195   7.120  12.966  0.00  0.00    +0.000 C 
BRANCH   7   9
ATOM      8  C   UNL     1      50.154   7.722  11.668  0.00  0.00    +0.000 C 
ATOM      9  N   UNL     1      49.628   6.866  12.727  0.00  0.00    +0.000 NA
ATOM     10  H   UNL     1      50.130   7.069  13.589  0.00  0.00    +0.000 HD
ENDBRANCH   7   9
ENDBRANCH   1   7
BRANCH   3  11
ATOM     11  O   UNL     1      44.462   4.865  10.839  0.00  0.00    +0.000 OA
BRANCH  11  12
ATOM     12  C   UNL     1      44.141   3.630  10.195  0.00  0.00    +0.000 C 
BRANCH  12  13
ATOM     13  C   UNL     1      45.097   3.304   9.071  0.00  0.00    +0.000 A 
ATOM     14  C   UNL     1      45.668   4.283   8.249  0.00  0.00    +0.000 A 
ATOM     15  C   UNL     1      46.610   3.929   7.281  0.00  0.00    +0.000 A 
ATOM     16  C   UNL     1      46.975   2.594   7.109  0.00  0.00    +0.000 A 
ATOM     17  C   UNL     1      46.382   1.595   7.886  0.00  0.00    +0.000 A 
ATOM     18  C   UNL     1      46.731   0.150   7.689  0.00  0.00    +0.000 C 
ATOM     19  C   UNL     1      45.439   1.958   8.856  0.00  0.00    +0.000 A 
ENDBRANCH  12  13
ENDBRANCH  11  12
ENDBRANCH   3  11
TORSDOF 5
ENDMDL
MODEL 3
REMARK VINA RESULT:    -7.137      1.446      2.138
REMARK INTER + INTRA:          -9.740
REMARK INTER:                  -9.243
REMARK INTRA:                  -0.497
REMARK UNBOUND:                -0.517
REMARK  Name = 
REMARK  7 active torsions:
REMARK  status: ('A' for Active; 'I' for Inactive)
REMARK    1  A    between atoms: C_1  and  N_2
REMARK    2  A    between atoms: N_2  and  C_3
REMARK    3  A    between atoms: C_3  and  C_4
REMARK    4  A    between atoms: C_6  and  O_7
REMARK    5  A    between atoms: O_7  and  C_8
REMARK    6  A    between atoms: C_8  and  C_9
REMARK    7  A    between atoms: C_13  and  C_14
REMARK                            x       y       z     vdW  Elec       q    Type
REMARK                         _______ _______ _______ _____ _____    ______ ____
ROOT
ATOM      1  C   UNL     1      46.025   5.206  13.276  0.00  0.00    +0.000 A 
ATOM      2  C   UNL     1      45.196   4.643  12.309  0.00  0.00    +0.000 A 
ATOM      3  C   UNL     1      44.717   5.445  11.280  0.00  0.00    +0.000 A 
ATOM      4  C   UNL     1      45.090   6.785  11.245  0.00  0.00    +0.000 A 
ATOM      5  C   UNL     1      45.888   7.273  12.266  0.00  0.00    +0.000 A 
ATOM      6  N   UNL     1      46.363   6.517  13.271  0.00  0.00    +0.000 NA
ENDROOT
BRANCH   1   7
ATOM      7  C   UNL     1      46.695   4.324  14.312  0.00  0.00    +0.000 C 
BRANCH   7   9
ATOM      8  C   UNL     1      47.618   4.384  16.555  0.00  0.00    +0.000 C 
ATOM      9  N   UNL     1      47.544   5.064  15.265  0.00  0.00    +0.000 NA
ATOM     10  H   UNL     1      48.481   5.120  14.873  0.00  0.00    +0.000 HD
ENDBRANCH   7   9
ENDBRANCH   1   7
BRANCH   3  11
ATOM     11  O   UNL     1      43.925   4.810  10.358  0.00  0.00    +0.000 OA
BRANCH  11  12
ATOM     12  C   UNL     1      44.156   3.409  10.197  0.00  0.00    +0.000 C 
BRANCH  12  13
ATOM     13  C   UNL     1      45.085   3.110   9.043  0.00  0.00    +0.000 A 
ATOM     14  C   UNL     1      45.584   4.102   8.191  0.00  0.00    +0.000 A 
ATOM     15  C   UNL     1      46.505   3.777   7.193  0.00  0.00    +0.000 A 
ATOM     16  C   UNL     1      46.920   2.457   7.023  0.00  0.00    +0.000 A 
ATOM     17  C   UNL     1      46.399   1.442   7.830  0.00  0.00    +0.000 A 
ATOM     18  C   UNL     1      46.802   0.011   7.637  0.00  0.00    +0.000 C 
ATOM     19  C   UNL     1      45.476   1.777   8.830  0.00  0.00    +0.000 A 
ENDBRANCH  12  13
ENDBRANCH  11  12
ENDBRANCH   3  11
TORSDOF 5
ENDMDL
MODEL 4
REMARK VINA RESULT:    -7.004      1.462      1.643
REMARK INTER + INTRA:          -9.568
REMARK INTER:                  -9.084
REMARK INTRA:                  -0.484
REMARK UNBOUND:                -0.517
REMARK  Name = 
REMARK  7 active torsions:
REMARK  status: ('A' for Active; 'I' for Inactive)
REMARK    1  A    between atoms: C_1  and  N_2
REMARK    2  A    between atoms: N_2  and  C_3
REMARK    3  A    between atoms: C_3  and  C_4
REMARK    4  A    between atoms: C_6  and  O_7
REMARK    5  A    between atoms: O_7  and  C_8
REMARK    6  A    between atoms: C_8  and  C_9
REMARK    7  A    between atoms: C_13  and  C_14
REMARK                            x       y       z     vdW  Elec       q    Type
REMARK                         _______ _______ _______ _____ _____    ______ ____
ROOT
ATOM      1  C   UNL     1      45.414   5.596  12.298  0.00  0.00    +0.000 A 
ATOM      2  C   UNL     1      45.211   4.956  11.077  0.00  0.00    +0.000 A 
ATOM      3  C   UNL     1      43.965   4.405  10.803  0.00  0.00    +0.000 A 
ATOM      4  C   UNL     1      42.957   4.519  11.755  0.00  0.00    +0.000 A 
ATOM      5  C   UNL     1      43.253   5.139  12.956  0.00  0.00    +0.000 A 
ATOM      6  N   UNL     1      44.450   5.679  13.245  0.00  0.00    +0.000 NA
ENDROOT
BRANCH   1   7
ATOM      7  C   UNL     1      46.705   6.348  12.559  0.00  0.00    +0.000 C 
BRANCH   7   9
ATOM      8  C   UNL     1      47.559   8.418  13.492  0.00  0.00    +0.000 C 
ATOM      9  N   UNL     1      46.616   7.318  13.667  0.00  0.00    +0.000 NA
ATOM     10  H   UNL     1      45.672   7.697  13.677  0.00  0.00    +0.000 HD
ENDBRANCH   7   9
ENDBRANCH   1   7
BRANCH   3  11
ATOM     11  O   UNL     1      43.842   3.812   9.572  0.00  0.00    +0.000 OA
BRANCH  11  12
ATOM     12  C   UNL     1      44.766   4.250   8.573  0.00  0.00    +0.000 C 
BRANCH  12  13
ATOM     13  C   UNL     1      45.607   3.115   8.035  0.00  0.00    +0.000 A 
ATOM     14  C   UNL     1      45.657   1.853   8.638  0.00  0.00    +0.000 A 
ATOM     15  C   UNL     1      46.387   0.819   8.048  0.00  0.00    +0.000 A 
ATOM     16  C   UNL     1      47.089   1.040   6.863  0.00  0.00    +0.000 A 
ATOM     17  C   UNL     1      47.093   2.305   6.270  0.00  0.00    +0.000 A 
ATOM     18  C   UNL     1      47.874   2.574   5.019  0.00  0.00    +0.000 C 
ATOM     19  C   UNL     1      46.357   3.337   6.868  0.00  0.00    +0.000 A 
ENDBRANCH  12  13
ENDBRANCH  11  12
ENDBRANCH   3  11
TORSDOF 5
ENDMDL
MODEL 5
REMARK VINA RESULT:    -6.699      1.688      2.463
REMARK INTER + INTRA:          -9.174
REMARK INTER:                  -9.177
REMARK INTRA:                   0.003
REMARK UNBOUND:                -0.517
REMARK  Name = 
REMARK  7 active torsions:
REMARK  status: ('A' for Active; 'I' for Inactive)
REMARK    1  A    between atoms: C_1  and  N_2
REMARK    2  A    between atoms: N_2  and  C_3
REMARK    3  A    between atoms: C_3  and  C_4
REMARK    4  A    between atoms: C_6  and  O_7
REMARK    5  A    between atoms: O_7  and  C_8
REMARK    6  A    between atoms: C_8  and  C_9
REMARK    7  A    between atoms: C_13  and  C_14
REMARK                            x       y       z     vdW  Elec       q    Type
REMARK                         _______ _______ _______ _____ _____    ______ ____
ROOT
ATOM      1  C   UNL     1      44.467   5.130  12.475  0.00  0.00    +0.000 A 
ATOM      2  C   UNL     1      44.587   4.996  11.094  0.00  0.00    +0.000 A 
ATOM      3  C   UNL     1      45.652   5.610  10.446  0.00  0.00    +0.000 A 
ATOM      4  C   UNL     1      46.570   6.332  11.202  0.00  0.00    +0.000 A 
ATOM      5  C   UNL     1      46.356   6.446  12.564  0.00  0.00    +0.000 A 
ATOM      6  N   UNL     1      45.334   5.862  13.214  0.00  0.00    +0.000 NA
ENDROOT
BRANCH   1   7
ATOM      7  C   UNL     1      43.415   4.339  13.229  0.00  0.00    +0.000 C 
BRANCH   7   9
ATOM      8  C   UNL     1      43.256   2.434  11.735  0.00  0.00    +0.000 C 
ATOM      9  N   UNL     1      43.557   2.877  13.093  0.00  0.00    +0.000 NA
ATOM     10  H   UNL     1      44.522   2.635  13.308  0.00  0.00    +0.000 HD
ENDBRANCH   7   9
ENDBRANCH   1   7
BRANCH   3  11
ATOM     11  O   UNL     1      45.710   5.412   9.090  0.00  0.00    +0.000 OA
BRANCH  11  12
ATOM     12  C   UNL     1      44.876   4.371   8.575  0.00  0.00    +0.000 C 
BRANCH  12  13
ATOM     13  C   UNL     1      45.677   3.206   8.042  0.00  0.00    +0.000 A 
ATOM     14  C   UNL     1      45.678   1.944   8.645  0.00  0.00    +0.000 A 
ATOM     15  C   UNL     1      46.372   0.883   8.059  0.00  0.00    +0.000 A 
ATOM     16  C   UNL     1      47.087   1.077   6.877  0.00  0.00    +0.000 A 
ATOM     17  C   UNL     1      47.139   2.341   6.284  0.00  0.00    +0.000 A 
ATOM     18  C   UNL     1      47.935   2.580   5.036  0.00  0.00    +0.000 C 
ATOM     19  C   UNL     1      46.439   3.400   6.877  0.00  0.00    +0.000 A 
ENDBRANCH  12  13
ENDBRANCH  11  12
ENDBRANCH   3  11
TORSDOF 5
ENDMDL
MODEL 6
REMARK VINA RESULT:    -5.873      3.465      6.274
REMARK INTER + INTRA:          -8.106
REMARK INTER:                  -7.548
REMARK INTRA:                  -0.558
REMARK UNBOUND:                -0.517
REMARK  Name = 
REMARK  7 active torsions:
REMARK  status: ('A' for Active; 'I' for Inactive)
REMARK    1  A    between atoms: C_1  and  N_2
REMARK    2  A    between atoms: N_2  and  C_3
REMARK    3  A    between atoms: C_3  and  C_4
REMARK    4  A    between atoms: C_6  and  O_7
REMARK    5  A    between atoms: O_7  and  C_8
REMARK    6  A    between atoms: C_8  and  C_9
REMARK    7  A    between atoms: C_13  and  C_14
REMARK                            x       y       z     vdW  Elec       q    Type
REMARK                         _______ _______ _______ _____ _____    ______ ____
ROOT
ATOM      1  C   UNL     1      44.174   4.043   9.909  0.00  0.00    +0.000 A 
ATOM      2  C   UNL     1      44.542   5.102  10.735  0.00  0.00    +0.000 A 
ATOM      3  C   UNL     1      44.356   4.983  12.107  0.00  0.00    +0.000 A 
ATOM      4  C   UNL     1      43.815   3.805  12.611  0.00  0.00    +0.000 A 
ATOM      5  C   UNL     1      43.443   2.816  11.717  0.00  0.00    +0.000 A 
ATOM      6  N   UNL     1      43.612   2.907  10.386  0.00  0.00    +0.000 NA
ENDROOT
BRANCH   1   7
ATOM      7  C   UNL     1      44.517   4.075   8.431  0.00  0.00    +0.000 C 
BRANCH   7   9
ATOM      8  C   UNL     1      46.590   3.316   7.426  0.00  0.00    +0.000 C 
ATOM      9  N   UNL     1      45.930   4.396   8.153  0.00  0.00    +0.000 NA
ATOM     10  H   UNL     1      45.953   5.236   7.580  0.00  0.00    +0.000 HD
ENDBRANCH   7   9
ENDBRANCH   1   7
BRANCH   3  11
ATOM     11  O   UNL     1      44.764   6.060  12.852  0.00  0.00    +0.000 OA
BRANCH  11  12
ATOM     12  C   UNL     1      46.138   6.061  13.247  0.00  0.00    +0.000 C 
BRANCH  12  13
ATOM     13  C   UNL     1      46.890   7.252  12.699  0.00  0.00    +0.000 A 
ATOM     14  C   UNL     1      46.361   8.547  12.688  0.00  0.00    +0.000 A 
ATOM     15  C   UNL     1      47.135   9.621  12.245  0.00  0.00    +0.000 A 
ATOM     16  C   UNL     1      48.437   9.410  11.791  0.00  0.00    +0.000 A 
ATOM     17  C   UNL     1      48.969   8.119  11.748  0.00  0.00    +0.000 A 
ATOM     18  C   UNL     1      50.351   7.865  11.225  0.00  0.00    +0.000 C 
ATOM     19  C   UNL     1      48.186   7.047  12.195  0.00  0.00    +0.000 A 
ENDBRANCH  12  13
ENDBRANCH  11  12
ENDBRANCH   3  11
TORSDOF 5
ENDMDL
MODEL 7
REMARK VINA RESULT:    -5.810      2.364      3.231
REMARK INTER + INTRA:          -8.024
REMARK INTER:                  -7.482
REMARK INTRA:                  -0.542
REMARK UNBOUND:                -0.517
REMARK  Name = 
REMARK  7 active torsions:
REMARK  status: ('A' for Active; 'I' for Inactive)
REMARK    1  A    between atoms: C_1  and  N_2
REMARK    2  A    between atoms: N_2  and  C_3
REMARK    3  A    between atoms: C_3  and  C_4
REMARK    4  A    between atoms: C_6  and  O_7
REMARK    5  A    between atoms: O_7  and  C_8
REMARK    6  A    between atoms: C_8  and  C_9
REMARK    7  A    between atoms: C_13  and  C_14
REMARK                            x       y       z     vdW  Elec       q    Type
REMARK                         _______ _______ _______ _____ _____    ______ ____
ROOT
ATOM      1  C   UNL     1      47.939   6.303  13.725  0.00  0.00    +0.000 A 
ATOM      2  C   UNL     1      46.925   6.517  12.796  0.00  0.00    +0.000 A 
ATOM      3  C   UNL     1      45.838   5.651  12.773  0.00  0.00    +0.000 A 
ATOM      4  C   UNL     1      45.796   4.603  13.687  0.00  0.00    +0.000 A 
ATOM      5  C   UNL     1      46.864   4.441  14.552  0.00  0.00    +0.000 A 
ATOM      6  N   UNL     1      47.926   5.265  14.594  0.00  0.00    +0.000 NA
ENDROOT
BRANCH   1   7
ATOM      7  C   UNL     1      49.052   7.322  13.886  0.00  0.00    +0.000 C 
BRANCH   7   9
ATOM      8  C   UNL     1      48.596   8.703  15.828  0.00  0.00    +0.000 C 
ATOM      9  N   UNL     1      49.400   7.609  15.291  0.00  0.00    +0.000 NA
ATOM     10  H   UNL     1      49.213   6.771  15.837  0.00  0.00    +0.000 HD
ENDBRANCH   7   9
ENDBRANCH   1   7
BRANCH   3  11
ATOM     11  O   UNL     1      44.872   5.942  11.844  0.00  0.00    +0.000 OA
BRANCH  11  12
ATOM     12  C   UNL     1      45.316   6.021  10.487  0.00  0.00    +0.000 C 
BRANCH  12  13
ATOM     13  C   UNL     1      45.250   4.684   9.784  0.00  0.00    +0.000 A 
ATOM     14  C   UNL     1      44.563   3.583  10.307  0.00  0.00    +0.000 A 
ATOM     15  C   UNL     1      44.466   2.399   9.573  0.00  0.00    +0.000 A 
ATOM     16  C   UNL     1      45.072   2.296   8.320  0.00  0.00    +0.000 A 
ATOM     17  C   UNL     1      45.804   3.367   7.800  0.00  0.00    +0.000 A 
ATOM     18  C   UNL     1      46.495   3.264   6.474  0.00  0.00    +0.000 C 
ATOM     19  C   UNL     1      45.895   4.552   8.542  0.00  0.00    +0.000 A 
ENDBRANCH  12  13
ENDBRANCH  11  12
ENDBRANCH   3  11
TORSDOF 5
ENDMDL
MODEL 8
REMARK VINA RESULT:    -5.563      3.692      7.775
REMARK INTER + INTRA:          -7.706
REMARK INTER:                  -7.196
REMARK INTRA:                  -0.510
REMARK UNBOUND:                -0.517
REMARK  Name = 
REMARK  7 active torsions:
REMARK  status: ('A' for Active; 'I' for Inactive)
REMARK    1  A    between atoms: C_1  and  N_2
REMARK    2  A    between atoms: N_2  and  C_3
REMARK    3  A    between atoms: C_3  and  C_4
REMARK    4  A    between atoms: C_6  and  O_7
REMARK    5  A    between atoms: O_7  and  C_8
REMARK    6  A    between atoms: C_8  and  C_9
REMARK    7  A    between atoms: C_13  and  C_14
REMARK                            x       y       z     vdW  Elec       q    Type
REMARK                         _______ _______ _______ _____ _____    ______ ____
ROOT
ATOM      1  C   UNL     1      45.410   4.790  11.779  0.00  0.00    +0.000 A 
ATOM      2  C   UNL     1      45.758   3.940  12.825  0.00  0.00    +0.000 A 
ATOM      3  C   UNL     1      46.654   4.387  13.789  0.00  0.00    +0.000 A 
ATOM      4  C   UNL     1      47.167   5.676  13.681  0.00  0.00    +0.000 A 
ATOM      5  C   UNL     1      46.796   6.442  12.591  0.00  0.00    +0.000 A 
ATOM      6  N   UNL     1      45.933   6.032  11.645  0.00  0.00    +0.000 NA
ENDROOT
BRANCH   1   7
ATOM      7  C   UNL     1      44.314   4.394  10.808  0.00  0.00    +0.000 C 
BRANCH   7   9
ATOM      8  C   UNL     1      42.375   5.427  11.837  0.00  0.00    +0.000 C 
ATOM      9  N   UNL     1      43.004   4.168  11.448  0.00  0.00    +0.000 NA
ATOM     10  H   UNL     1      42.403   3.700  10.774  0.00  0.00    +0.000 HD
ENDBRANCH   7   9
ENDBRANCH   1   7
BRANCH   3  11
ATOM     11  O   UNL     1      46.928   3.498  14.797  0.00  0.00    +0.000 OA
BRANCH  11  12
ATOM     12  C   UNL     1      47.083   4.061  16.101  0.00  0.00    +0.000 C 
BRANCH  12  13
ATOM     13  C   UNL     1      48.448   3.780  16.688  0.00  0.00    +0.000 A 
ATOM     14  C   UNL     1      48.961   2.487  16.835  0.00  0.00    +0.000 A 
ATOM     15  C   UNL     1      50.261   2.294  17.306  0.00  0.00    +0.000 A 
ATOM     16  C   UNL     1      51.053   3.388  17.654  0.00  0.00    +0.000 A 
ATOM     17  C   UNL     1      50.544   4.686  17.561  0.00  0.00    +0.000 A 
ATOM     18  C   UNL     1      51.364   5.873  17.968  0.00  0.00    +0.000 C 
ATOM     19  C   UNL     1      49.239   4.871  17.087  0.00  0.00    +0.000 A 
ENDBRANCH  12  13
ENDBRANCH  11  12
ENDBRANCH   3  11
TORSDOF 5
ENDMDL
MODEL 9
REMARK VINA RESULT:    -5.403      4.128      7.934
REMARK INTER + INTRA:          -7.499
REMARK INTER:                  -6.980
REMARK INTRA:                  -0.519
REMARK UNBOUND:                -0.517
REMARK  Name = 
REMARK  7 active torsions:
REMARK  status: ('A' for Active; 'I' for Inactive)
REMARK    1  A    between atoms: C_1  and  N_2
REMARK    2  A    between atoms: N_2  and  C_3
REMARK    3  A    between atoms: C_3  and  C_4
REMARK    4  A    between atoms: C_6  and  O_7
REMARK    5  A    between atoms: O_7  and  C_8
REMARK    6  A    between atoms: C_8  and  C_9
REMARK    7  A    between atoms: C_13  and  C_14
REMARK                            x       y       z     vdW  Elec       q    Type
REMARK                         _______ _______ _______ _____ _____    ______ ____
ROOT
ATOM      1  C   UNL     1      44.532   5.558  12.697  0.00  0.00    +0.000 A 
ATOM      2  C   UNL     1      45.651   5.078  13.373  0.00  0.00    +0.000 A 
ATOM      3  C   UNL     1      46.850   5.774  13.271  0.00  0.00    +0.000 A 
ATOM      4  C   UNL     1      46.890   6.934  12.505  0.00  0.00    +0.000 A 
ATOM      5  C   UNL     1      45.742   7.320  11.837  0.00  0.00    +0.000 A 
ATOM      6  N   UNL     1      44.571   6.665  11.918  0.00  0.00    +0.000 NA
ENDROOT
BRANCH   1   7
ATOM      7  C   UNL     1      43.175   4.917  12.920  0.00  0.00    +0.000 C 
BRANCH   7   9
ATOM      8  C   UNL     1      43.364   2.989  11.461  0.00  0.00    +0.000 C 
ATOM      9  N   UNL     1      42.640   4.227  11.731  0.00  0.00    +0.000 NA
ATOM     10  H   UNL     1      41.665   4.000  11.914  0.00  0.00    +0.000 HD
ENDBRANCH   7   9
ENDBRANCH   1   7
BRANCH   3  11
ATOM     11  O   UNL     1      47.898   5.248  13.983  0.00  0.00    +0.000 OA
BRANCH  11  12
ATOM     12  C   UNL     1      48.212   5.909  15.212  0.00  0.00    +0.000 C 
BRANCH  12  13
ATOM     13  C   UNL     1      48.192   4.964  16.392  0.00  0.00    +0.000 A 
ATOM     14  C   UNL     1      47.531   3.732  16.368  0.00  0.00    +0.000 A 
ATOM     15  C   UNL     1      47.618   2.864  17.459  0.00  0.00    +0.000 A 
ATOM     16  C   UNL     1      48.348   3.227  18.591  0.00  0.00    +0.000 A 
ATOM     17  C   UNL     1      48.977   4.474  18.655  0.00  0.00    +0.000 A 
ATOM     18  C   UNL     1      49.733   4.900  19.877  0.00  0.00    +0.000 C 
ATOM     19  C   UNL     1      48.885   5.338  17.556  0.00  0.00    +0.000 A 
ENDBRANCH  12  13
ENDBRANCH  11  12
ENDBRANCH   3  11
TORSDOF 5
ENDMDL
