MODEL 1
REMARK VINA RESULT:    -8.297      0.000      0.000
REMARK INTER + INTRA:         -11.786
REMARK INTER:                 -10.964
REMARK INTRA:                  -0.821
REMARK UNBOUND:                -0.821
REMARK  Name = 
REMARK  7 active torsions:
REMARK  status: ('A' for Active; 'I' for Inactive)
REMARK    1  A    between atoms: C_1  and  C_2
REMARK    2  A    between atoms: C_4  and  C_5
REMARK    3  A    between atoms: N_10  and  C_11
REMARK    4  A    between atoms: C_11  and  C_12
REMARK    5  A    between atoms: C_17  and  C_18
REMARK    6  A    between atoms: C_22  and  C_23
REMARK    7  A    between atoms: C_23  and  N_24
REMARK                            x       y       z     vdW  Elec       q    Type
REMARK                         _______ _______ _______ _____ _____    ______ ____
ROOT
ATOM      1  C   UNL     1      47.472   6.990  13.628  0.00  0.00    +0.000 A 
ATOM      2  C   UNL     1      46.985   8.299  13.552  0.00  0.00    +0.000 A 
ATOM      3  C   UNL     1      45.927   8.595  12.695  0.00  0.00    +0.000 A 
ATOM      4  C   UNL     1      45.352   7.589  11.916  0.00  0.00    +0.000 A 
ATOM      5  F   UNL     1      44.357   7.948  11.089  0.00  0.00    +0.000 F 
ATOM      6  C   UNL     1      45.795   6.258  11.969  0.00  0.00    +0.000 A 
ATOM      7  C   UNL     1      46.859   5.991  12.851  0.00  0.00    +0.000 A 
ENDROOT
BRANCH   6   8
ATOM      8  C   UNL     1      45.199   5.172  11.152  0.00  0.00    +0.000 A 
ATOM      9  C   UNL     1      44.226   4.306  11.661  0.00  0.00    +0.000 A 
ATOM     10  C   UNL     1      43.704   3.311  10.850  0.00  0.00    +0.000 A 
ATOM     11  N   UNL     1      44.083   3.100   9.575  0.00  0.00    +0.000 NA
ATOM     12  C   UNL     1      45.032   3.920   9.068  0.00  0.00    +0.000 A 
ATOM     13  C   UNL     1      45.600   4.949   9.821  0.00  0.00    +0.000 A 
BRANCH  12  14
ATOM     14  C   UNL     1      45.510   3.621   7.660  0.00  0.00    +0.000 C 
BRANCH  14  15
ATOM     15  N   UNL     1      46.718   4.354   7.250  0.00  0.00    +0.000 NA
ATOM     16  H   UNL     1      46.665   5.288   7.657  0.00  0.00    +0.000 HD
ATOM     17  H   UNL     1      46.674   4.493   6.241  0.00  0.00    +0.000 HD
ENDBRANCH  14  15
ENDBRANCH  12  14
ENDBRANCH   6   8
BRANCH   1  18
ATOM     18  C   UNL     1      48.637   6.639  14.519  0.00  0.00    +0.000 C 
BRANCH  18  25
ATOM     19  C   UNL     1      48.037   5.494  20.433  0.00  0.00    +0.000 C 
ATOM     20  C   UNL     1      48.368   5.107  19.024  0.00  0.00    +0.000 A 
ATOM     21  C   UNL     1      48.912   3.882  18.732  0.00  0.00    +0.000 A 
ATOM     22  C   UNL     1      49.231   3.686  17.409  0.00  0.00    +0.000 A 
ATOM     23  N   UNL     1      49.074   4.614  16.436  0.00  0.00    +0.000 NA
ATOM     24  C   UNL     1      48.513   5.766  16.811  0.00  0.00    +0.000 A 
ATOM     25  N   UNL     1      48.316   6.784  15.913  0.00  0.00    +0.000 N 
ATOM     26  N   UNL     1      48.134   6.033  18.069  0.00  0.00    +0.000 NA
ATOM     27  H   UNL     1      47.514   7.341  16.173  0.00  0.00    +0.000 HD
BRANCH  22  28
ATOM     28  C   UNL     1      49.777   2.361  16.983  0.00  0.00    +0.000 C 
ATOM     29  N   UNL     1      50.823   1.881  17.728  0.00  0.00    +0.000 N 
ATOM     30  O   UNL     1      49.332   1.741  16.025  0.00  0.00    +0.000 OA
ATOM     31  H   UNL     1      51.155   2.402  18.529  0.00  0.00    +0.000 HD
ATOM     32  H   UNL     1      51.260   1.005  17.478  0.00  0.00    +0.000 HD
ENDBRANCH  22  28
ENDBRANCH  18  25
ENDBRANCH   1  18
TORSDOF 6
ENDMDL
MODEL 2
REMARK VINA RESULT:    -8.129      1.245      1.283
REMARK INTER + INTRA:         -11.565
REMARK INTER:                 -10.600
REMARK INTRA:                  -0.965
REMARK UNBOUND:                -0.821
REMARK  Name = 
REMARK  7 active torsions:
REMARK  status: ('A' for Active; 'I' for Inactive)
REMARK    1  A    between atoms: C_1  and  C_2
REMARK    2  A    between atoms: C_4  and  C_5
REMARK    3  A    between atoms: N_10  and  C_11
REMARK    4  A    between atoms: C_11  and  C_12
REMARK    5  A    between atoms: C_17  and  C_18
REMARK    6  A    between atoms: C_22  and  C_23
REMARK    7  A    between atoms: C_23  and  N_24
REMARK                            x       y       z     vdW  Elec       q    Type
REMARK                         _______ _______ _______ _____ _____    ______ ____
ROOT
ATOM      1  C   UNL     1      47.640   7.378  13.044  0.00  0.00    +0.000 A 
ATOM      2  C   UNL     1      46.910   8.561  13.194  0.00  0.00    +0.000 A 
ATOM      3  C   UNL     1      45.648   8.674  12.615  0.00  0.00    +0.000 A 
ATOM      4  C   UNL     1      45.112   7.609  11.887  0.00  0.00    +0.000 A 
ATOM      5  F   UNL     1      43.906   7.795  11.329  0.00  0.00    +0.000 F 
ATOM      6  C   UNL     1      45.800   6.397  11.722  0.00  0.00    +0.000 A 
ATOM      7  C   UNL     1      47.068   6.313  12.327  0.00  0.00    +0.000 A 
ENDROOT
BRANCH   6   8
ATOM      8  C   UNL     1      45.250   5.251  10.955  0.00  0.00    +0.000 A 
ATOM      9  C   UNL     1      44.324   4.361  11.508  0.00  0.00    +0.000 A 
ATOM     10  C   UNL     1      43.844   3.311  10.743  0.00  0.00    +0.000 A 
ATOM     11  N   UNL     1      44.223   3.065   9.473  0.00  0.00    +0.000 NA
ATOM     12  C   UNL     1      45.129   3.909   8.925  0.00  0.00    +0.000 A 
ATOM     13  C   UNL     1      45.652   4.993   9.631  0.00  0.00    +0.000 A 
BRANCH  12  14
ATOM     14  C   UNL     1      45.610   3.575   7.526  0.00  0.00    +0.000 C 
BRANCH  14  15
ATOM     15  N   UNL     1      46.811   4.308   7.096  0.00  0.00    +0.000 NA
ATOM     16  H   UNL     1      47.518   4.197   7.823  0.00  0.00    +0.000 HD
ATOM     17  H   UNL     1      46.585   5.302   7.085  0.00  0.00    +0.000 HD
ENDBRANCH  14  15
ENDBRANCH  12  14
ENDBRANCH   6   8
BRANCH   1  18
ATOM     18  C   UNL     1      49.023   7.233  13.630  0.00  0.00    +0.000 C 
BRANCH  18  25
ATOM     19  C   UNL     1      48.829   7.083  19.678  0.00  0.00    +0.000 C 
ATOM     20  C   UNL     1      48.645   6.478  18.320  0.00  0.00    +0.000 A 
ATOM     21  C   UNL     1      48.328   5.152  18.170  0.00  0.00    +0.000 A 
ATOM     22  C   UNL     1      48.257   4.713  16.868  0.00  0.00    +0.000 A 
ATOM     23  N   UNL     1      48.511   5.483  15.784  0.00  0.00    +0.000 NA
ATOM     24  C   UNL     1      48.788   6.766  16.029  0.00  0.00    +0.000 A 
ATOM     25  N   UNL     1      49.073   7.637  15.009  0.00  0.00    +0.000 N 
ATOM     26  N   UNL     1      48.839   7.293  17.261  0.00  0.00    +0.000 NA
ATOM     27  H   UNL     1      48.794   8.577  15.251  0.00  0.00    +0.000 HD
BRANCH  22  28
ATOM     28  C   UNL     1      47.861   3.296  16.601  0.00  0.00    +0.000 C 
ATOM     29  N   UNL     1      46.959   2.755  17.479  0.00  0.00    +0.000 N 
ATOM     30  O   UNL     1      48.316   2.649  15.666  0.00  0.00    +0.000 OA
ATOM     31  H   UNL     1      46.580   3.320  18.228  0.00  0.00    +0.000 HD
ATOM     32  H   UNL     1      46.668   1.793  17.375  0.00  0.00    +0.000 HD
ENDBRANCH  22  28
ENDBRANCH  18  25
ENDBRANCH   1  18
TORSDOF 6
ENDMDL
MODEL 3
REMARK VINA RESULT:    -7.265      2.502      3.667
REMARK INTER + INTRA:         -10.422
REMARK INTER:                  -9.199
REMARK INTRA:                  -1.223
REMARK UNBOUND:                -0.821
REMARK  Name = 
REMARK  7 active torsions:
REMARK  status: ('A' for Active; 'I' for Inactive)
REMARK    1  A    between atoms: C_1  and  C_2
REMARK    2  A    between atoms: C_4  and  C_5
REMARK    3  A    between atoms: N_10  and  C_11
REMARK    4  A    between atoms: C_11  and  C_12
REMARK    5  A    between atoms: C_17  and  C_18
REMARK    6  A    between atoms: C_22  and  C_23
REMARK    7  A    between atoms: C_23  and  N_24
REMARK                            x       y       z     vdW  Elec       q    Type
REMARK                         _______ _______ _______ _____ _____    ______ ____
ROOT
ATOM      1  C   UNL     1      49.833   7.669  15.050  0.00  0.00    +0.000 A 
ATOM      2  C   UNL     1      50.840   8.102  14.183  0.00  0.00    +0.000 A 
ATOM      3  C   UNL     1      50.599   8.154  12.812  0.00  0.00    +0.000 A 
ATOM      4  C   UNL     1      49.354   7.778  12.304  0.00  0.00    +0.000 A 
ATOM      5  F   UNL     1      49.197   7.823  10.971  0.00  0.00    +0.000 F 
ATOM      6  C   UNL     1      48.305   7.352  13.135  0.00  0.00    +0.000 A 
ATOM      7  C   UNL     1      48.580   7.319  14.515  0.00  0.00    +0.000 A 
ENDROOT
BRANCH   6   8
ATOM      8  C   UNL     1      46.974   6.950  12.619  0.00  0.00    +0.000 A 
ATOM      9  C   UNL     1      46.051   7.882  12.134  0.00  0.00    +0.000 A 
ATOM     10  C   UNL     1      44.823   7.446  11.662  0.00  0.00    +0.000 A 
ATOM     11  N   UNL     1      44.433   6.157  11.647  0.00  0.00    +0.000 NA
ATOM     12  C   UNL     1      45.309   5.241  12.125  0.00  0.00    +0.000 A 
ATOM     13  C   UNL     1      46.566   5.603  12.609  0.00  0.00    +0.000 A 
BRANCH  12  14
ATOM     14  C   UNL     1      44.827   3.804  12.180  0.00  0.00    +0.000 C 
BRANCH  14  15
ATOM     15  N   UNL     1      45.751   2.870  12.842  0.00  0.00    +0.000 NA
ATOM     16  H   UNL     1      45.293   1.960  12.885  0.00  0.00    +0.000 HD
ATOM     17  H   UNL     1      45.858   3.168  13.811  0.00  0.00    +0.000 HD
ENDBRANCH  14  15
ENDBRANCH  12  14
ENDBRANCH   6   8
BRANCH   1  18
ATOM     18  C   UNL     1      50.069   7.568  16.537  0.00  0.00    +0.000 C 
BRANCH  18  25
ATOM     19  C   UNL     1      52.118   2.006  17.768  0.00  0.00    +0.000 C 
ATOM     20  C   UNL     1      51.030   2.999  17.494  0.00  0.00    +0.000 A 
ATOM     21  C   UNL     1      49.728   2.600  17.330  0.00  0.00    +0.000 A 
ATOM     22  C   UNL     1      48.844   3.606  17.016  0.00  0.00    +0.000 A 
ATOM     23  N   UNL     1      49.191   4.903  16.834  0.00  0.00    +0.000 NA
ATOM     24  C   UNL     1      50.476   5.199  17.040  0.00  0.00    +0.000 A 
ATOM     25  N   UNL     1      50.944   6.477  16.873  0.00  0.00    +0.000 N 
ATOM     26  N   UNL     1      51.401   4.293  17.388  0.00  0.00    +0.000 NA
ATOM     27  H   UNL     1      51.731   6.654  17.483  0.00  0.00    +0.000 HD
BRANCH  22  28
ATOM     28  C   UNL     1      47.392   3.279  16.873  0.00  0.00    +0.000 C 
ATOM     29  N   UNL     1      46.785   3.754  15.740  0.00  0.00    +0.000 N 
ATOM     30  O   UNL     1      46.774   2.639  17.714  0.00  0.00    +0.000 OA
ATOM     31  H   UNL     1      47.324   4.260  15.050  0.00  0.00    +0.000 HD
ATOM     32  H   UNL     1      45.797   3.595  15.593  0.00  0.00    +0.000 HD
ENDBRANCH  22  28
ENDBRANCH  18  25
ENDBRANCH   1  18
TORSDOF 6
ENDMDL
MODEL 4
REMARK VINA RESULT:    -7.150      2.710      8.060
REMARK INTER + INTRA:         -10.271
REMARK INTER:                  -9.385
REMARK INTRA:                  -0.886
REMARK UNBOUND:                -0.821
REMARK  Name = 
REMARK  7 active torsions:
REMARK  status: ('A' for Active; 'I' for Inactive)
REMARK    1  A    between atoms: C_1  and  C_2
REMARK    2  A    between atoms: C_4  and  C_5
REMARK    3  A    between atoms: N_10  and  C_11
REMARK    4  A    between atoms: C_11  and  C_12
REMARK    5  A    between atoms: C_17  and  C_18
REMARK    6  A    between atoms: C_22  and  C_23
REMARK    7  A    between atoms: C_23  and  N_24
REMARK                            x       y       z     vdW  Elec       q    Type
REMARK                         _______ _______ _______ _____ _____    ______ ____
ROOT
ATOM      1  C   UNL     1      47.356   7.363  12.406  0.00  0.00    +0.000 A 
ATOM      2  C   UNL     1      48.495   7.820  11.735  0.00  0.00    +0.000 A 
ATOM      3  C   UNL     1      49.709   7.904  12.411  0.00  0.00    +0.000 A 
ATOM      4  C   UNL     1      49.793   7.533  13.755  0.00  0.00    +0.000 A 
ATOM      5  F   UNL     1      50.985   7.668  14.355  0.00  0.00    +0.000 F 
ATOM      6  C   UNL     1      48.682   7.055  14.467  0.00  0.00    +0.000 A 
ATOM      7  C   UNL     1      47.472   6.973  13.752  0.00  0.00    +0.000 A 
ENDROOT
BRANCH   6   8
ATOM      8  C   UNL     1      48.745   6.653  15.894  0.00  0.00    +0.000 A 
ATOM      9  C   UNL     1      48.799   7.590  16.930  0.00  0.00    +0.000 A 
ATOM     10  C   UNL     1      48.854   7.154  18.244  0.00  0.00    +0.000 A 
ATOM     11  N   UNL     1      48.875   5.858  18.610  0.00  0.00    +0.000 NA
ATOM     12  C   UNL     1      48.837   4.935  17.621  0.00  0.00    +0.000 A 
ATOM     13  C   UNL     1      48.772   5.298  16.274  0.00  0.00    +0.000 A 
BRANCH  12  14
ATOM     14  C   UNL     1      48.944   3.482  18.041  0.00  0.00    +0.000 C 
BRANCH  14  15
ATOM     15  N   UNL     1      48.291   3.160  19.319  0.00  0.00    +0.000 NA
ATOM     16  H   UNL     1      47.361   3.581  19.305  0.00  0.00    +0.000 HD
ATOM     17  H   UNL     1      48.797   3.643  20.061  0.00  0.00    +0.000 HD
ENDBRANCH  14  15
ENDBRANCH  12  14
ENDBRANCH   6   8
BRANCH   1  18
ATOM     18  C   UNL     1      46.017   7.290  11.715  0.00  0.00    +0.000 C 
BRANCH  18  25
ATOM     19  C   UNL     1      45.271   3.316   7.209  0.00  0.00    +0.000 C 
ATOM     20  C   UNL     1      45.125   3.769   8.630  0.00  0.00    +0.000 A 
ATOM     21  C   UNL     1      44.389   3.045   9.534  0.00  0.00    +0.000 A 
ATOM     22  C   UNL     1      44.280   3.610  10.783  0.00  0.00    +0.000 A 
ATOM     23  N   UNL     1      44.810   4.806  11.133  0.00  0.00    +0.000 NA
ATOM     24  C   UNL     1      45.530   5.425  10.194  0.00  0.00    +0.000 A 
ATOM     25  N   UNL     1      46.104   6.647  10.432  0.00  0.00    +0.000 N 
ATOM     26  N   UNL     1      45.724   4.932   8.962  0.00  0.00    +0.000 NA
ATOM     27  H   UNL     1      46.948   6.759   9.887  0.00  0.00    +0.000 HD
BRANCH  22  28
ATOM     28  C   UNL     1      43.545   2.869  11.854  0.00  0.00    +0.000 C 
ATOM     29  N   UNL     1      43.660   3.384  13.119  0.00  0.00    +0.000 N 
ATOM     30  O   UNL     1      42.889   1.861  11.627  0.00  0.00    +0.000 OA
ATOM     31  H   UNL     1      44.188   4.233  13.274  0.00  0.00    +0.000 HD
ATOM     32  H   UNL     1      43.213   2.917  13.896  0.00  0.00    +0.000 HD
ENDBRANCH  22  28
ENDBRANCH  18  25
ENDBRANCH   1  18
TORSDOF 6
ENDMDL
MODEL 5
REMARK VINA RESULT:    -6.945      2.846      5.057
REMARK INTER + INTRA:          -9.999
REMARK INTER:                  -9.308
REMARK INTRA:                  -0.692
REMARK UNBOUND:                -0.821
REMARK  Name = 
REMARK  7 active torsions:
REMARK  status: ('A' for Active; 'I' for Inactive)
REMARK    1  A    between atoms: C_1  and  C_2
REMARK    2  A    between atoms: C_4  and  C_5
REMARK    3  A    between atoms: N_10  and  C_11
REMARK    4  A    between atoms: C_11  and  C_12
REMARK    5  A    between atoms: C_17  and  C_18
REMARK    6  A    between atoms: C_22  and  C_23
REMARK    7  A    between atoms: C_23  and  N_24
REMARK                            x       y       z     vdW  Elec       q    Type
REMARK                         _______ _______ _______ _____ _____    ______ ____
ROOT
ATOM      1  C   UNL     1      44.520   5.388  11.819  0.00  0.00    +0.000 A 
ATOM      2  C   UNL     1      43.593   4.512  12.392  0.00  0.00    +0.000 A 
ATOM      3  C   UNL     1      43.334   3.285  11.786  0.00  0.00    +0.000 A 
ATOM      4  C   UNL     1      43.999   2.927  10.611  0.00  0.00    +0.000 A 
ATOM      5  F   UNL     1      43.680   1.745  10.062  0.00  0.00    +0.000 F 
ATOM      6  C   UNL     1      44.949   3.765  10.006  0.00  0.00    +0.000 A 
ATOM      7  C   UNL     1      45.194   4.994  10.649  0.00  0.00    +0.000 A 
ENDROOT
BRANCH   6   8
ATOM      8  C   UNL     1      45.670   3.407   8.760  0.00  0.00    +0.000 A 
ATOM      9  C   UNL     1      45.942   4.347   7.760  0.00  0.00    +0.000 A 
ATOM     10  C   UNL     1      46.621   3.954   6.619  0.00  0.00    +0.000 A 
ATOM     11  N   UNL     1      47.040   2.695   6.384  0.00  0.00    +0.000 NA
ATOM     12  C   UNL     1      46.775   1.768   7.334  0.00  0.00    +0.000 A 
ATOM     13  C   UNL     1      46.102   2.090   8.514  0.00  0.00    +0.000 A 
BRANCH  12  14
ATOM     14  C   UNL     1      47.177   0.340   7.022  0.00  0.00    +0.000 C 
BRANCH  14  15
ATOM     15  N   UNL     1      46.601  -0.672   7.921  0.00  0.00    +0.000 NA
ATOM     16  H   UNL     1      45.655  -0.873   7.594  0.00  0.00    +0.000 HD
ATOM     17  H   UNL     1      46.487  -0.248   8.841  0.00  0.00    +0.000 HD
ENDBRANCH  14  15
ENDBRANCH  12  14
ENDBRANCH   6   8
BRANCH   1  18
ATOM     18  C   UNL     1      44.802   6.739  12.429  0.00  0.00    +0.000 C 
BRANCH  18  25
ATOM     19  C   UNL     1      50.485   8.658  11.613  0.00  0.00    +0.000 C 
ATOM     20  C   UNL     1      49.390   8.027  12.419  0.00  0.00    +0.000 A 
ATOM     21  C   UNL     1      49.645   7.451  13.637  0.00  0.00    +0.000 A 
ATOM     22  C   UNL     1      48.563   6.849  14.236  0.00  0.00    +0.000 A 
ATOM     23  N   UNL     1      47.328   6.772  13.687  0.00  0.00    +0.000 NA
ATOM     24  C   UNL     1      47.170   7.383  12.511  0.00  0.00    +0.000 A 
ATOM     25  N   UNL     1      45.965   7.360  11.856  0.00  0.00    +0.000 N 
ATOM     26  N   UNL     1      48.155   8.029  11.871  0.00  0.00    +0.000 NA
ATOM     27  H   UNL     1      45.847   8.191  11.293  0.00  0.00    +0.000 HD
BRANCH  22  28
ATOM     28  C   UNL     1      48.728   6.243  15.593  0.00  0.00    +0.000 C 
ATOM     29  N   UNL     1      47.694   5.452  16.020  0.00  0.00    +0.000 N 
ATOM     30  O   UNL     1      49.715   6.442  16.289  0.00  0.00    +0.000 OA
ATOM     31  H   UNL     1      46.901   5.284  15.414  0.00  0.00    +0.000 HD
ATOM     32  H   UNL     1      47.725   5.034  16.940  0.00  0.00    +0.000 HD
ENDBRANCH  22  28
ENDBRANCH  18  25
ENDBRANCH   1  18
TORSDOF 6
ENDMDL
MODEL 6
REMARK VINA RESULT:    -6.868      2.336      3.448
REMARK INTER + INTRA:          -9.898
REMARK INTER:                  -9.042
REMARK INTRA:                  -0.856
REMARK UNBOUND:                -0.821
REMARK  Name = 
REMARK  7 active torsions:
REMARK  status: ('A' for Active; 'I' for Inactive)
REMARK    1  A    between atoms: C_1  and  C_2
REMARK    2  A    between atoms: C_4  and  C_5
REMARK    3  A    between atoms: N_10  and  C_11
REMARK    4  A    between atoms: C_11  and  C_12
REMARK    5  A    between atoms: C_17  and  C_18
REMARK    6  A    between atoms: C_22  and  C_23
REMARK    7  A    between atoms: C_23  and  N_24
REMARK                            x       y       z     vdW  Elec       q    Type
REMARK                         _______ _______ _______ _____ _____    ______ ____
ROOT
ATOM      1  C   UNL     1      49.043   6.856  15.336  0.00  0.00    +0.000 A 
ATOM      2  C   UNL     1      50.105   7.436  14.636  0.00  0.00    +0.000 A 
ATOM      3  C   UNL     1      49.992   7.657  13.266  0.00  0.00    +0.000 A 
ATOM      4  C   UNL     1      48.822   7.303  12.591  0.00  0.00    +0.000 A 
ATOM      5  F   UNL     1      48.790   7.515  11.266  0.00  0.00    +0.000 F 
ATOM      6  C   UNL     1      47.722   6.733  13.253  0.00  0.00    +0.000 A 
ATOM      7  C   UNL     1      47.866   6.531  14.639  0.00  0.00    +0.000 A 
ENDROOT
BRANCH   6   8
ATOM      8  C   UNL     1      46.468   6.351  12.559  0.00  0.00    +0.000 A 
ATOM      9  C   UNL     1      45.613   7.299  11.989  0.00  0.00    +0.000 A 
ATOM     10  C   UNL     1      44.456   6.882  11.351  0.00  0.00    +0.000 A 
ATOM     11  N   UNL     1      44.073   5.594  11.247  0.00  0.00    +0.000 NA
ATOM     12  C   UNL     1      44.881   4.662  11.803  0.00  0.00    +0.000 A 
ATOM     13  C   UNL     1      46.067   5.005  12.455  0.00  0.00    +0.000 A 
BRANCH  12  14
ATOM     14  C   UNL     1      44.399   3.225  11.752  0.00  0.00    +0.000 C 
BRANCH  14  15
ATOM     15  N   UNL     1      42.976   3.065  11.415  0.00  0.00    +0.000 NA
ATOM     16  H   UNL     1      42.592   2.345  12.028  0.00  0.00    +0.000 HD
ATOM     17  H   UNL     1      42.917   2.680  10.473  0.00  0.00    +0.000 HD
ENDBRANCH  14  15
ENDBRANCH  12  14
ENDBRANCH   6   8
BRANCH   1  18
ATOM     18  C   UNL     1      49.142   6.571  16.815  0.00  0.00    +0.000 C 
BRANCH  18  25
ATOM     19  C   UNL     1      54.620   4.576  18.443  0.00  0.00    +0.000 C 
ATOM     20  C   UNL     1      53.193   4.377  18.035  0.00  0.00    +0.000 A 
ATOM     21  C   UNL     1      52.696   3.125  17.773  0.00  0.00    +0.000 A 
ATOM     22  C   UNL     1      51.391   3.094  17.342  0.00  0.00    +0.000 A 
ATOM     23  N   UNL     1      50.623   4.191  17.140  0.00  0.00    +0.000 NA
ATOM     24  C   UNL     1      51.184   5.363  17.446  0.00  0.00    +0.000 A 
ATOM     25  N   UNL     1      50.506   6.541  17.270  0.00  0.00    +0.000 N 
ATOM     26  N   UNL     1      52.436   5.488  17.910  0.00  0.00    +0.000 NA
ATOM     27  H   UNL     1      50.811   7.234  17.939  0.00  0.00    +0.000 HD
BRANCH  22  28
ATOM     28  C   UNL     1      50.743   1.771  17.085  0.00  0.00    +0.000 C 
ATOM     29  N   UNL     1      51.263   0.710  17.779  0.00  0.00    +0.000 N 
ATOM     30  O   UNL     1      49.814   1.633  16.300  0.00  0.00    +0.000 OA
ATOM     31  H   UNL     1      52.014   0.856  18.440  0.00  0.00    +0.000 HD
ATOM     32  H   UNL     1      50.892  -0.219  17.633  0.00  0.00    +0.000 HD
ENDBRANCH  22  28
ENDBRANCH  18  25
ENDBRANCH   1  18
TORSDOF 6
ENDMDL
MODEL 7
REMARK VINA RESULT:    -6.654      2.144      2.926
REMARK INTER + INTRA:          -9.615
REMARK INTER:                  -8.689
REMARK INTRA:                  -0.926
REMARK UNBOUND:                -0.821
REMARK  Name = 
REMARK  7 active torsions:
REMARK  status: ('A' for Active; 'I' for Inactive)
REMARK    1  A    between atoms: C_1  and  C_2
REMARK    2  A    between atoms: C_4  and  C_5
REMARK    3  A    between atoms: N_10  and  C_11
REMARK    4  A    between atoms: C_11  and  C_12
REMARK    5  A    between atoms: C_17  and  C_18
REMARK    6  A    between atoms: C_22  and  C_23
REMARK    7  A    between atoms: C_23  and  N_24
REMARK                            x       y       z     vdW  Elec       q    Type
REMARK                         _______ _______ _______ _____ _____    ______ ____
ROOT
ATOM      1  C   UNL     1      47.238   7.963  13.281  0.00  0.00    +0.000 A 
ATOM      2  C   UNL     1      46.672   9.166  12.848  0.00  0.00    +0.000 A 
ATOM      3  C   UNL     1      45.497   9.149  12.101  0.00  0.00    +0.000 A 
ATOM      4  C   UNL     1      44.882   7.935  11.787  0.00  0.00    +0.000 A 
ATOM      5  F   UNL     1      43.769   7.988  11.038  0.00  0.00    +0.000 F 
ATOM      6  C   UNL     1      45.402   6.702  12.212  0.00  0.00    +0.000 A 
ATOM      7  C   UNL     1      46.586   6.755  12.972  0.00  0.00    +0.000 A 
ENDROOT
BRANCH   6   8
ATOM      8  C   UNL     1      44.766   5.401  11.892  0.00  0.00    +0.000 A 
ATOM      9  C   UNL     1      43.994   4.700  12.824  0.00  0.00    +0.000 A 
ATOM     10  C   UNL     1      43.423   3.489  12.467  0.00  0.00    +0.000 A 
ATOM     11  N   UNL     1      43.570   2.911  11.259  0.00  0.00    +0.000 NA
ATOM     12  C   UNL     1      44.325   3.568  10.347  0.00  0.00    +0.000 A 
ATOM     13  C   UNL     1      44.926   4.795  10.631  0.00  0.00    +0.000 A 
BRANCH  12  14
ATOM     14  C   UNL     1      44.552   2.869   9.021  0.00  0.00    +0.000 C 
BRANCH  14  15
ATOM     15  N   UNL     1      45.316   1.614   9.109  0.00  0.00    +0.000 NA
ATOM     16  H   UNL     1      44.700   0.856   8.813  0.00  0.00    +0.000 HD
ATOM     17  H   UNL     1      45.514   1.435  10.093  0.00  0.00    +0.000 HD
ENDBRANCH  14  15
ENDBRANCH  12  14
ENDBRANCH   6   8
BRANCH   1  18
ATOM     18  C   UNL     1      48.528   7.940  14.064  0.00  0.00    +0.000 C 
BRANCH  18  25
ATOM     19  C   UNL     1      49.321   3.295  17.863  0.00  0.00    +0.000 C 
ATOM     20  C   UNL     1      49.050   4.736  17.552  0.00  0.00    +0.000 A 
ATOM     21  C   UNL     1      48.704   5.623  18.539  0.00  0.00    +0.000 A 
ATOM     22  C   UNL     1      48.416   6.896  18.104  0.00  0.00    +0.000 A 
ATOM     23  N   UNL     1      48.422   7.283  16.806  0.00  0.00    +0.000 NA
ATOM     24  C   UNL     1      48.795   6.356  15.920  0.00  0.00    +0.000 A 
ATOM     25  N   UNL     1      48.827   6.631  14.578  0.00  0.00    +0.000 N 
ATOM     26  N   UNL     1      49.132   5.102  16.255  0.00  0.00    +0.000 NA
ATOM     27  H   UNL     1      49.533   6.075  14.114  0.00  0.00    +0.000 HD
BRANCH  22  28
ATOM     28  C   UNL     1      48.084   7.950  19.111  0.00  0.00    +0.000 C 
ATOM     29  N   UNL     1      48.025   7.529  20.414  0.00  0.00    +0.000 N 
ATOM     30  O   UNL     1      47.867   9.114  18.801  0.00  0.00    +0.000 OA
ATOM     31  H   UNL     1      48.233   6.566  20.645  0.00  0.00    +0.000 HD
ATOM     32  H   UNL     1      47.778   8.182  21.145  0.00  0.00    +0.000 HD
ENDBRANCH  22  28
ENDBRANCH  18  25
ENDBRANCH   1  18
TORSDOF 6
ENDMDL
MODEL 8
REMARK VINA RESULT:    -6.496      5.472      7.157
REMARK INTER + INTRA:          -9.406
REMARK INTER:                  -8.647
REMARK INTRA:                  -0.759
REMARK UNBOUND:                -0.821
REMARK  Name = 
REMARK  7 active torsions:
REMARK  status: ('A' for Active; 'I' for Inactive)
REMARK    1  A    between atoms: C_1  and  C_2
REMARK    2  A    between atoms: C_4  and  C_5
REMARK    3  A    between atoms: N_10  and  C_11
REMARK    4  A    between atoms: C_11  and  C_12
REMARK    5  A    between atoms: C_17  and  C_18
REMARK    6  A    between atoms: C_22  and  C_23
REMARK    7  A    between atoms: C_23  and  N_24
REMARK                            x       y       z     vdW  Elec       q    Type
REMARK                         _______ _______ _______ _____ _____    ______ ____
ROOT
ATOM      1  C   UNL     1      50.411   8.573  11.505  0.00  0.00    +0.000 A 
ATOM      2  C   UNL     1      50.624   9.912  11.165  0.00  0.00    +0.000 A 
ATOM      3  C   UNL     1      51.685  10.254  10.329  0.00  0.00    +0.000 A 
ATOM      4  C   UNL     1      52.533   9.263   9.830  0.00  0.00    +0.000 A 
ATOM      5  F   UNL     1      53.554   9.663   9.056  0.00  0.00    +0.000 F 
ATOM      6  C   UNL     1      52.350   7.904  10.130  0.00  0.00    +0.000 A 
ATOM      7  C   UNL     1      51.264   7.592  10.970  0.00  0.00    +0.000 A 
ENDROOT
BRANCH   6   8
ATOM      8  C   UNL     1      53.236   6.833   9.611  0.00  0.00    +0.000 A 
ATOM      9  C   UNL     1      54.437   6.488  10.240  0.00  0.00    +0.000 A 
ATOM     10  C   UNL     1      55.221   5.477   9.709  0.00  0.00    +0.000 A 
ATOM     11  N   UNL     1      54.914   4.789   8.592  0.00  0.00    +0.000 NA
ATOM     12  C   UNL     1      53.762   5.117   7.962  0.00  0.00    +0.000 A 
ATOM     13  C   UNL     1      52.916   6.119   8.440  0.00  0.00    +0.000 A 
BRANCH  12  14
ATOM     14  C   UNL     1      53.469   4.393   6.662  0.00  0.00    +0.000 C 
BRANCH  14  15
ATOM     15  N   UNL     1      53.083   2.982   6.816  0.00  0.00    +0.000 NA
ATOM     16  H   UNL     1      53.932   2.448   6.999  0.00  0.00    +0.000 HD
ATOM     17  H   UNL     1      52.741   2.650   5.914  0.00  0.00    +0.000 HD
ENDBRANCH  14  15
ENDBRANCH  12  14
ENDBRANCH   6   8
BRANCH   1  18
ATOM     18  C   UNL     1      49.292   8.170  12.434  0.00  0.00    +0.000 C 
BRANCH  18  25
ATOM     19  C   UNL     1      44.258   5.194  10.871  0.00  0.00    +0.000 C 
ATOM     20  C   UNL     1      45.477   5.405  11.715  0.00  0.00    +0.000 A 
ATOM     21  C   UNL     1      45.709   4.645  12.833  0.00  0.00    +0.000 A 
ATOM     22  C   UNL     1      46.828   4.991  13.553  0.00  0.00    +0.000 A 
ATOM     23  N   UNL     1      47.651   6.021  13.243  0.00  0.00    +0.000 NA
ATOM     24  C   UNL     1      47.359   6.688  12.124  0.00  0.00    +0.000 A 
ATOM     25  N   UNL     1      48.116   7.757  11.717  0.00  0.00    +0.000 N 
ATOM     26  N   UNL     1      46.313   6.397  11.337  0.00  0.00    +0.000 NA
ATOM     27  H   UNL     1      48.103   7.843  10.710  0.00  0.00    +0.000 HD
BRANCH  22  28
ATOM     28  C   UNL     1      47.196   4.184  14.756  0.00  0.00    +0.000 C 
ATOM     29  N   UNL     1      47.122   4.840  15.957  0.00  0.00    +0.000 N 
ATOM     30  O   UNL     1      47.552   3.015  14.683  0.00  0.00    +0.000 OA
ATOM     31  H   UNL     1      46.801   5.799  15.991  0.00  0.00    +0.000 HD
ATOM     32  H   UNL     1      47.384   4.364  16.809  0.00  0.00    +0.000 HD
ENDBRANCH  22  28
ENDBRANCH  18  25
ENDBRANCH   1  18
TORSDOF 6
ENDMDL
MODEL 9
REMARK VINA RESULT:    -6.460      2.183      2.495
REMARK INTER + INTRA:          -9.359
REMARK INTER:                  -8.636
REMARK INTRA:                  -0.723
REMARK UNBOUND:                -0.821
REMARK  Name = 
REMARK  7 active torsions:
REMARK  status: ('A' for Active; 'I' for Inactive)
REMARK    1  A    between atoms: C_1  and  C_2
REMARK    2  A    between atoms: C_4  and  C_5
REMARK    3  A    between atoms: N_10  and  C_11
REMARK    4  A    between atoms: C_11  and  C_12
REMARK    5  A    between atoms: C_17  and  C_18
REMARK    6  A    between atoms: C_22  and  C_23
REMARK    7  A    between atoms: C_23  and  N_24
REMARK                            x       y       z     vdW  Elec       q    Type
REMARK                         _______ _______ _______ _____ _____    ______ ____
ROOT
ATOM      1  C   UNL     1      47.199   7.487  13.396  0.00  0.00    +0.000 A 
ATOM      2  C   UNL     1      46.642   8.733  13.093  0.00  0.00    +0.000 A 
ATOM      3  C   UNL     1      45.482   8.805  12.326  0.00  0.00    +0.000 A 
ATOM      4  C   UNL     1      44.875   7.636  11.860  0.00  0.00    +0.000 A 
ATOM      5  F   UNL     1      43.777   7.777  11.100  0.00  0.00    +0.000 F 
ATOM      6  C   UNL     1      45.387   6.362  12.150  0.00  0.00    +0.000 A 
ATOM      7  C   UNL     1      46.555   6.325  12.936  0.00  0.00    +0.000 A 
ENDROOT
BRANCH   6   8
ATOM      8  C   UNL     1      44.759   5.107  11.670  0.00  0.00    +0.000 A 
ATOM      9  C   UNL     1      43.814   4.409  12.427  0.00  0.00    +0.000 A 
ATOM     10  C   UNL     1      43.259   3.243  11.925  0.00  0.00    +0.000 A 
ATOM     11  N   UNL     1      43.582   2.707  10.731  0.00  0.00    +0.000 NA
ATOM     12  C   UNL     1      44.505   3.361   9.988  0.00  0.00    +0.000 A 
ATOM     13  C   UNL     1      45.101   4.545  10.425  0.00  0.00    +0.000 A 
BRANCH  12  14
ATOM     14  C   UNL     1      44.920   2.704   8.686  0.00  0.00    +0.000 C 
BRANCH  14  15
ATOM     15  N   UNL     1      45.724   1.482   8.841  0.00  0.00    +0.000 NA
ATOM     16  H   UNL     1      45.319   0.767   8.236  0.00  0.00    +0.000 HD
ATOM     17  H   UNL     1      45.593   1.139   9.793  0.00  0.00    +0.000 HD
ENDBRANCH  14  15
ENDBRANCH  12  14
ENDBRANCH   6   8
BRANCH   1  18
ATOM     18  C   UNL     1      48.473   7.373  14.197  0.00  0.00    +0.000 C 
BRANCH  18  25
ATOM     19  C   UNL     1      49.535   4.604  19.474  0.00  0.00    +0.000 C 
ATOM     20  C   UNL     1      49.968   5.269  18.203  0.00  0.00    +0.000 A 
ATOM     21  C   UNL     1      51.288   5.553  17.964  0.00  0.00    +0.000 A 
ATOM     22  C   UNL     1      51.536   6.227  16.791  0.00  0.00    +0.000 A 
ATOM     23  N   UNL     1      50.580   6.635  15.923  0.00  0.00    +0.000 NA
ATOM     24  C   UNL     1      49.327   6.291  16.229  0.00  0.00    +0.000 A 
ATOM     25  N   UNL     1      48.276   6.660  15.430  0.00  0.00    +0.000 N 
ATOM     26  N   UNL     1      48.993   5.601  17.329  0.00  0.00    +0.000 NA
ATOM     27  H   UNL     1      47.527   5.984  15.487  0.00  0.00    +0.000 HD
BRANCH  22  28
ATOM     28  C   UNL     1      52.951   6.531  16.414  0.00  0.00    +0.000 C 
ATOM     29  N   UNL     1      53.276   7.862  16.352  0.00  0.00    +0.000 N 
ATOM     30  O   UNL     1      53.770   5.657  16.164  0.00  0.00    +0.000 OA
ATOM     31  H   UNL     1      52.587   8.563  16.587  0.00  0.00    +0.000 HD
ATOM     32  H   UNL     1      54.208   8.141  16.075  0.00  0.00    +0.000 HD
ENDBRANCH  22  28
ENDBRANCH  18  25
ENDBRANCH   1  18
TORSDOF 6
ENDMDL
