MODEL 1
REMARK VINA RESULT:    -9.817      0.000      0.000
REMARK INTER + INTRA:         -12.758
REMARK INTER:                 -12.400
REMARK INTRA:                  -0.358
REMARK UNBOUND:                -0.358
REMARK  Name = 
REMARK  7 active torsions:
REMARK  status: ('A' for Active; 'I' for Inactive)
REMARK    1  A    between atoms: C_1  and  C_2
REMARK    2  A    between atoms: C_2  and  C_3
REMARK    3  A    between atoms: C_2  and  C_14
REMARK    4  A    between atoms: C_3  and  N_4
REMARK    5  A    between atoms: C_8  and  C_9
REMARK    6  A    between atoms: C_24  and  C_25
REMARK    7  A    between atoms: C_24  and  O_26
REMARK                            x       y       z     vdW  Elec       q    Type
REMARK                         _______ _______ _______ _____ _____    ______ ____
ROOT
ATOM      1  C   UNL     1      42.951   5.360  12.559  0.00  0.00    +0.000 C 
ATOM      2  C   UNL     1      43.959   4.244  12.832  0.00  0.00    +0.000 C 
ENDROOT
BRANCH   2   3
ATOM      3  C   UNL     1      45.337   4.834  13.100  0.00  0.00    +0.000 A 
ATOM      4  C   UNL     1      45.964   5.597  12.139  0.00  0.00    +0.000 A 
ATOM      5  C   UNL     1      47.187   6.108  12.490  0.00  0.00    +0.000 A 
ATOM      6  N   UNL     1      47.764   5.900  13.686  0.00  0.00    +0.000 NA
ATOM      7  C   UNL     1      47.117   5.119  14.567  0.00  0.00    +0.000 A 
ATOM      8  N   UNL     1      47.758   4.822  15.754  0.00  0.00    +0.000 N 
ATOM      9  C   UNL     1      48.630   5.856  16.313  0.00  0.00    +0.000 C 
ATOM     10  C   UNL     1      49.697   5.222  17.208  0.00  0.00    +0.000 C 
ATOM     11  F   UNL     1      50.355   6.204  17.888  0.00  0.00    +0.000 F 
ATOM     12  C   UNL     1      49.094   4.260  18.225  0.00  0.00    +0.000 C 
ATOM     13  C   UNL     1      48.164   3.225  17.573  0.00  0.00    +0.000 C 
ATOM     14  C   UNL     1      48.940   2.221  16.707  0.00  0.00    +0.000 C 
ATOM     15  C   UNL     1      47.090   3.953  16.721  0.00  0.00    +0.000 C 
ATOM     16  N   UNL     1      45.921   4.572  14.293  0.00  0.00    +0.000 NA
BRANCH  13  17
ATOM     17  O   UNL     1      47.515   2.492  18.622  0.00  0.00    +0.000 OA
ATOM     18  H   UNL     1      47.460   3.071  19.404  0.00  0.00    +0.000 HD
ENDBRANCH  13  17
ENDBRANCH   2   3
BRANCH   2  19
ATOM     19  C   UNL     1      44.037   3.227  11.675  0.00  0.00    +0.000 C 
BRANCH  19  20
ATOM     20  N   UNL     1      43.962   3.868  10.359  0.00  0.00    +0.000 N 
ATOM     21  C   UNL     1      44.865   3.440   9.390  0.00  0.00    +0.000 A 
ATOM     22  C   UNL     1      45.259   2.114   9.252  0.00  0.00    +0.000 A 
ATOM     23  C   UNL     1      46.138   1.752   8.234  0.00  0.00    +0.000 A 
ATOM     24  C   UNL     1      46.592   2.714   7.336  0.00  0.00    +0.000 A 
ATOM     25  C   UNL     1      46.140   4.009   7.531  0.00  0.00    +0.000 A 
ATOM     26  N   UNL     1      45.299   4.389   8.535  0.00  0.00    +0.000 NA
ATOM     27  H   UNL     1      44.009   4.884  10.354  0.00  0.00    +0.000 HD
BRANCH  24  28
ATOM     28  C   UNL     1      47.508   2.290   6.246  0.00  0.00    +0.000 C 
ATOM     29  N   UNL     1      47.459   2.937   5.046  0.00  0.00    +0.000 N 
ATOM     30  O   UNL     1      48.298   1.367   6.405  0.00  0.00    +0.000 OA
ATOM     31  H   UNL     1      46.836   3.689   4.797  0.00  0.00    +0.000 HD
ATOM     32  H   UNL     1      48.095   2.601   4.333  0.00  0.00    +0.000 HD
ENDBRANCH  24  28
ENDBRANCH  19  20
ENDBRANCH   2  19
TORSDOF 5
ENDMDL
MODEL 2
REMARK VINA RESULT:    -9.411      2.890      3.554
REMARK INTER + INTRA:         -12.245
REMARK INTER:                 -11.471
REMARK INTRA:                  -0.774
REMARK UNBOUND:                -0.358
REMARK  Name = 
REMARK  7 active torsions:
REMARK  status: ('A' for Active; 'I' for Inactive)
REMARK    1  A    between atoms: C_1  and  C_2
REMARK    2  A    between atoms: C_2  and  C_3
REMARK    3  A    between atoms: C_2  and  C_14
REMARK    4  A    between atoms: C_3  and  N_4
REMARK    5  A    between atoms: C_8  and  C_9
REMARK    6  A    between atoms: C_24  and  C_25
REMARK    7  A    between atoms: C_24  and  O_26
REMARK                            x       y       z     vdW  Elec       q    Type
REMARK                         _______ _______ _______ _____ _____    ______ ____
ROOT
ATOM      1  C   UNL     1      43.971   7.150  11.393  0.00  0.00    +0.000 C 
ATOM      2  C   UNL     1      43.905   5.802  12.110  0.00  0.00    +0.000 C 
ENDROOT
BRANCH   2   3
ATOM      3  C   UNL     1      45.254   5.473  12.735  0.00  0.00    +0.000 A 
ATOM      4  C   UNL     1      45.585   4.166  13.022  0.00  0.00    +0.000 A 
ATOM      5  C   UNL     1      46.834   3.973  13.553  0.00  0.00    +0.000 A 
ATOM      6  N   UNL     1      47.705   4.968  13.788  0.00  0.00    +0.000 NA
ATOM      7  C   UNL     1      47.310   6.224  13.518  0.00  0.00    +0.000 A 
ATOM      8  N   UNL     1      48.165   7.254  13.857  0.00  0.00    +0.000 N 
ATOM      9  C   UNL     1      49.600   6.984  13.756  0.00  0.00    +0.000 C 
ATOM     10  C   UNL     1      50.380   7.905  14.697  0.00  0.00    +0.000 C 
ATOM     11  F   UNL     1      51.713   7.796  14.431  0.00  0.00    +0.000 F 
ATOM     12  C   UNL     1      49.979   9.366  14.530  0.00  0.00    +0.000 C 
ATOM     13  C   UNL     1      48.458   9.570  14.613  0.00  0.00    +0.000 C 
ATOM     14  C   UNL     1      47.922   9.323  16.032  0.00  0.00    +0.000 C 
ATOM     15  C   UNL     1      47.750   8.632  13.600  0.00  0.00    +0.000 C 
ATOM     16  N   UNL     1      46.097   6.496  13.008  0.00  0.00    +0.000 NA
BRANCH  13  17
ATOM     17  O   UNL     1      48.177  10.934  14.268  0.00  0.00    +0.000 OA
ATOM     18  H   UNL     1      48.138  11.452  15.093  0.00  0.00    +0.000 HD
ENDBRANCH  13  17
ENDBRANCH   2   3
BRANCH   2  19
ATOM     19  C   UNL     1      43.465   4.658  11.174  0.00  0.00    +0.000 C 
BRANCH  19  20
ATOM     20  N   UNL     1      43.797   4.923   9.772  0.00  0.00    +0.000 N 
ATOM     21  C   UNL     1      44.691   4.054   9.154  0.00  0.00    +0.000 A 
ATOM     22  C   UNL     1      44.712   2.686   9.399  0.00  0.00    +0.000 A 
ATOM     23  C   UNL     1      45.611   1.870   8.714  0.00  0.00    +0.000 A 
ATOM     24  C   UNL     1      46.463   2.424   7.763  0.00  0.00    +0.000 A 
ATOM     25  C   UNL     1      46.370   3.792   7.566  0.00  0.00    +0.000 A 
ATOM     26  N   UNL     1      45.514   4.612   8.241  0.00  0.00    +0.000 NA
ATOM     27  H   UNL     1      44.129   5.861   9.561  0.00  0.00    +0.000 HD
BRANCH  24  28
ATOM     28  C   UNL     1      47.391   1.523   7.033  0.00  0.00    +0.000 C 
ATOM     29  N   UNL     1      48.515   2.046   6.462  0.00  0.00    +0.000 N 
ATOM     30  O   UNL     1      47.161   0.324   6.929  0.00  0.00    +0.000 OA
ATOM     31  H   UNL     1      48.790   3.015   6.463  0.00  0.00    +0.000 HD
ATOM     32  H   UNL     1      49.108   1.392   5.965  0.00  0.00    +0.000 HD
ENDBRANCH  24  28
ENDBRANCH  19  20
ENDBRANCH   2  19
TORSDOF 5
ENDMDL
MODEL 3
REMARK VINA RESULT:    -8.036      3.788      8.150
REMARK INTER + INTRA:         -10.508
REMARK INTER:                  -9.766
REMARK INTRA:                  -0.742
REMARK UNBOUND:                -0.358
REMARK  Name = 
REMARK  7 active torsions:
REMARK  status: ('A' for Active; 'I' for Inactive)
REMARK    1  A    between atoms: C_1  and  C_2
REMARK    2  A    between atoms: C_2  and  C_3
REMARK    3  A    between atoms: C_2  and  C_14
REMARK    4  A    between atoms: C_3  and  N_4
REMARK    5  A    between atoms: C_8  and  C_9
REMARK    6  A    between atoms: C_24  and  C_25
REMARK    7  A    between atoms: C_24  and  O_26
REMARK                            x       y       z     vdW  Elec       q    Type
REMARK                         _______ _______ _______ _____ _____    ______ ____
ROOT
ATOM      1  C   UNL     1      50.077   7.711  15.342  0.00  0.00    +0.000 C 
ATOM      2  C   UNL     1      49.013   6.641  15.101  0.00  0.00    +0.000 C 
ENDROOT
BRANCH   2   3
ATOM      3  C   UNL     1      48.219   6.965  13.843  0.00  0.00    +0.000 A 
ATOM      4  C   UNL     1      48.389   8.176  13.206  0.00  0.00    +0.000 A 
ATOM      5  C   UNL     1      47.651   8.355  12.065  0.00  0.00    +0.000 A 
ATOM      6  N   UNL     1      46.811   7.432  11.569  0.00  0.00    +0.000 NA
ATOM      7  C   UNL     1      46.664   6.285  12.254  0.00  0.00    +0.000 A 
ATOM      8  N   UNL     1      45.723   5.382  11.800  0.00  0.00    +0.000 N 
ATOM      9  C   UNL     1      45.518   5.311  10.352  0.00  0.00    +0.000 C 
ATOM     10  C   UNL     1      44.113   4.787  10.041  0.00  0.00    +0.000 C 
ATOM     11  F   UNL     1      44.018   4.519   8.708  0.00  0.00    +0.000 F 
ATOM     12  C   UNL     1      43.797   3.508  10.808  0.00  0.00    +0.000 C 
ATOM     13  C   UNL     1      44.068   3.644  12.314  0.00  0.00    +0.000 C 
ATOM     14  C   UNL     1      43.072   4.597  12.993  0.00  0.00    +0.000 C 
ATOM     15  C   UNL     1      45.523   4.137  12.539  0.00  0.00    +0.000 C 
ATOM     16  N   UNL     1      47.342   6.039  13.387  0.00  0.00    +0.000 NA
BRANCH  13  17
ATOM     17  O   UNL     1      43.913   2.348  12.910  0.00  0.00    +0.000 OA
ATOM     18  H   UNL     1      44.802   1.987  13.080  0.00  0.00    +0.000 HD
ENDBRANCH  13  17
ENDBRANCH   2   3
BRANCH   2  19
ATOM     19  C   UNL     1      48.056   6.482  16.301  0.00  0.00    +0.000 C 
BRANCH  19  20
ATOM     20  N   UNL     1      47.752   5.079  16.593  0.00  0.00    +0.000 N 
ATOM     21  C   UNL     1      48.828   4.235  16.853  0.00  0.00    +0.000 A 
ATOM     22  C   UNL     1      49.953   4.637  17.564  0.00  0.00    +0.000 A 
ATOM     23  C   UNL     1      50.975   3.725  17.820  0.00  0.00    +0.000 A 
ATOM     24  C   UNL     1      50.851   2.407  17.393  0.00  0.00    +0.000 A 
ATOM     25  C   UNL     1      49.693   2.082  16.705  0.00  0.00    +0.000 A 
ATOM     26  N   UNL     1      48.691   2.963  16.424  0.00  0.00    +0.000 NA
ATOM     27  H   UNL     1      47.178   4.595  15.908  0.00  0.00    +0.000 HD
BRANCH  24  28
ATOM     28  C   UNL     1      51.947   1.454  17.705  0.00  0.00    +0.000 C 
ATOM     29  N   UNL     1      51.635   0.198  18.137  0.00  0.00    +0.000 N 
ATOM     30  O   UNL     1      53.123   1.780  17.588  0.00  0.00    +0.000 OA
ATOM     31  H   UNL     1      50.710  -0.168  18.293  0.00  0.00    +0.000 HD
ATOM     32  H   UNL     1      52.420  -0.408  18.348  0.00  0.00    +0.000 HD
ENDBRANCH  24  28
ENDBRANCH  19  20
ENDBRANCH   2  19
TORSDOF 5
ENDMDL
MODEL 4
REMARK VINA RESULT:    -7.895      2.902      4.442
REMARK INTER + INTRA:         -10.329
REMARK INTER:                  -9.652
REMARK INTRA:                  -0.677
REMARK UNBOUND:                -0.358
REMARK  Name = 
REMARK  7 active torsions:
REMARK  status: ('A' for Active; 'I' for Inactive)
REMARK    1  A    between atoms: C_1  and  C_2
REMARK    2  A    between atoms: C_2  and  C_3
REMARK    3  A    between atoms: C_2  and  C_14
REMARK    4  A    between atoms: C_3  and  N_4
REMARK    5  A    between atoms: C_8  and  C_9
REMARK    6  A    between atoms: C_24  and  C_25
REMARK    7  A    between atoms: C_24  and  O_26
REMARK                            x       y       z     vdW  Elec       q    Type
REMARK                         _______ _______ _______ _____ _____    ______ ____
ROOT
ATOM      1  C   UNL     1      49.273   7.513  11.750  0.00  0.00    +0.000 C 
ATOM      2  C   UNL     1      48.808   8.145  13.062  0.00  0.00    +0.000 C 
ENDROOT
BRANCH   2   3
ATOM      3  C   UNL     1      49.682   7.668  14.214  0.00  0.00    +0.000 A 
ATOM      4  C   UNL     1      50.990   8.091  14.315  0.00  0.00    +0.000 A 
ATOM      5  C   UNL     1      51.681   7.631  15.405  0.00  0.00    +0.000 A 
ATOM      6  N   UNL     1      51.149   6.821  16.336  0.00  0.00    +0.000 NA
ATOM      7  C   UNL     1      49.879   6.417  16.163  0.00  0.00    +0.000 A 
ATOM      8  N   UNL     1      49.368   5.503  17.063  0.00  0.00    +0.000 N 
ATOM      9  C   UNL     1      49.842   5.598  18.445  0.00  0.00    +0.000 C 
ATOM     10  C   UNL     1      49.711   4.242  19.144  0.00  0.00    +0.000 C 
ATOM     11  F   UNL     1      49.946   4.400  20.478  0.00  0.00    +0.000 F 
ATOM     12  C   UNL     1      48.320   3.642  18.973  0.00  0.00    +0.000 C 
ATOM     13  C   UNL     1      47.874   3.606  17.503  0.00  0.00    +0.000 C 
ATOM     14  C   UNL     1      48.686   2.595  16.680  0.00  0.00    +0.000 C 
ATOM     15  C   UNL     1      47.998   5.025  16.886  0.00  0.00    +0.000 C 
ATOM     16  N   UNL     1      49.140   6.815  15.114  0.00  0.00    +0.000 NA
BRANCH  13  17
ATOM     17  O   UNL     1      46.498   3.197  17.469  0.00  0.00    +0.000 OA
ATOM     18  H   UNL     1      46.455   2.322  17.044  0.00  0.00    +0.000 HD
ENDBRANCH  13  17
ENDBRANCH   2   3
BRANCH   2  19
ATOM     19  C   UNL     1      47.326   7.845  13.366  0.00  0.00    +0.000 C 
BRANCH  19  20
ATOM     20  N   UNL     1      46.517   7.728  12.150  0.00  0.00    +0.000 N 
ATOM     21  C   UNL     1      45.918   6.497  11.900  0.00  0.00    +0.000 A 
ATOM     22  C   UNL     1      45.390   5.692  12.904  0.00  0.00    +0.000 A 
ATOM     23  C   UNL     1      44.770   4.488  12.575  0.00  0.00    +0.000 A 
ATOM     24  C   UNL     1      44.651   4.112  11.241  0.00  0.00    +0.000 A 
ATOM     25  C   UNL     1      45.188   4.975  10.300  0.00  0.00    +0.000 A 
ATOM     26  N   UNL     1      45.820   6.147  10.601  0.00  0.00    +0.000 NA
ATOM     27  H   UNL     1      46.974   7.996  11.282  0.00  0.00    +0.000 HD
BRANCH  24  28
ATOM     28  C   UNL     1      43.962   2.835  10.924  0.00  0.00    +0.000 C 
ATOM     29  N   UNL     1      44.448   2.047   9.921  0.00  0.00    +0.000 N 
ATOM     30  O   UNL     1      42.962   2.483  11.540  0.00  0.00    +0.000 OA
ATOM     31  H   UNL     1      45.243   2.247   9.335  0.00  0.00    +0.000 HD
ATOM     32  H   UNL     1      43.934   1.194   9.736  0.00  0.00    +0.000 HD
ENDBRANCH  24  28
ENDBRANCH  19  20
ENDBRANCH   2  19
TORSDOF 5
ENDMDL
MODEL 5
REMARK VINA RESULT:    -7.657      1.743      2.290
REMARK INTER + INTRA:         -10.029
REMARK INTER:                  -9.364
REMARK INTRA:                  -0.665
REMARK UNBOUND:                -0.358
REMARK  Name = 
REMARK  7 active torsions:
REMARK  status: ('A' for Active; 'I' for Inactive)
REMARK    1  A    between atoms: C_1  and  C_2
REMARK    2  A    between atoms: C_2  and  C_3
REMARK    3  A    between atoms: C_2  and  C_14
REMARK    4  A    between atoms: C_3  and  N_4
REMARK    5  A    between atoms: C_8  and  C_9
REMARK    6  A    between atoms: C_24  and  C_25
REMARK    7  A    between atoms: C_24  and  O_26
REMARK                            x       y       z     vdW  Elec       q    Type
REMARK                         _______ _______ _______ _____ _____    ______ ____
ROOT
ATOM      1  C   UNL     1      46.162   6.994  11.752  0.00  0.00    +0.000 C 
ATOM      2  C   UNL     1      45.212   6.027  12.459  0.00  0.00    +0.000 C 
ENDROOT
BRANCH   2   3
ATOM      3  C   UNL     1      46.004   5.011  13.271  0.00  0.00    +0.000 A 
ATOM      4  C   UNL     1      46.020   3.685  12.898  0.00  0.00    +0.000 A 
ATOM      5  C   UNL     1      46.788   2.858  13.676  0.00  0.00    +0.000 A 
ATOM      6  N   UNL     1      47.495   3.280  14.737  0.00  0.00    +0.000 NA
ATOM      7  C   UNL     1      47.412   4.580  15.070  0.00  0.00    +0.000 A 
ATOM      8  N   UNL     1      48.054   4.991  16.221  0.00  0.00    +0.000 N 
ATOM      9  C   UNL     1      49.302   4.306  16.563  0.00  0.00    +0.000 C 
ATOM     10  C   UNL     1      49.559   4.395  18.070  0.00  0.00    +0.000 C 
ATOM     11  F   UNL     1      50.820   3.951  18.338  0.00  0.00    +0.000 F 
ATOM     12  C   UNL     1      49.435   5.822  18.589  0.00  0.00    +0.000 C 
ATOM     13  C   UNL     1      48.118   6.489  18.164  0.00  0.00    +0.000 C 
ATOM     14  C   UNL     1      46.903   5.861  18.865  0.00  0.00    +0.000 C 
ATOM     15  C   UNL     1      47.959   6.393  16.622  0.00  0.00    +0.000 C 
ATOM     16  N   UNL     1      46.670   5.451  14.365  0.00  0.00    +0.000 NA
BRANCH  13  17
ATOM     17  O   UNL     1      48.180   7.872  18.545  0.00  0.00    +0.000 OA
ATOM     18  H   UNL     1      48.775   8.329  17.923  0.00  0.00    +0.000 HD
ENDBRANCH  13  17
ENDBRANCH   2   3
BRANCH   2  19
ATOM     19  C   UNL     1      44.274   5.299  11.475  0.00  0.00    +0.000 C 
BRANCH  19  20
ATOM     20  N   UNL     1      44.591   5.593  10.076  0.00  0.00    +0.000 N 
ATOM     21  C   UNL     1      45.256   4.608   9.352  0.00  0.00    +0.000 A 
ATOM     22  C   UNL     1      45.001   3.251   9.507  0.00  0.00    +0.000 A 
ATOM     23  C   UNL     1      45.679   2.321   8.720  0.00  0.00    +0.000 A 
ATOM     24  C   UNL     1      46.584   2.758   7.757  0.00  0.00    +0.000 A 
ATOM     25  C   UNL     1      46.771   4.127   7.654  0.00  0.00    +0.000 A 
ATOM     26  N   UNL     1      46.136   5.052   8.430  0.00  0.00    +0.000 NA
ATOM     27  H   UNL     1      45.103   6.456   9.906  0.00  0.00    +0.000 HD
BRANCH  24  28
ATOM     28  C   UNL     1      47.270   1.743   6.918  0.00  0.00    +0.000 C 
ATOM     29  N   UNL     1      48.299   2.133   6.109  0.00  0.00    +0.000 N 
ATOM     30  O   UNL     1      46.924   0.568   6.933  0.00  0.00    +0.000 OA
ATOM     31  H   UNL     1      48.649   3.070   5.998  0.00  0.00    +0.000 HD
ATOM     32  H   UNL     1      48.724   1.405   5.548  0.00  0.00    +0.000 HD
ENDBRANCH  24  28
ENDBRANCH  19  20
ENDBRANCH   2  19
TORSDOF 5
ENDMDL
MODEL 6
REMARK VINA RESULT:    -7.616      3.827      5.656
REMARK INTER + INTRA:          -9.977
REMARK INTER:                  -8.771
REMARK INTRA:                  -1.206
REMARK UNBOUND:                -0.358
REMARK  Name = 
REMARK  7 active torsions:
REMARK  status: ('A' for Active; 'I' for Inactive)
REMARK    1  A    between atoms: C_1  and  C_2
REMARK    2  A    between atoms: C_2  and  C_3
REMARK    3  A    between atoms: C_2  and  C_14
REMARK    4  A    between atoms: C_3  and  N_4
REMARK    5  A    between atoms: C_8  and  C_9
REMARK    6  A    between atoms: C_24  and  C_25
REMARK    7  A    between atoms: C_24  and  O_26
REMARK                            x       y       z     vdW  Elec       q    Type
REMARK                         _______ _______ _______ _____ _____    ______ ____
ROOT
ATOM      1  C   UNL     1      50.246  10.207  13.106  0.00  0.00    +0.000 C 
ATOM      2  C   UNL     1      49.591   8.877  13.477  0.00  0.00    +0.000 C 
ENDROOT
BRANCH   2   3
ATOM      3  C   UNL     1      50.446   8.138  14.498  0.00  0.00    +0.000 A 
ATOM      4  C   UNL     1      51.820   8.217  14.440  0.00  0.00    +0.000 A 
ATOM      5  C   UNL     1      52.496   7.542  15.424  0.00  0.00    +0.000 A 
ATOM      6  N   UNL     1      51.890   6.842  16.397  0.00  0.00    +0.000 NA
ATOM      7  C   UNL     1      50.548   6.775  16.379  0.00  0.00    +0.000 A 
ATOM      8  N   UNL     1      49.932   5.970  17.316  0.00  0.00    +0.000 N 
ATOM      9  C   UNL     1      50.575   5.870  18.628  0.00  0.00    +0.000 C 
ATOM     10  C   UNL     1      50.188   4.555  19.309  0.00  0.00    +0.000 C 
ATOM     11  F   UNL     1      50.611   4.578  20.604  0.00  0.00    +0.000 F 
ATOM     12  C   UNL     1      48.680   4.329  19.303  0.00  0.00    +0.000 C 
ATOM     13  C   UNL     1      48.069   4.483  17.902  0.00  0.00    +0.000 C 
ATOM     14  C   UNL     1      48.497   3.346  16.960  0.00  0.00    +0.000 C 
ATOM     15  C   UNL     1      48.475   5.857  17.304  0.00  0.00    +0.000 C 
ATOM     16  N   UNL     1      49.815   7.399  15.441  0.00  0.00    +0.000 NA
BRANCH  13  17
ATOM     17  O   UNL     1      46.641   4.430  18.035  0.00  0.00    +0.000 OA
ATOM     18  H   UNL     1      46.433   3.928  18.843  0.00  0.00    +0.000 HD
ENDBRANCH  13  17
ENDBRANCH   2   3
BRANCH   2  19
ATOM     19  C   UNL     1      49.344   7.979  12.248  0.00  0.00    +0.000 C 
BRANCH  19  20
ATOM     20  N   UNL     1      49.106   6.581  12.614  0.00  0.00    +0.000 N 
ATOM     21  C   UNL     1      47.782   6.168  12.726  0.00  0.00    +0.000 A 
ATOM     22  C   UNL     1      46.773   6.618  11.883  0.00  0.00    +0.000 A 
ATOM     23  C   UNL     1      45.475   6.132  12.030  0.00  0.00    +0.000 A 
ATOM     24  C   UNL     1      45.201   5.171  12.998  0.00  0.00    +0.000 A 
ATOM     25  C   UNL     1      46.264   4.763  13.788  0.00  0.00    +0.000 A 
ATOM     26  N   UNL     1      47.536   5.243  13.677  0.00  0.00    +0.000 NA
ATOM     27  H   UNL     1      49.572   6.255  13.457  0.00  0.00    +0.000 HD
BRANCH  24  28
ATOM     28  C   UNL     1      43.813   4.655  13.112  0.00  0.00    +0.000 C 
ATOM     29  N   UNL     1      42.769   5.531  13.041  0.00  0.00    +0.000 N 
ATOM     30  O   UNL     1      43.592   3.461  13.277  0.00  0.00    +0.000 OA
ATOM     31  H   UNL     1      42.833   6.531  12.933  0.00  0.00    +0.000 HD
ATOM     32  H   UNL     1      41.844   5.130  13.137  0.00  0.00    +0.000 HD
ENDBRANCH  24  28
ENDBRANCH  19  20
ENDBRANCH   2  19
TORSDOF 5
ENDMDL
MODEL 7
REMARK VINA RESULT:    -7.419      2.803      4.843
REMARK INTER + INTRA:          -9.728
REMARK INTER:                  -8.764
REMARK INTRA:                  -0.965
REMARK UNBOUND:                -0.358
REMARK  Name = 
REMARK  7 active torsions:
REMARK  status: ('A' for Active; 'I' for Inactive)
REMARK    1  A    between atoms: C_1  and  C_2
REMARK    2  A    between atoms: C_2  and  C_3
REMARK    3  A    between atoms: C_2  and  C_14
REMARK    4  A    between atoms: C_3  and  N_4
REMARK    5  A    between atoms: C_8  and  C_9
REMARK    6  A    between atoms: C_24  and  C_25
REMARK    7  A    between atoms: C_24  and  O_26
REMARK                            x       y       z     vdW  Elec       q    Type
REMARK                         _______ _______ _______ _____ _____    ______ ____
ROOT
ATOM      1  C   UNL     1      49.735   7.999  12.944  0.00  0.00    +0.000 C 
ATOM      2  C   UNL     1      48.788   9.006  13.596  0.00  0.00    +0.000 C 
ENDROOT
BRANCH   2   3
ATOM      3  C   UNL     1      48.873   8.902  15.112  0.00  0.00    +0.000 A 
ATOM      4  C   UNL     1      49.041  10.036  15.878  0.00  0.00    +0.000 A 
ATOM      5  C   UNL     1      49.073   9.838  17.234  0.00  0.00    +0.000 A 
ATOM      6  N   UNL     1      48.948   8.632  17.813  0.00  0.00    +0.000 NA
ATOM      7  C   UNL     1      48.820   7.561  17.011  0.00  0.00    +0.000 A 
ATOM      8  N   UNL     1      48.797   6.314  17.603  0.00  0.00    +0.000 N 
ATOM      9  C   UNL     1      48.174   6.220  18.925  0.00  0.00    +0.000 C 
ATOM     10  C   UNL     1      48.740   5.022  19.692  0.00  0.00    +0.000 C 
ATOM     11  F   UNL     1      48.000   4.820  20.819  0.00  0.00    +0.000 F 
ATOM     12  C   UNL     1      48.706   3.743  18.863  0.00  0.00    +0.000 C 
ATOM     13  C   UNL     1      49.345   3.925  17.477  0.00  0.00    +0.000 C 
ATOM     14  C   UNL     1      50.865   4.126  17.568  0.00  0.00    +0.000 C 
ATOM     15  C   UNL     1      48.685   5.130  16.754  0.00  0.00    +0.000 C 
ATOM     16  N   UNL     1      48.792   7.672  15.672  0.00  0.00    +0.000 NA
BRANCH  13  17
ATOM     17  O   UNL     1      49.102   2.731  16.720  0.00  0.00    +0.000 OA
ATOM     18  H   UNL     1      49.742   2.056  17.010  0.00  0.00    +0.000 HD
ENDBRANCH  13  17
ENDBRANCH   2   3
BRANCH   2  19
ATOM     19  C   UNL     1      47.327   8.822  13.136  0.00  0.00    +0.000 C 
BRANCH  19  20
ATOM     20  N   UNL     1      46.731   7.584  13.644  0.00  0.00    +0.000 N 
ATOM     21  C   UNL     1      46.086   6.763  12.724  0.00  0.00    +0.000 A 
ATOM     22  C   UNL     1      46.542   6.574  11.425  0.00  0.00    +0.000 A 
ATOM     23  C   UNL     1      45.865   5.706  10.570  0.00  0.00    +0.000 A 
ATOM     24  C   UNL     1      44.755   5.006  11.030  0.00  0.00    +0.000 A 
ATOM     25  C   UNL     1      44.373   5.237  12.342  0.00  0.00    +0.000 A 
ATOM     26  N   UNL     1      45.007   6.099  13.189  0.00  0.00    +0.000 NA
ATOM     27  H   UNL     1      46.089   7.686  14.426  0.00  0.00    +0.000 HD
BRANCH  24  28
ATOM     28  C   UNL     1      44.071   4.070  10.102  0.00  0.00    +0.000 C 
ATOM     29  N   UNL     1      44.082   4.334   8.762  0.00  0.00    +0.000 N 
ATOM     30  O   UNL     1      43.493   3.072  10.518  0.00  0.00    +0.000 OA
ATOM     31  H   UNL     1      44.502   5.132   8.314  0.00  0.00    +0.000 HD
ATOM     32  H   UNL     1      43.591   3.671   8.174  0.00  0.00    +0.000 HD
ENDBRANCH  24  28
ENDBRANCH  19  20
ENDBRANCH   2  19
TORSDOF 5
ENDMDL
MODEL 8
REMARK VINA RESULT:    -7.366      3.675      6.130
REMARK INTER + INTRA:          -9.662
REMARK INTER:                  -8.409
REMARK INTRA:                  -1.252
REMARK UNBOUND:                -0.358
REMARK  Name = 
REMARK  7 active torsions:
REMARK  status: ('A' for Active; 'I' for Inactive)
REMARK    1  A    between atoms: C_1  and  C_2
REMARK    2  A    between atoms: C_2  and  C_3
REMARK    3  A    between atoms: C_2  and  C_14
REMARK    4  A    between atoms: C_3  and  N_4
REMARK    5  A    between atoms: C_8  and  C_9
REMARK    6  A    between atoms: C_24  and  C_25
REMARK    7  A    between atoms: C_24  and  O_26
REMARK                            x       y       z     vdW  Elec       q    Type
REMARK                         _______ _______ _______ _____ _____    ______ ____
ROOT
ATOM      1  C   UNL     1      48.347   3.571  18.523  0.00  0.00    +0.000 C 
ATOM      2  C   UNL     1      48.495   3.928  17.045  0.00  0.00    +0.000 C 
ENDROOT
BRANCH   2   3
ATOM      3  C   UNL     1      49.141   5.299  16.897  0.00  0.00    +0.000 A 
ATOM      4  C   UNL     1      49.693   5.928  17.993  0.00  0.00    +0.000 A 
ATOM      5  C   UNL     1      50.278   7.143  17.748  0.00  0.00    +0.000 A 
ATOM      6  N   UNL     1      50.329   7.713  16.532  0.00  0.00    +0.000 NA
ATOM      7  C   UNL     1      49.743   7.065  15.511  0.00  0.00    +0.000 A 
ATOM      8  N   UNL     1      49.705   7.699  14.285  0.00  0.00    +0.000 N 
ATOM      9  C   UNL     1      50.842   8.559  13.949  0.00  0.00    +0.000 C 
ATOM     10  C   UNL     1      50.418   9.624  12.934  0.00  0.00    +0.000 C 
ATOM     11  F   UNL     1      51.526  10.269  12.470  0.00  0.00    +0.000 F 
ATOM     12  C   UNL     1      49.684   9.020  11.743  0.00  0.00    +0.000 C 
ATOM     13  C   UNL     1      48.527   8.104  12.170  0.00  0.00    +0.000 C 
ATOM     14  C   UNL     1      47.371   8.895  12.803  0.00  0.00    +0.000 C 
ATOM     15  C   UNL     1      49.051   7.031  13.162  0.00  0.00    +0.000 C 
ATOM     16  N   UNL     1      49.139   5.876  15.672  0.00  0.00    +0.000 NA
BRANCH  13  17
ATOM     17  O   UNL     1      48.023   7.453  10.995  0.00  0.00    +0.000 OA
ATOM     18  H   UNL     1      47.060   7.346  11.100  0.00  0.00    +0.000 HD
ENDBRANCH  13  17
ENDBRANCH   2   3
BRANCH   2  19
ATOM     19  C   UNL     1      47.148   3.897  16.294  0.00  0.00    +0.000 C 
BRANCH  19  20
ATOM     20  N   UNL     1      47.275   3.361  14.936  0.00  0.00    +0.000 N 
ATOM     21  C   UNL     1      46.400   3.853  13.973  0.00  0.00    +0.000 A 
ATOM     22  C   UNL     1      45.992   5.181  13.925  0.00  0.00    +0.000 A 
ATOM     23  C   UNL     1      45.142   5.611  12.908  0.00  0.00    +0.000 A 
ATOM     24  C   UNL     1      44.732   4.717  11.923  0.00  0.00    +0.000 A 
ATOM     25  C   UNL     1      45.195   3.415  12.033  0.00  0.00    +0.000 A 
ATOM     26  N   UNL     1      46.008   2.968  13.033  0.00  0.00    +0.000 NA
ATOM     27  H   UNL     1      47.243   2.348  14.851  0.00  0.00    +0.000 HD
BRANCH  24  28
ATOM     28  C   UNL     1      43.848   5.214  10.839  0.00  0.00    +0.000 C 
ATOM     29  N   UNL     1      44.102   4.844   9.550  0.00  0.00    +0.000 N 
ATOM     30  O   UNL     1      42.901   5.954  11.081  0.00  0.00    +0.000 OA
ATOM     31  H   UNL     1      44.862   4.264   9.233  0.00  0.00    +0.000 HD
ATOM     32  H   UNL     1      43.476   5.220   8.847  0.00  0.00    +0.000 HD
ENDBRANCH  24  28
ENDBRANCH  19  20
ENDBRANCH   2  19
TORSDOF 5
ENDMDL
