MODEL 1
REMARK VINA RESULT:    -7.782      0.000      0.000
REMARK INTER + INTRA:          -9.930
REMARK INTER:                  -9.602
REMARK INTRA:                  -0.327
REMARK UNBOUND:                -0.327
REMARK  Name = 
REMARK  4 active torsions:
REMARK  status: ('A' for Active; 'I' for Inactive)
REMARK    1  A    between atoms: C_2  and  C_4
REMARK    2  A    between atoms: C_7  and  N_8
REMARK    3  A    between atoms: N_8  and  C_9
REMARK    4  A    between atoms: C_9  and  C_10
REMARK                            x       y       z     vdW  Elec       q    Type
REMARK                         _______ _______ _______ _____ _____    ______ ____
ROOT
ATOM      1  C   UNL     1      46.587   4.596  13.763  0.00  0.00    +0.000 A 
ATOM      2  N   UNL     1      45.836   3.577  13.287  0.00  0.00    +0.000 NA
ATOM      3  C   UNL     1      45.234   3.819  12.101  0.00  0.00    +0.000 A 
ATOM      4  C   UNL     1      45.321   5.006  11.388  0.00  0.00    +0.000 A 
ATOM      5  C   UNL     1      46.154   5.944  11.973  0.00  0.00    +0.000 A 
ATOM      6  N   UNL     1      46.789   5.778  13.153  0.00  0.00    +0.000 NA
ENDROOT
BRANCH   1   8
ATOM      7  N   UNL     1      47.576   5.502  15.812  0.00  0.00    +0.000 N 
ATOM      8  C   UNL     1      47.271   4.371  15.089  0.00  0.00    +0.000 C 
ATOM      9  O   UNL     1      47.547   3.263  15.539  0.00  0.00    +0.000 OA
ATOM     10  H   UNL     1      48.001   5.398  16.721  0.00  0.00    +0.000 HD
ATOM     11  H   UNL     1      47.322   6.417  15.457  0.00  0.00    +0.000 HD
ENDBRANCH   1   8
BRANCH   4  12
ATOM     12  N   UNL     1      44.680   5.141  10.159  0.00  0.00    +0.000 N 
ATOM     13  H   UNL     1      43.992   5.895  10.183  0.00  0.00    +0.000 HD
BRANCH  12  14
ATOM     14  C   UNL     1      44.114   3.941   9.545  0.00  0.00    +0.000 C 
BRANCH  14  15
ATOM     15  C   UNL     1      45.168   3.299   8.675  0.00  0.00    +0.000 A 
ATOM     16  C   UNL     1      45.445   1.926   8.810  0.00  0.00    +0.000 A 
ATOM     17  C   UNL     1      46.411   1.315   8.012  0.00  0.00    +0.000 A 
ATOM     18  C   UNL     1      47.098   2.072   7.072  0.00  0.00    +0.000 A 
ATOM     19  F   UNL     1      48.029   1.488   6.308  0.00  0.00    +0.000 F 
ATOM     20  C   UNL     1      46.833   3.428   6.913  0.00  0.00    +0.000 A 
ATOM     21  C   UNL     1      45.868   4.044   7.713  0.00  0.00    +0.000 A 
ENDBRANCH  14  15
ENDBRANCH  12  14
ENDBRANCH   4  12
TORSDOF 4
ENDMDL
MODEL 2
REMARK VINA RESULT:    -7.747      0.110      1.596
REMARK INTER + INTRA:          -9.886
REMARK INTER:                  -9.508
REMARK INTRA:                  -0.378
REMARK UNBOUND:                -0.327
REMARK  Name = 
REMARK  4 active torsions:
REMARK  status: ('A' for Active; 'I' for Inactive)
REMARK    1  A    between atoms: C_2  and  C_4
REMARK    2  A    between atoms: C_7  and  N_8
REMARK    3  A    between atoms: N_8  and  C_9
REMARK    4  A    between atoms: C_9  and  C_10
REMARK                            x       y       z     vdW  Elec       q    Type
REMARK                         _______ _______ _______ _____ _____    ______ ____
ROOT
ATOM      1  C   UNL     1      46.526   4.574  13.783  0.00  0.00    +0.000 A 
ATOM      2  N   UNL     1      46.808   5.727  13.135  0.00  0.00    +0.000 NA
ATOM      3  C   UNL     1      46.210   5.867  11.931  0.00  0.00    +0.000 A 
ATOM      4  C   UNL     1      45.378   4.927  11.339  0.00  0.00    +0.000 A 
ATOM      5  C   UNL     1      45.147   3.814  12.131  0.00  0.00    +0.000 A 
ATOM      6  N   UNL     1      45.706   3.603  13.340  0.00  0.00    +0.000 NA
ENDROOT
BRANCH   1   8
ATOM      7  N   UNL     1      47.544   5.518  15.799  0.00  0.00    +0.000 N 
ATOM      8  C   UNL     1      47.181   4.374  15.128  0.00  0.00    +0.000 C 
ATOM      9  O   UNL     1      47.384   3.274  15.634  0.00  0.00    +0.000 OA
ATOM     10  H   UNL     1      47.952   5.434  16.718  0.00  0.00    +0.000 HD
ATOM     11  H   UNL     1      47.350   6.429  15.397  0.00  0.00    +0.000 HD
ENDBRANCH   1   8
BRANCH   4  12
ATOM     12  N   UNL     1      44.791   5.182  10.102  0.00  0.00    +0.000 N 
ATOM     13  H   UNL     1      44.169   5.990  10.148  0.00  0.00    +0.000 HD
BRANCH  12  14
ATOM     14  C   UNL     1      44.147   4.069   9.407  0.00  0.00    +0.000 C 
BRANCH  14  15
ATOM     15  C   UNL     1      45.189   3.336   8.596  0.00  0.00    +0.000 A 
ATOM     16  C   UNL     1      45.968   4.039   7.659  0.00  0.00    +0.000 A 
ATOM     17  C   UNL     1      46.938   3.381   6.905  0.00  0.00    +0.000 A 
ATOM     18  C   UNL     1      47.136   2.019   7.089  0.00  0.00    +0.000 A 
ATOM     19  F   UNL     1      48.065   1.384   6.363  0.00  0.00    +0.000 F 
ATOM     20  C   UNL     1      46.386   1.305   8.017  0.00  0.00    +0.000 A 
ATOM     21  C   UNL     1      45.412   1.962   8.773  0.00  0.00    +0.000 A 
ENDBRANCH  14  15
ENDBRANCH  12  14
ENDBRANCH   4  12
TORSDOF 4
ENDMDL
MODEL 3
REMARK VINA RESULT:    -7.573      3.895      6.246
REMARK INTER + INTRA:          -9.671
REMARK INTER:                  -9.197
REMARK INTRA:                  -0.474
REMARK UNBOUND:                -0.327
REMARK  Name = 
REMARK  4 active torsions:
REMARK  status: ('A' for Active; 'I' for Inactive)
REMARK    1  A    between atoms: C_2  and  C_4
REMARK    2  A    between atoms: C_7  and  N_8
REMARK    3  A    between atoms: N_8  and  C_9
REMARK    4  A    between atoms: C_9  and  C_10
REMARK                            x       y       z     vdW  Elec       q    Type
REMARK                         _______ _______ _______ _____ _____    ______ ____
ROOT
ATOM      1  C   UNL     1      46.421   2.582   7.705  0.00  0.00    +0.000 A 
ATOM      2  N   UNL     1      46.441   3.929   7.578  0.00  0.00    +0.000 NA
ATOM      3  C   UNL     1      45.532   4.586   8.332  0.00  0.00    +0.000 A 
ATOM      4  C   UNL     1      44.608   3.984   9.174  0.00  0.00    +0.000 A 
ATOM      5  C   UNL     1      44.728   2.606   9.235  0.00  0.00    +0.000 A 
ATOM      6  N   UNL     1      45.608   1.880   8.514  0.00  0.00    +0.000 NA
ENDROOT
BRANCH   1   8
ATOM      7  N   UNL     1      48.537   2.498   6.474  0.00  0.00    +0.000 N 
ATOM      8  C   UNL     1      47.415   1.808   6.874  0.00  0.00    +0.000 C 
ATOM      9  O   UNL     1      47.276   0.630   6.561  0.00  0.00    +0.000 OA
ATOM     10  H   UNL     1      49.245   2.011   5.947  0.00  0.00    +0.000 HD
ATOM     11  H   UNL     1      48.669   3.463   6.757  0.00  0.00    +0.000 HD
ENDBRANCH   1   8
BRANCH   4  12
ATOM     12  N   UNL     1      43.729   4.759   9.928  0.00  0.00    +0.000 N 
ATOM     13  H   UNL     1      43.936   5.753   9.830  0.00  0.00    +0.000 HD
BRANCH  12  14
ATOM     14  C   UNL     1      43.537   4.404  11.333  0.00  0.00    +0.000 C 
BRANCH  14  15
ATOM     15  C   UNL     1      44.744   4.862  12.118  0.00  0.00    +0.000 A 
ATOM     16  C   UNL     1      45.521   3.921  12.818  0.00  0.00    +0.000 A 
ATOM     17  C   UNL     1      46.640   4.324  13.545  0.00  0.00    +0.000 A 
ATOM     18  C   UNL     1      46.991   5.668  13.567  0.00  0.00    +0.000 A 
ATOM     19  F   UNL     1      48.064   6.057  14.267  0.00  0.00    +0.000 F 
ATOM     20  C   UNL     1      46.245   6.614  12.874  0.00  0.00    +0.000 A 
ATOM     21  C   UNL     1      45.121   6.214  12.147  0.00  0.00    +0.000 A 
ENDBRANCH  14  15
ENDBRANCH  12  14
ENDBRANCH   4  12
TORSDOF 4
ENDMDL
MODEL 4
REMARK VINA RESULT:    -6.688      1.840      2.495
REMARK INTER + INTRA:          -8.580
REMARK INTER:                  -8.203
REMARK INTRA:                  -0.376
REMARK UNBOUND:                -0.327
REMARK  Name = 
REMARK  4 active torsions:
REMARK  status: ('A' for Active; 'I' for Inactive)
REMARK    1  A    between atoms: C_2  and  C_4
REMARK    2  A    between atoms: C_7  and  N_8
REMARK    3  A    between atoms: N_8  and  C_9
REMARK    4  A    between atoms: C_9  and  C_10
REMARK                            x       y       z     vdW  Elec       q    Type
REMARK                         _______ _______ _______ _____ _____    ______ ____
ROOT
ATOM      1  C   UNL     1      47.756   6.302  13.086  0.00  0.00    +0.000 A 
ATOM      2  N   UNL     1      47.050   6.880  12.087  0.00  0.00    +0.000 NA
ATOM      3  C   UNL     1      46.012   6.147  11.625  0.00  0.00    +0.000 A 
ATOM      4  C   UNL     1      45.659   4.885  12.082  0.00  0.00    +0.000 A 
ATOM      5  C   UNL     1      46.443   4.436  13.131  0.00  0.00    +0.000 A 
ATOM      6  N   UNL     1      47.494   5.107  13.646  0.00  0.00    +0.000 NA
ENDROOT
BRANCH   1   8
ATOM      7  N   UNL     1      49.984   7.265  12.761  0.00  0.00    +0.000 N 
ATOM      8  C   UNL     1      48.929   7.083  13.626  0.00  0.00    +0.000 C 
ATOM      9  O   UNL     1      48.975   7.555  14.758  0.00  0.00    +0.000 OA
ATOM     10  H   UNL     1      50.774   7.812  13.067  0.00  0.00    +0.000 HD
ATOM     11  H   UNL     1      49.936   6.903  11.815  0.00  0.00    +0.000 HD
ENDBRANCH   1   8
BRANCH   4  12
ATOM     12  N   UNL     1      44.552   4.226  11.553  0.00  0.00    +0.000 N 
ATOM     13  H   UNL     1      44.626   3.216  11.684  0.00  0.00    +0.000 HD
BRANCH  12  14
ATOM     14  C   UNL     1      44.155   4.545  10.183  0.00  0.00    +0.000 C 
BRANCH  14  15
ATOM     15  C   UNL     1      45.015   3.746   9.231  0.00  0.00    +0.000 A 
ATOM     16  C   UNL     1      45.780   4.411   8.255  0.00  0.00    +0.000 A 
ATOM     17  C   UNL     1      46.583   3.692   7.371  0.00  0.00    +0.000 A 
ATOM     18  C   UNL     1      46.628   2.307   7.464  0.00  0.00    +0.000 A 
ATOM     19  F   UNL     1      47.396   1.614   6.614  0.00  0.00    +0.000 F 
ATOM     20  C   UNL     1      45.889   1.629   8.428  0.00  0.00    +0.000 A 
ATOM     21  C   UNL     1      45.082   2.347   9.314  0.00  0.00    +0.000 A 
ENDBRANCH  14  15
ENDBRANCH  12  14
ENDBRANCH   4  12
TORSDOF 4
ENDMDL
MODEL 5
REMARK VINA RESULT:    -6.610      1.303      1.932
REMARK INTER + INTRA:          -8.483
REMARK INTER:                  -8.265
REMARK INTRA:                  -0.218
REMARK UNBOUND:                -0.327
REMARK  Name = 
REMARK  4 active torsions:
REMARK  status: ('A' for Active; 'I' for Inactive)
REMARK    1  A    between atoms: C_2  and  C_4
REMARK    2  A    between atoms: C_7  and  N_8
REMARK    3  A    between atoms: N_8  and  C_9
REMARK    4  A    between atoms: C_9  and  C_10
REMARK                            x       y       z     vdW  Elec       q    Type
REMARK                         _______ _______ _______ _____ _____    ______ ____
ROOT
ATOM      1  C   UNL     1      47.294   4.174  14.929  0.00  0.00    +0.000 A 
ATOM      2  N   UNL     1      46.581   3.373  14.104  0.00  0.00    +0.000 NA
ATOM      3  C   UNL     1      46.145   3.966  12.970  0.00  0.00    +0.000 A 
ATOM      4  C   UNL     1      46.359   5.294  12.630  0.00  0.00    +0.000 A 
ATOM      5  C   UNL     1      47.136   5.983  13.546  0.00  0.00    +0.000 A 
ATOM      6  N   UNL     1      47.607   5.462  14.698  0.00  0.00    +0.000 NA
ENDROOT
BRANCH   1   8
ATOM      7  N   UNL     1      46.904   3.537  17.260  0.00  0.00    +0.000 N 
ATOM      8  C   UNL     1      47.793   3.554  16.211  0.00  0.00    +0.000 C 
ATOM      9  O   UNL     1      48.914   3.073  16.348  0.00  0.00    +0.000 OA
ATOM     10  H   UNL     1      47.182   3.100  18.126  0.00  0.00    +0.000 HD
ATOM     11  H   UNL     1      45.967   3.907  17.141  0.00  0.00    +0.000 HD
ENDBRANCH   1   8
BRANCH   4  12
ATOM     12  N   UNL     1      45.887   5.799  11.421  0.00  0.00    +0.000 N 
ATOM     13  H   UNL     1      45.749   6.810  11.471  0.00  0.00    +0.000 HD
BRANCH  12  14
ATOM     14  C   UNL     1      44.730   5.147  10.811  0.00  0.00    +0.000 C 
BRANCH  14  15
ATOM     15  C   UNL     1      45.212   4.245   9.700  0.00  0.00    +0.000 A 
ATOM     16  C   UNL     1      45.934   4.789   8.621  0.00  0.00    +0.000 A 
ATOM     17  C   UNL     1      46.391   3.973   7.588  0.00  0.00    +0.000 A 
ATOM     18  C   UNL     1      46.134   2.609   7.633  0.00  0.00    +0.000 A 
ATOM     19  F   UNL     1      46.569   1.823   6.640  0.00  0.00    +0.000 F 
ATOM     20  C   UNL     1      45.432   2.047   8.694  0.00  0.00    +0.000 A 
ATOM     21  C   UNL     1      44.971   2.863   9.730  0.00  0.00    +0.000 A 
ENDBRANCH  14  15
ENDBRANCH  12  14
ENDBRANCH   4  12
TORSDOF 4
ENDMDL
MODEL 6
REMARK VINA RESULT:    -5.989      2.265      3.538
REMARK INTER + INTRA:          -7.717
REMARK INTER:                  -7.398
REMARK INTRA:                  -0.319
REMARK UNBOUND:                -0.327
REMARK  Name = 
REMARK  4 active torsions:
REMARK  status: ('A' for Active; 'I' for Inactive)
REMARK    1  A    between atoms: C_2  and  C_4
REMARK    2  A    between atoms: C_7  and  N_8
REMARK    3  A    between atoms: N_8  and  C_9
REMARK    4  A    between atoms: C_9  and  C_10
REMARK                            x       y       z     vdW  Elec       q    Type
REMARK                         _______ _______ _______ _____ _____    ______ ____
ROOT
ATOM      1  C   UNL     1      48.511   3.592  16.323  0.00  0.00    +0.000 A 
ATOM      2  N   UNL     1      47.802   2.898  15.405  0.00  0.00    +0.000 NA
ATOM      3  C   UNL     1      47.126   3.656  14.513  0.00  0.00    +0.000 A 
ATOM      4  C   UNL     1      47.103   5.044  14.501  0.00  0.00    +0.000 A 
ATOM      5  C   UNL     1      47.904   5.621  15.471  0.00  0.00    +0.000 A 
ATOM      6  N   UNL     1      48.607   4.933  16.395  0.00  0.00    +0.000 NA
ENDROOT
BRANCH   1   8
ATOM      7  N   UNL     1      48.977   3.038  18.662  0.00  0.00    +0.000 N 
ATOM      8  C   UNL     1      49.275   2.784  17.343  0.00  0.00    +0.000 C 
ATOM      9  O   UNL     1      50.111   1.932  17.055  0.00  0.00    +0.000 OA
ATOM     10  H   UNL     1      49.437   2.495  19.378  0.00  0.00    +0.000 HD
ATOM     11  H   UNL     1      48.266   3.719  18.902  0.00  0.00    +0.000 HD
ENDBRANCH   1   8
BRANCH   4  12
ATOM     12  N   UNL     1      46.392   5.730  13.519  0.00  0.00    +0.000 N 
ATOM     13  H   UNL     1      46.364   6.732  13.715  0.00  0.00    +0.000 HD
BRANCH  12  14
ATOM     14  C   UNL     1      45.065   5.233  13.161  0.00  0.00    +0.000 C 
BRANCH  14  15
ATOM     15  C   UNL     1      45.068   4.847  11.701  0.00  0.00    +0.000 A 
ATOM     16  C   UNL     1      44.436   3.659  11.290  0.00  0.00    +0.000 A 
ATOM     17  C   UNL     1      44.425   3.288   9.947  0.00  0.00    +0.000 A 
ATOM     18  C   UNL     1      45.039   4.107   9.009  0.00  0.00    +0.000 A 
ATOM     19  F   UNL     1      45.033   3.751   7.718  0.00  0.00    +0.000 F 
ATOM     20  C   UNL     1      45.660   5.291   9.389  0.00  0.00    +0.000 A 
ATOM     21  C   UNL     1      45.675   5.665  10.736  0.00  0.00    +0.000 A 
ENDBRANCH  14  15
ENDBRANCH  12  14
ENDBRANCH   4  12
TORSDOF 4
ENDMDL
MODEL 7
REMARK VINA RESULT:    -5.922      4.147      7.581
REMARK INTER + INTRA:          -7.634
REMARK INTER:                  -7.301
REMARK INTRA:                  -0.333
REMARK UNBOUND:                -0.327
REMARK  Name = 
REMARK  4 active torsions:
REMARK  status: ('A' for Active; 'I' for Inactive)
REMARK    1  A    between atoms: C_2  and  C_4
REMARK    2  A    between atoms: C_7  and  N_8
REMARK    3  A    between atoms: N_8  and  C_9
REMARK    4  A    between atoms: C_9  and  C_10
REMARK                            x       y       z     vdW  Elec       q    Type
REMARK                         _______ _______ _______ _____ _____    ______ ____
ROOT
ATOM      1  C   UNL     1      45.123   4.165  11.952  0.00  0.00    +0.000 A 
ATOM      2  N   UNL     1      45.720   3.157  12.628  0.00  0.00    +0.000 NA
ATOM      3  C   UNL     1      46.456   3.543  13.693  0.00  0.00    +0.000 A 
ATOM      4  C   UNL     1      46.645   4.856  14.101  0.00  0.00    +0.000 A 
ATOM      5  C   UNL     1      45.944   5.778  13.342  0.00  0.00    +0.000 A 
ATOM      6  N   UNL     1      45.190   5.472  12.266  0.00  0.00    +0.000 NA
ENDROOT
BRANCH   1   8
ATOM      7  N   UNL     1      44.023   2.438  10.609  0.00  0.00    +0.000 N 
ATOM      8  C   UNL     1      44.296   3.779  10.750  0.00  0.00    +0.000 C 
ATOM      9  O   UNL     1      43.864   4.583   9.929  0.00  0.00    +0.000 OA
ATOM     10  H   UNL     1      43.444   2.138   9.840  0.00  0.00    +0.000 HD
ATOM     11  H   UNL     1      44.354   1.775  11.302  0.00  0.00    +0.000 HD
ENDBRANCH   1   8
BRANCH   4  12
ATOM     12  N   UNL     1      47.405   5.143  15.233  0.00  0.00    +0.000 N 
ATOM     13  H   UNL     1      48.388   5.277  14.992  0.00  0.00    +0.000 HD
BRANCH  12  14
ATOM     14  C   UNL     1      47.269   4.262  16.391  0.00  0.00    +0.000 C 
BRANCH  14  15
ATOM     15  C   UNL     1      48.643   3.796  16.810  0.00  0.00    +0.000 A 
ATOM     16  C   UNL     1      49.584   4.730  17.283  0.00  0.00    +0.000 A 
ATOM     17  C   UNL     1      50.856   4.319  17.678  0.00  0.00    +0.000 A 
ATOM     18  C   UNL     1      51.189   2.972  17.610  0.00  0.00    +0.000 A 
ATOM     19  F   UNL     1      52.410   2.576  17.986  0.00  0.00    +0.000 F 
ATOM     20  C   UNL     1      50.272   2.030  17.157  0.00  0.00    +0.000 A 
ATOM     21  C   UNL     1      48.997   2.440  16.757  0.00  0.00    +0.000 A 
ENDBRANCH  14  15
ENDBRANCH  12  14
ENDBRANCH   4  12
TORSDOF 4
ENDMDL
MODEL 8
REMARK VINA RESULT:    -5.829      3.825      5.670
REMARK INTER + INTRA:          -7.520
REMARK INTER:                  -7.196
REMARK INTRA:                  -0.324
REMARK UNBOUND:                -0.327
REMARK  Name = 
REMARK  4 active torsions:
REMARK  status: ('A' for Active; 'I' for Inactive)
REMARK    1  A    between atoms: C_2  and  C_4
REMARK    2  A    between atoms: C_7  and  N_8
REMARK    3  A    between atoms: N_8  and  C_9
REMARK    4  A    between atoms: C_9  and  C_10
REMARK                            x       y       z     vdW  Elec       q    Type
REMARK                         _______ _______ _______ _____ _____    ______ ____
ROOT
ATOM      1  C   UNL     1      50.280   2.515  17.092  0.00  0.00    +0.000 A 
ATOM      2  N   UNL     1      49.447   1.762  16.339  0.00  0.00    +0.000 NA
ATOM      3  C   UNL     1      48.327   2.393  15.922  0.00  0.00    +0.000 A 
ATOM      4  C   UNL     1      47.988   3.704  16.228  0.00  0.00    +0.000 A 
ATOM      5  C   UNL     1      48.951   4.366  16.972  0.00  0.00    +0.000 A 
ATOM      6  N   UNL     1      50.092   3.805  17.424  0.00  0.00    +0.000 NA
ENDROOT
BRANCH   1   8
ATOM      7  N   UNL     1      51.419   0.525  17.950  0.00  0.00    +0.000 N 
ATOM      8  C   UNL     1      51.540   1.846  17.585  0.00  0.00    +0.000 C 
ATOM      9  O   UNL     1      52.629   2.407  17.659  0.00  0.00    +0.000 OA
ATOM     10  H   UNL     1      52.243   0.027  18.252  0.00  0.00    +0.000 HD
ATOM     11  H   UNL     1      50.528   0.051  17.862  0.00  0.00    +0.000 HD
ENDBRANCH   1   8
BRANCH   4  12
ATOM     12  N   UNL     1      46.818   4.268  15.725  0.00  0.00    +0.000 N 
ATOM     13  H   UNL     1      46.139   3.548  15.476  0.00  0.00    +0.000 HD
BRANCH  12  14
ATOM     14  C   UNL     1      46.940   5.260  14.658  0.00  0.00    +0.000 C 
BRANCH  14  15
ATOM     15  C   UNL     1      45.966   4.909  13.558  0.00  0.00    +0.000 A 
ATOM     16  C   UNL     1      45.923   3.596  13.054  0.00  0.00    +0.000 A 
ATOM     17  C   UNL     1      45.029   3.252  12.042  0.00  0.00    +0.000 A 
ATOM     18  C   UNL     1      44.170   4.218  11.534  0.00  0.00    +0.000 A 
ATOM     19  F   UNL     1      43.313   3.891  10.559  0.00  0.00    +0.000 F 
ATOM     20  C   UNL     1      44.187   5.519  12.024  0.00  0.00    +0.000 A 
ATOM     21  C   UNL     1      45.084   5.868  13.037  0.00  0.00    +0.000 A 
ENDBRANCH  14  15
ENDBRANCH  12  14
ENDBRANCH   4  12
TORSDOF 4
ENDMDL
MODEL 9
REMARK VINA RESULT:    -5.686      3.933      6.295
REMARK INTER + INTRA:          -7.343
REMARK INTER:                  -7.061
REMARK INTRA:                  -0.282
REMARK UNBOUND:                -0.327
REMARK  Name = 
REMARK  4 active torsions:
REMARK  status: ('A' for Active; 'I' for Inactive)
REMARK    1  A    between atoms: C_2  and  C_4
REMARK    2  A    between atoms: C_7  and  N_8
REMARK    3  A    between atoms: N_8  and  C_9
REMARK    4  A    between atoms: C_9  and  C_10
REMARK                            x       y       z     vdW  Elec       q    Type
REMARK                         _______ _______ _______ _____ _____    ______ ____
ROOT
ATOM      1  C   UNL     1      44.668   3.809  11.808  0.00  0.00    +0.000 A 
ATOM      2  N   UNL     1      44.586   5.034  11.239  0.00  0.00    +0.000 NA
ATOM      3  C   UNL     1      45.271   6.007  11.879  0.00  0.00    +0.000 A 
ATOM      4  C   UNL     1      46.002   5.834  13.046  0.00  0.00    +0.000 A 
ATOM      5  C   UNL     1      46.030   4.524  13.494  0.00  0.00    +0.000 A 
ATOM      6  N   UNL     1      45.373   3.500  12.911  0.00  0.00    +0.000 NA
ENDROOT
BRANCH   1   8
ATOM      7  N   UNL     1      44.456   2.218   9.960  0.00  0.00    +0.000 N 
ATOM      8  C   UNL     1      43.910   2.694  11.130  0.00  0.00    +0.000 C 
ATOM      9  O   UNL     1      42.873   2.205  11.567  0.00  0.00    +0.000 OA
ATOM     10  H   UNL     1      44.003   1.448   9.490  0.00  0.00    +0.000 HD
ATOM     11  H   UNL     1      45.328   2.599   9.612  0.00  0.00    +0.000 HD
ENDBRANCH   1   8
BRANCH   4  12
ATOM     12  N   UNL     1      46.694   6.903  13.612  0.00  0.00    +0.000 N 
ATOM     13  H   UNL     1      46.482   6.995  14.606  0.00  0.00    +0.000 HD
BRANCH  12  14
ATOM     14  C   UNL     1      46.618   8.199  12.942  0.00  0.00    +0.000 C 
BRANCH  14  15
ATOM     15  C   UNL     1      47.970   8.519  12.349  0.00  0.00    +0.000 A 
ATOM     16  C   UNL     1      48.260   9.833  11.937  0.00  0.00    +0.000 A 
ATOM     17  C   UNL     1      49.504  10.148  11.392  0.00  0.00    +0.000 A 
ATOM     18  C   UNL     1      50.464   9.153  11.264  0.00  0.00    +0.000 A 
ATOM     19  F   UNL     1      51.658   9.453  10.738  0.00  0.00    +0.000 F 
ATOM     20  C   UNL     1      50.204   7.850  11.674  0.00  0.00    +0.000 A 
ATOM     21  C   UNL     1      48.958   7.530  12.219  0.00  0.00    +0.000 A 
ENDBRANCH  14  15
ENDBRANCH  12  14
ENDBRANCH   4  12
TORSDOF 4
ENDMDL
