MODEL 1
REMARK VINA RESULT:    -8.486      0.000      0.000
REMARK INTER + INTRA:         -11.137
REMARK INTER:                 -10.719
REMARK INTRA:                  -0.418
REMARK UNBOUND:                -0.418
REMARK  Name = 
REMARK  6 active torsions:
REMARK  status: ('A' for Active; 'I' for Inactive)
REMARK    1  A    between atoms: C_1  and  O_2
REMARK    2  A    between atoms: O_2  and  C_3
REMARK    3  A    between atoms: C_5  and  C_6
REMARK    4  A    between atoms: C_6  and  N_7
REMARK    5  A    between atoms: C_12  and  C_13
REMARK    6  A    between atoms: C_13  and  O_15
REMARK                            x       y       z     vdW  Elec       q    Type
REMARK                         _______ _______ _______ _____ _____    ______ ____
ROOT
ATOM      1  N   UNL     1      44.492   4.544  10.306  0.00  0.00    +0.000 N 
ATOM      2  C   UNL     1      43.787   3.437  10.710  0.00  0.00    +0.000 A 
ATOM      3  N   UNL     1      44.057   2.385   9.960  0.00  0.00    +0.000 NA
ATOM      4  C   UNL     1      44.974   2.833   9.047  0.00  0.00    +0.000 A 
ATOM      5  C   UNL     1      45.712   2.139   8.086  0.00  0.00    +0.000 A 
ATOM      6  C   UNL     1      46.642   2.887   7.356  0.00  0.00    +0.000 A 
ATOM      7  C   UNL     1      46.710   4.272   7.532  0.00  0.00    +0.000 A 
ATOM      8  N   UNL     1      46.020   4.980   8.461  0.00  0.00    +0.000 NA
ATOM      9  C   UNL     1      45.202   4.199   9.192  0.00  0.00    +0.000 A 
ENDROOT
BRANCH   6  10
ATOM     10  C   UNL     1      47.591   2.252   6.433  0.00  0.00    +0.000 C 
ATOM     11  O   UNL     1      47.986   1.111   6.576  0.00  0.00    +0.000 OA
BRANCH  10  12
ATOM     12  O   UNL     1      47.912   3.021   5.379  0.00  0.00    +0.000 OA
ATOM     13  H   UNL     1      47.334   2.949   4.595  0.00  0.00    +0.000 HD
ENDBRANCH  10  12
ENDBRANCH   6  10
BRANCH   1  14
ATOM     14  C   UNL     1      44.638   5.773  11.063  0.00  0.00    +0.000 C 
BRANCH  14  17
ATOM     15  C   UNL     1      46.855   4.819  13.984  0.00  0.00    +0.000 A 
ATOM     16  C   UNL     1      45.820   4.764  13.063  0.00  0.00    +0.000 A 
ATOM     17  C   UNL     1      45.824   5.670  11.993  0.00  0.00    +0.000 A 
ATOM     18  C   UNL     1      46.905   6.549  11.876  0.00  0.00    +0.000 A 
ATOM     19  C   UNL     1      47.915   6.492  12.822  0.00  0.00    +0.000 A 
ATOM     20  N   UNL     1      47.908   5.653  13.879  0.00  0.00    +0.000 NA
BRANCH  15  22
ATOM     21  C   UNL     1      47.549   4.426  16.167  0.00  0.00    +0.000 C 
ATOM     22  O   UNL     1      46.761   3.971  15.069  0.00  0.00    +0.000 OA
ENDBRANCH  15  22
ENDBRANCH  14  17
ENDBRANCH   1  14
TORSDOF 5
ENDMDL
MODEL 2
REMARK VINA RESULT:    -8.223      1.225      2.004
REMARK INTER + INTRA:         -10.805
REMARK INTER:                 -10.409
REMARK INTRA:                  -0.395
REMARK UNBOUND:                -0.418
REMARK  Name = 
REMARK  6 active torsions:
REMARK  status: ('A' for Active; 'I' for Inactive)
REMARK    1  A    between atoms: C_1  and  O_2
REMARK    2  A    between atoms: O_2  and  C_3
REMARK    3  A    between atoms: C_5  and  C_6
REMARK    4  A    between atoms: C_6  and  N_7
REMARK    5  A    between atoms: C_12  and  C_13
REMARK    6  A    between atoms: C_13  and  O_15
REMARK                            x       y       z     vdW  Elec       q    Type
REMARK                         _______ _______ _______ _____ _____    ______ ____
ROOT
ATOM      1  N   UNL     1      44.457   4.659  10.332  0.00  0.00    +0.000 N 
ATOM      2  C   UNL     1      43.732   3.620  10.862  0.00  0.00    +0.000 A 
ATOM      3  N   UNL     1      43.981   2.484  10.240  0.00  0.00    +0.000 NA
ATOM      4  C   UNL     1      44.905   2.805   9.282  0.00  0.00    +0.000 A 
ATOM      5  C   UNL     1      45.628   1.990   8.409  0.00  0.00    +0.000 A 
ATOM      6  C   UNL     1      46.571   2.631   7.596  0.00  0.00    +0.000 A 
ATOM      7  C   UNL     1      46.665   4.025   7.610  0.00  0.00    +0.000 A 
ATOM      8  N   UNL     1      45.990   4.849   8.450  0.00  0.00    +0.000 NA
ATOM      9  C   UNL     1      45.158   4.173   9.267  0.00  0.00    +0.000 A 
ENDROOT
BRANCH   6  10
ATOM     10  C   UNL     1      47.506   1.874   6.754  0.00  0.00    +0.000 C 
ATOM     11  O   UNL     1      47.264   0.758   6.338  0.00  0.00    +0.000 OA
BRANCH  10  12
ATOM     12  O   UNL     1      48.612   2.565   6.426  0.00  0.00    +0.000 OA
ATOM     13  H   UNL     1      49.437   2.308   6.880  0.00  0.00    +0.000 HD
ENDBRANCH  10  12
ENDBRANCH   6  10
BRANCH   1  14
ATOM     14  C   UNL     1      44.626   5.966  10.940  0.00  0.00    +0.000 C 
BRANCH  14  17
ATOM     15  C   UNL     1      47.965   6.360  12.687  0.00  0.00    +0.000 A 
ATOM     16  C   UNL     1      46.938   6.571  11.781  0.00  0.00    +0.000 A 
ATOM     17  C   UNL     1      45.716   5.912  11.985  0.00  0.00    +0.000 A 
ATOM     18  C   UNL     1      45.578   5.116  13.126  0.00  0.00    +0.000 A 
ATOM     19  C   UNL     1      46.650   5.008  13.996  0.00  0.00    +0.000 A 
ATOM     20  N   UNL     1      47.843   5.605  13.796  0.00  0.00    +0.000 NA
BRANCH  15  22
ATOM     21  C   UNL     1      49.020   8.084  11.539  0.00  0.00    +0.000 C 
ATOM     22  O   UNL     1      49.176   6.955  12.397  0.00  0.00    +0.000 OA
ENDBRANCH  15  22
ENDBRANCH  14  17
ENDBRANCH   1  14
TORSDOF 5
ENDMDL
MODEL 3
REMARK VINA RESULT:    -6.815      2.228      6.414
REMARK INTER + INTRA:          -9.026
REMARK INTER:                  -8.552
REMARK INTRA:                  -0.474
REMARK UNBOUND:                -0.418
REMARK  Name = 
REMARK  6 active torsions:
REMARK  status: ('A' for Active; 'I' for Inactive)
REMARK    1  A    between atoms: C_1  and  O_2
REMARK    2  A    between atoms: O_2  and  C_3
REMARK    3  A    between atoms: C_5  and  C_6
REMARK    4  A    between atoms: C_6  and  N_7
REMARK    5  A    between atoms: C_12  and  C_13
REMARK    6  A    between atoms: C_13  and  O_15
REMARK                            x       y       z     vdW  Elec       q    Type
REMARK                         _______ _______ _______ _____ _____    ______ ____
ROOT
ATOM      1  N   UNL     1      44.774   4.406  11.363  0.00  0.00    +0.000 N 
ATOM      2  C   UNL     1      44.370   3.626  12.420  0.00  0.00    +0.000 A 
ATOM      3  N   UNL     1      44.963   3.982  13.543  0.00  0.00    +0.000 NA
ATOM      4  C   UNL     1      45.771   5.032  13.195  0.00  0.00    +0.000 A 
ATOM      5  C   UNL     1      46.538   5.888  13.988  0.00  0.00    +0.000 A 
ATOM      6  C   UNL     1      47.194   6.930  13.322  0.00  0.00    +0.000 A 
ATOM      7  C   UNL     1      47.148   7.001  11.928  0.00  0.00    +0.000 A 
ATOM      8  N   UNL     1      46.406   6.197  11.125  0.00  0.00    +0.000 NA
ATOM      9  C   UNL     1      45.730   5.264  11.824  0.00  0.00    +0.000 A 
ENDROOT
BRANCH   6  10
ATOM     10  C   UNL     1      47.899   7.991  14.054  0.00  0.00    +0.000 C 
ATOM     11  O   UNL     1      49.109   8.025  14.162  0.00  0.00    +0.000 OA
BRANCH  10  12
ATOM     12  O   UNL     1      47.085   8.955  14.517  0.00  0.00    +0.000 OA
ATOM     13  H   UNL     1      46.381   9.259  13.912  0.00  0.00    +0.000 HD
ENDBRANCH  10  12
ENDBRANCH   6  10
BRANCH   1  14
ATOM     14  C   UNL     1      44.130   4.464  10.064  0.00  0.00    +0.000 C 
BRANCH  14  17
ATOM     15  C   UNL     1      45.987   1.724   8.221  0.00  0.00    +0.000 A 
ATOM     16  C   UNL     1      45.083   2.336   9.076  0.00  0.00    +0.000 A 
ATOM     17  C   UNL     1      44.964   3.733   9.039  0.00  0.00    +0.000 A 
ATOM     18  C   UNL     1      45.725   4.436   8.100  0.00  0.00    +0.000 A 
ATOM     19  C   UNL     1      46.564   3.727   7.257  0.00  0.00    +0.000 A 
ATOM     20  N   UNL     1      46.719   2.387   7.304  0.00  0.00    +0.000 NA
BRANCH  15  22
ATOM     21  C   UNL     1      46.869  -0.205   7.269  0.00  0.00    +0.000 C 
ATOM     22  O   UNL     1      46.137   0.358   8.356  0.00  0.00    +0.000 OA
ENDBRANCH  15  22
ENDBRANCH  14  17
ENDBRANCH   1  14
TORSDOF 5
ENDMDL
MODEL 4
REMARK VINA RESULT:    -6.360      2.361      6.763
REMARK INTER + INTRA:          -8.452
REMARK INTER:                  -7.962
REMARK INTRA:                  -0.490
REMARK UNBOUND:                -0.418
REMARK  Name = 
REMARK  6 active torsions:
REMARK  status: ('A' for Active; 'I' for Inactive)
REMARK    1  A    between atoms: C_1  and  O_2
REMARK    2  A    between atoms: O_2  and  C_3
REMARK    3  A    between atoms: C_5  and  C_6
REMARK    4  A    between atoms: C_6  and  N_7
REMARK    5  A    between atoms: C_12  and  C_13
REMARK    6  A    between atoms: C_13  and  O_15
REMARK                            x       y       z     vdW  Elec       q    Type
REMARK                         _______ _______ _______ _____ _____    ______ ____
ROOT
ATOM      1  N   UNL     1      45.615   5.169  12.270  0.00  0.00    +0.000 N 
ATOM      2  C   UNL     1      45.363   4.457  13.417  0.00  0.00    +0.000 A 
ATOM      3  N   UNL     1      46.269   4.694  14.347  0.00  0.00    +0.000 NA
ATOM      4  C   UNL     1      47.127   5.596  13.778  0.00  0.00    +0.000 A 
ATOM      5  C   UNL     1      48.199   6.302  14.329  0.00  0.00    +0.000 A 
ATOM      6  C   UNL     1      48.832   7.226  13.490  0.00  0.00    +0.000 A 
ATOM      7  C   UNL     1      48.452   7.319  12.148  0.00  0.00    +0.000 A 
ATOM      8  N   UNL     1      47.411   6.662  11.580  0.00  0.00    +0.000 NA
ATOM      9  C   UNL     1      46.785   5.848  12.452  0.00  0.00    +0.000 A 
ENDROOT
BRANCH   6  10
ATOM     10  C   UNL     1      49.863   8.144  13.991  0.00  0.00    +0.000 C 
ATOM     11  O   UNL     1      49.751   9.353  13.937  0.00  0.00    +0.000 OA
BRANCH  10  12
ATOM     12  O   UNL     1      50.896   7.519  14.582  0.00  0.00    +0.000 OA
ATOM     13  H   UNL     1      51.132   7.824  15.480  0.00  0.00    +0.000 HD
ENDBRANCH  10  12
ENDBRANCH   6  10
BRANCH   1  14
ATOM     14  C   UNL     1      44.686   5.351  11.170  0.00  0.00    +0.000 C 
BRANCH  14  17
ATOM     15  C   UNL     1      45.725   3.714   7.914  0.00  0.00    +0.000 A 
ATOM     16  C   UNL     1      45.656   4.646   8.938  0.00  0.00    +0.000 A 
ATOM     17  C   UNL     1      44.943   4.315  10.100  0.00  0.00    +0.000 A 
ATOM     18  C   UNL     1      44.383   3.037  10.190  0.00  0.00    +0.000 A 
ATOM     19  C   UNL     1      44.550   2.161   9.131  0.00  0.00    +0.000 A 
ATOM     20  N   UNL     1      45.200   2.476   7.991  0.00  0.00    +0.000 NA
BRANCH  15  22
ATOM     21  C   UNL     1      46.775   3.004   5.965  0.00  0.00    +0.000 C 
ATOM     22  O   UNL     1      46.357   4.116   6.755  0.00  0.00    +0.000 OA
ENDBRANCH  15  22
ENDBRANCH  14  17
ENDBRANCH   1  14
TORSDOF 5
ENDMDL
MODEL 5
REMARK VINA RESULT:    -6.356      2.804      8.036
REMARK INTER + INTRA:          -8.446
REMARK INTER:                  -7.989
REMARK INTRA:                  -0.457
REMARK UNBOUND:                -0.418
REMARK  Name = 
REMARK  6 active torsions:
REMARK  status: ('A' for Active; 'I' for Inactive)
REMARK    1  A    between atoms: C_1  and  O_2
REMARK    2  A    between atoms: O_2  and  C_3
REMARK    3  A    between atoms: C_5  and  C_6
REMARK    4  A    between atoms: C_6  and  N_7
REMARK    5  A    between atoms: C_12  and  C_13
REMARK    6  A    between atoms: C_13  and  O_15
REMARK                            x       y       z     vdW  Elec       q    Type
REMARK                         _______ _______ _______ _____ _____    ______ ____
ROOT
ATOM      1  N   UNL     1      46.949   4.512  13.948  0.00  0.00    +0.000 N 
ATOM      2  C   UNL     1      47.581   5.605  13.407  0.00  0.00    +0.000 A 
ATOM      3  N   UNL     1      48.274   6.267  14.315  0.00  0.00    +0.000 NA
ATOM      4  C   UNL     1      48.085   5.568  15.477  0.00  0.00    +0.000 A 
ATOM      5  C   UNL     1      48.671   5.723  16.735  0.00  0.00    +0.000 A 
ATOM      6  C   UNL     1      48.320   4.777  17.705  0.00  0.00    +0.000 A 
ATOM      7  C   UNL     1      47.344   3.819  17.419  0.00  0.00    +0.000 A 
ATOM      8  N   UNL     1      46.761   3.629  16.209  0.00  0.00    +0.000 NA
ATOM      9  C   UNL     1      47.196   4.513  15.290  0.00  0.00    +0.000 A 
ENDROOT
BRANCH   6  10
ATOM     10  C   UNL     1      48.985   4.730  19.014  0.00  0.00    +0.000 C 
ATOM     11  O   UNL     1      49.730   5.607  19.406  0.00  0.00    +0.000 OA
BRANCH  10  12
ATOM     12  O   UNL     1      48.627   3.671  19.760  0.00  0.00    +0.000 OA
ATOM     13  H   UNL     1      47.698   3.647  20.063  0.00  0.00    +0.000 HD
ENDBRANCH  10  12
ENDBRANCH   6  10
BRANCH   1  14
ATOM     14  C   UNL     1      46.338   3.433  13.194  0.00  0.00    +0.000 C 
BRANCH  14  17
ATOM     15  C   UNL     1      43.983   4.472  10.413  0.00  0.00    +0.000 A 
ATOM     16  C   UNL     1      45.039   3.847  11.059  0.00  0.00    +0.000 A 
ATOM     17  C   UNL     1      45.122   3.941  12.456  0.00  0.00    +0.000 A 
ATOM     18  C   UNL     1      44.101   4.616  13.134  0.00  0.00    +0.000 A 
ATOM     19  C   UNL     1      43.064   5.164  12.400  0.00  0.00    +0.000 A 
ATOM     20  N   UNL     1      42.988   5.116  11.053  0.00  0.00    +0.000 NA
BRANCH  15  22
ATOM     21  C   UNL     1      44.689   3.287   8.542  0.00  0.00    +0.000 C 
ATOM     22  O   UNL     1      43.993   4.430   9.033  0.00  0.00    +0.000 OA
ENDBRANCH  15  22
ENDBRANCH  14  17
ENDBRANCH   1  14
TORSDOF 5
ENDMDL
MODEL 6
REMARK VINA RESULT:    -6.287      3.344      5.590
REMARK INTER + INTRA:          -8.360
REMARK INTER:                  -8.210
REMARK INTRA:                  -0.150
REMARK UNBOUND:                -0.418
REMARK  Name = 
REMARK  6 active torsions:
REMARK  status: ('A' for Active; 'I' for Inactive)
REMARK    1  A    between atoms: C_1  and  O_2
REMARK    2  A    between atoms: O_2  and  C_3
REMARK    3  A    between atoms: C_5  and  C_6
REMARK    4  A    between atoms: C_6  and  N_7
REMARK    5  A    between atoms: C_12  and  C_13
REMARK    6  A    between atoms: C_13  and  O_15
REMARK                            x       y       z     vdW  Elec       q    Type
REMARK                         _______ _______ _______ _____ _____    ______ ____
ROOT
ATOM      1  N   UNL     1      47.210   4.732  14.810  0.00  0.00    +0.000 N 
ATOM      2  C   UNL     1      47.757   5.983  14.662  0.00  0.00    +0.000 A 
ATOM      3  N   UNL     1      47.441   6.520  13.499  0.00  0.00    +0.000 NA
ATOM      4  C   UNL     1      46.657   5.581  12.882  0.00  0.00    +0.000 A 
ATOM      5  C   UNL     1      45.934   5.644  11.690  0.00  0.00    +0.000 A 
ATOM      6  C   UNL     1      45.153   4.525  11.376  0.00  0.00    +0.000 A 
ATOM      7  C   UNL     1      45.218   3.386  12.182  0.00  0.00    +0.000 A 
ATOM      8  N   UNL     1      45.898   3.290  13.352  0.00  0.00    +0.000 NA
ATOM      9  C   UNL     1      46.565   4.423  13.648  0.00  0.00    +0.000 A 
ENDROOT
BRANCH   6  10
ATOM     10  C   UNL     1      44.224   4.527  10.239  0.00  0.00    +0.000 C 
ATOM     11  O   UNL     1      44.253   3.684   9.363  0.00  0.00    +0.000 OA
BRANCH  10  12
ATOM     12  O   UNL     1      43.294   5.495  10.307  0.00  0.00    +0.000 OA
ATOM     13  H   UNL     1      43.573   6.338  10.715  0.00  0.00    +0.000 HD
ENDBRANCH  10  12
ENDBRANCH   6  10
BRANCH   1  14
ATOM     14  C   UNL     1      47.133   3.988  16.053  0.00  0.00    +0.000 C 
BRANCH  14  17
ATOM     15  C   UNL     1      50.344   2.326  17.185  0.00  0.00    +0.000 A 
ATOM     16  C   UNL     1      49.147   2.523  16.514  0.00  0.00    +0.000 A 
ATOM     17  C   UNL     1      48.518   3.773  16.615  0.00  0.00    +0.000 A 
ATOM     18  C   UNL     1      49.161   4.778  17.344  0.00  0.00    +0.000 A 
ATOM     19  C   UNL     1      50.380   4.494  17.937  0.00  0.00    +0.000 A 
ATOM     20  N   UNL     1      50.980   3.287  17.882  0.00  0.00    +0.000 NA
BRANCH  15  22
ATOM     21  C   UNL     1      52.199   1.011  17.670  0.00  0.00    +0.000 C 
ATOM     22  O   UNL     1      50.879   1.054  17.132  0.00  0.00    +0.000 OA
ENDBRANCH  15  22
ENDBRANCH  14  17
ENDBRANCH   1  14
TORSDOF 5
ENDMDL
MODEL 7
REMARK VINA RESULT:    -5.736      2.818      3.509
REMARK INTER + INTRA:          -7.663
REMARK INTER:                  -7.567
REMARK INTRA:                  -0.096
REMARK UNBOUND:                -0.418
REMARK  Name = 
REMARK  6 active torsions:
REMARK  status: ('A' for Active; 'I' for Inactive)
REMARK    1  A    between atoms: C_1  and  O_2
REMARK    2  A    between atoms: O_2  and  C_3
REMARK    3  A    between atoms: C_5  and  C_6
REMARK    4  A    between atoms: C_6  and  N_7
REMARK    5  A    between atoms: C_12  and  C_13
REMARK    6  A    between atoms: C_13  and  O_15
REMARK                            x       y       z     vdW  Elec       q    Type
REMARK                         _______ _______ _______ _____ _____    ______ ____
ROOT
ATOM      1  N   UNL     1      44.333   5.532  11.797  0.00  0.00    +0.000 N 
ATOM      2  C   UNL     1      43.249   4.716  12.008  0.00  0.00    +0.000 A 
ATOM      3  N   UNL     1      43.076   3.867  11.013  0.00  0.00    +0.000 NA
ATOM      4  C   UNL     1      44.091   4.145  10.136  0.00  0.00    +0.000 A 
ATOM      5  C   UNL     1      44.488   3.487   8.970  0.00  0.00    +0.000 A 
ATOM      6  C   UNL     1      45.635   3.981   8.338  0.00  0.00    +0.000 A 
ATOM      7  C   UNL     1      46.247   5.142   8.818  0.00  0.00    +0.000 A 
ATOM      8  N   UNL     1      45.899   5.801   9.952  0.00  0.00    +0.000 NA
ATOM      9  C   UNL     1      44.842   5.235  10.566  0.00  0.00    +0.000 A 
ENDROOT
BRANCH   6  10
ATOM     10  C   UNL     1      46.249   3.286   7.199  0.00  0.00    +0.000 C 
ATOM     11  O   UNL     1      46.246   2.075   7.087  0.00  0.00    +0.000 OA
BRANCH  10  12
ATOM     12  O   UNL     1      46.739   4.117   6.264  0.00  0.00    +0.000 OA
ATOM     13  H   UNL     1      47.379   3.734   5.633  0.00  0.00    +0.000 HD
ENDBRANCH  10  12
ENDBRANCH   6  10
BRANCH   1  14
ATOM     14  C   UNL     1      44.958   6.379  12.796  0.00  0.00    +0.000 C 
BRANCH  14  17
ATOM     15  C   UNL     1      46.427   9.805  12.120  0.00  0.00    +0.000 A 
ATOM     16  C   UNL     1      46.347   8.478  12.511  0.00  0.00    +0.000 A 
ATOM     17  C   UNL     1      45.169   7.767  12.239  0.00  0.00    +0.000 A 
ATOM     18  C   UNL     1      44.153   8.419  11.534  0.00  0.00    +0.000 A 
ATOM     19  C   UNL     1      44.350   9.733  11.145  0.00  0.00    +0.000 A 
ATOM     20  N   UNL     1      45.461  10.443  11.431  0.00  0.00    +0.000 NA
BRANCH  15  22
ATOM     21  C   UNL     1      48.738   9.687  12.348  0.00  0.00    +0.000 C 
ATOM     22  O   UNL     1      47.568  10.490  12.489  0.00  0.00    +0.000 OA
ENDBRANCH  15  22
ENDBRANCH  14  17
ENDBRANCH   1  14
TORSDOF 5
ENDMDL
MODEL 8
REMARK VINA RESULT:    -5.690      4.567      6.017
REMARK INTER + INTRA:          -7.606
REMARK INTER:                  -7.152
REMARK INTRA:                  -0.454
REMARK UNBOUND:                -0.418
REMARK  Name = 
REMARK  6 active torsions:
REMARK  status: ('A' for Active; 'I' for Inactive)
REMARK    1  A    between atoms: C_1  and  O_2
REMARK    2  A    between atoms: O_2  and  C_3
REMARK    3  A    between atoms: C_5  and  C_6
REMARK    4  A    between atoms: C_6  and  N_7
REMARK    5  A    between atoms: C_12  and  C_13
REMARK    6  A    between atoms: C_13  and  O_15
REMARK                            x       y       z     vdW  Elec       q    Type
REMARK                         _______ _______ _______ _____ _____    ______ ____
ROOT
ATOM      1  N   UNL     1      48.139   7.221  13.829  0.00  0.00    +0.000 N 
ATOM      2  C   UNL     1      47.633   8.456  13.504  0.00  0.00    +0.000 A 
ATOM      3  N   UNL     1      46.398   8.371  13.046  0.00  0.00    +0.000 NA
ATOM      4  C   UNL     1      46.101   7.035  13.087  0.00  0.00    +0.000 A 
ATOM      5  C   UNL     1      44.899   6.365  12.845  0.00  0.00    +0.000 A 
ATOM      6  C   UNL     1      44.906   4.982  13.058  0.00  0.00    +0.000 A 
ATOM      7  C   UNL     1      46.101   4.335  13.381  0.00  0.00    +0.000 A 
ATOM      8  N   UNL     1      47.283   4.950  13.635  0.00  0.00    +0.000 NA
ATOM      9  C   UNL     1      47.201   6.288  13.498  0.00  0.00    +0.000 A 
ENDROOT
BRANCH   6  10
ATOM     10  C   UNL     1      43.673   4.186  12.996  0.00  0.00    +0.000 C 
ATOM     11  O   UNL     1      43.671   2.991  12.768  0.00  0.00    +0.000 OA
BRANCH  10  12
ATOM     12  O   UNL     1      42.566   4.886  13.295  0.00  0.00    +0.000 OA
ATOM     13  H   UNL     1      42.122   5.336  12.550  0.00  0.00    +0.000 HD
ENDBRANCH  10  12
ENDBRANCH   6  10
BRANCH   1  14
ATOM     14  C   UNL     1      49.345   6.981  14.601  0.00  0.00    +0.000 C 
BRANCH  14  17
ATOM     15  C   UNL     1      48.213   5.575  17.933  0.00  0.00    +0.000 A 
ATOM     16  C   UNL     1      48.678   5.615  16.627  0.00  0.00    +0.000 A 
ATOM     17  C   UNL     1      49.004   6.859  16.068  0.00  0.00    +0.000 A 
ATOM     18  C   UNL     1      48.897   7.995  16.876  0.00  0.00    +0.000 A 
ATOM     19  C   UNL     1      48.469   7.843  18.184  0.00  0.00    +0.000 A 
ATOM     20  N   UNL     1      48.115   6.659  18.727  0.00  0.00    +0.000 NA
BRANCH  15  22
ATOM     21  C   UNL     1      47.431   3.464  17.355  0.00  0.00    +0.000 C 
ATOM     22  O   UNL     1      47.818   4.342  18.410  0.00  0.00    +0.000 OA
ENDBRANCH  15  22
ENDBRANCH  14  17
ENDBRANCH   1  14
TORSDOF 5
ENDMDL
MODEL 9
REMARK VINA RESULT:    -5.678      2.728      3.894
REMARK INTER + INTRA:          -7.590
REMARK INTER:                  -7.079
REMARK INTRA:                  -0.510
REMARK UNBOUND:                -0.418
REMARK  Name = 
REMARK  6 active torsions:
REMARK  status: ('A' for Active; 'I' for Inactive)
REMARK    1  A    between atoms: C_1  and  O_2
REMARK    2  A    between atoms: O_2  and  C_3
REMARK    3  A    between atoms: C_5  and  C_6
REMARK    4  A    between atoms: C_6  and  N_7
REMARK    5  A    between atoms: C_12  and  C_13
REMARK    6  A    between atoms: C_13  and  O_15
REMARK                            x       y       z     vdW  Elec       q    Type
REMARK                         _______ _______ _______ _____ _____    ______ ____
ROOT
ATOM      1  N   UNL     1      45.982   5.900  13.182  0.00  0.00    +0.000 N 
ATOM      2  C   UNL     1      46.381   4.940  14.080  0.00  0.00    +0.000 A 
ATOM      3  N   UNL     1      46.148   3.722  13.627  0.00  0.00    +0.000 NA
ATOM      4  C   UNL     1      45.588   3.910  12.392  0.00  0.00    +0.000 A 
ATOM      5  C   UNL     1      45.252   2.988  11.398  0.00  0.00    +0.000 A 
ATOM      6  C   UNL     1      44.766   3.519  10.197  0.00  0.00    +0.000 A 
ATOM      7  C   UNL     1      44.537   4.893  10.087  0.00  0.00    +0.000 A 
ATOM      8  N   UNL     1      44.860   5.819  11.024  0.00  0.00    +0.000 NA
ATOM      9  C   UNL     1      45.400   5.263  12.125  0.00  0.00    +0.000 A 
ENDROOT
BRANCH   6  10
ATOM     10  C   UNL     1      44.530   2.673   9.019  0.00  0.00    +0.000 C 
ATOM     11  O   UNL     1      44.559   1.459   9.063  0.00  0.00    +0.000 OA
BRANCH  10  12
ATOM     12  O   UNL     1      44.203   3.369   7.917  0.00  0.00    +0.000 OA
ATOM     13  H   UNL     1      43.286   3.268   7.595  0.00  0.00    +0.000 HD
ENDBRANCH  10  12
ENDBRANCH   6  10
BRANCH   1  14
ATOM     14  C   UNL     1      46.334   7.307  13.242  0.00  0.00    +0.000 C 
BRANCH  14  17
ATOM     15  C   UNL     1      49.964   8.090  13.998  0.00  0.00    +0.000 A 
ATOM     16  C   UNL     1      48.627   7.786  14.206  0.00  0.00    +0.000 A 
ATOM     17  C   UNL     1      47.829   7.473  13.096  0.00  0.00    +0.000 A 
ATOM     18  C   UNL     1      48.436   7.428  11.837  0.00  0.00    +0.000 A 
ATOM     19  C   UNL     1      49.790   7.701  11.742  0.00  0.00    +0.000 A 
ATOM     20  N   UNL     1      50.565   8.041  12.793  0.00  0.00    +0.000 NA
BRANCH  15  22
ATOM     21  C   UNL     1      51.794   7.615  15.349  0.00  0.00    +0.000 C 
ATOM     22  O   UNL     1      50.688   8.481  15.106  0.00  0.00    +0.000 OA
ENDBRANCH  15  22
ENDBRANCH  14  17
ENDBRANCH   1  14
TORSDOF 5
ENDMDL
