MODEL 1
REMARK VINA RESULT:    -8.526      0.000      0.000
REMARK INTER + INTRA:         -13.036
REMARK INTER:                 -12.264
REMARK INTRA:                  -0.771
REMARK UNBOUND:                -0.771
REMARK  Name = 
REMARK  8 active torsions:
REMARK  status: ('A' for Active; 'I' for Inactive)
REMARK    1  A    between atoms: N_1  and  C_2
REMARK    2  A    between atoms: C_2  and  C_3
REMARK    3  A    between atoms: C_2  and  C_18
REMARK    4  A    between atoms: C_3  and  C_4
REMARK    5  A    between atoms: C_7  and  C_8
REMARK    6  A    between atoms: C_8  and  N_9
REMARK    7  A    between atoms: N_9  and  C_10
REMARK    8  A    between atoms: C_18  and  C_20
REMARK                            x       y       z     vdW  Elec       q    Type
REMARK                         _______ _______ _______ _____ _____    ______ ____
ROOT
ATOM      1  C   UNL     1      47.014   4.034  15.361  0.00  0.00    +0.000 C 
ENDROOT
BRANCH   1   2
ATOM      2  N   UNL     1      47.887   2.909  14.936  0.00  0.00    +0.000 NA
ATOM      3  H   UNL     1      47.650   2.646  13.980  0.00  0.00    +0.000 HD
ATOM      4  H   UNL     1      47.630   2.090  15.497  0.00  0.00    +0.000 HD
ENDBRANCH   1   2
BRANCH   1   5
ATOM      5  C   UNL     1      47.489   4.571  16.733  0.00  0.00    +0.000 C 
ATOM      6  O   UNL     1      46.742   4.518  17.712  0.00  0.00    +0.000 OA
BRANCH   5   7
ATOM      7  C   UNL     1      48.821   5.180  16.838  0.00  0.00    +0.000 A 
ATOM      8  C   UNL     1      49.071   6.519  16.586  0.00  0.00    +0.000 A 
ATOM      9  S   UNL     1      50.683   6.978  16.919  0.00  0.00    +0.000 S 
ATOM     10  C   UNL     1      51.093   5.400  17.405  0.00  0.00    +0.000 A 
ATOM     11  N   UNL     1      52.341   5.107  17.857  0.00  0.00    +0.000 NA
ATOM     12  C   UNL     1      52.502   3.872  18.207  0.00  0.00    +0.000 A 
ATOM     13  N   UNL     1      51.535   2.903  18.122  0.00  0.00    +0.000 N 
ATOM     14  C   UNL     1      50.296   3.128  17.562  0.00  0.00    +0.000 A 
ATOM     15  O   UNL     1      49.554   2.197  17.271  0.00  0.00    +0.000 OA
ATOM     16  C   UNL     1      50.033   4.525  17.265  0.00  0.00    +0.000 A 
ATOM     17  H   UNL     1      51.753   1.940  18.331  0.00  0.00    +0.000 HD
ENDBRANCH   5   7
ENDBRANCH   1   5
BRANCH   1  18
ATOM     18  C   UNL     1      47.024   5.196  14.351  0.00  0.00    +0.000 C 
BRANCH  18  19
ATOM     19  C   UNL     1      46.252   4.909  13.083  0.00  0.00    +0.000 A 
ATOM     20  C   UNL     1      45.545   3.709  12.916  0.00  0.00    +0.000 A 
ATOM     21  C   UNL     1      44.905   3.428  11.706  0.00  0.00    +0.000 A 
ATOM     22  C   UNL     1      44.954   4.344  10.648  0.00  0.00    +0.000 A 
ATOM     23  C   UNL     1      45.628   5.560  10.835  0.00  0.00    +0.000 A 
ATOM     24  C   UNL     1      46.269   5.838  12.038  0.00  0.00    +0.000 A 
BRANCH  22  25
ATOM     25  C   UNL     1      44.350   4.017   9.304  0.00  0.00    +0.000 C 
BRANCH  25  26
ATOM     26  N   UNL     1      45.239   4.373   8.200  0.00  0.00    +0.000 NA
ATOM     27  H   UNL     1      46.025   4.909   8.570  0.00  0.00    +0.000 HD
BRANCH  26  28
ATOM     28  C   UNL     1      45.732   3.193   7.473  0.00  0.00    +0.000 C 
ATOM     29  C   UNL     1      46.073   2.013   8.395  0.00  0.00    +0.000 C 
ATOM     30  C   UNL     1      46.731   0.887   7.612  0.00  0.00    +0.000 C 
ATOM     31  O   UNL     1      47.886   1.356   6.923  0.00  0.00    +0.000 OA
ATOM     32  C   UNL     1      47.565   2.368   5.970  0.00  0.00    +0.000 C 
ATOM     33  C   UNL     1      46.972   3.589   6.661  0.00  0.00    +0.000 C 
ENDBRANCH  26  28
ENDBRANCH  25  26
ENDBRANCH  22  25
ENDBRANCH  18  19
ENDBRANCH   1  18
TORSDOF 8
ENDMDL
MODEL 2
REMARK VINA RESULT:    -7.972      1.735      2.292
REMARK INTER + INTRA:         -12.239
REMARK INTER:                 -11.125
REMARK INTRA:                  -1.114
REMARK UNBOUND:                -0.771
REMARK  Name = 
REMARK  8 active torsions:
REMARK  status: ('A' for Active; 'I' for Inactive)
REMARK    1  A    between atoms: N_1  and  C_2
REMARK    2  A    between atoms: C_2  and  C_3
REMARK    3  A    between atoms: C_2  and  C_18
REMARK    4  A    between atoms: C_3  and  C_4
REMARK    5  A    between atoms: C_7  and  C_8
REMARK    6  A    between atoms: C_8  and  N_9
REMARK    7  A    between atoms: N_9  and  C_10
REMARK    8  A    between atoms: C_18  and  C_20
REMARK                            x       y       z     vdW  Elec       q    Type
REMARK                         _______ _______ _______ _____ _____    ______ ____
ROOT
ATOM      1  C   UNL     1      48.348   6.435  13.756  0.00  0.00    +0.000 C 
ENDROOT
BRANCH   1   2
ATOM      2  N   UNL     1      49.482   6.670  12.825  0.00  0.00    +0.000 NA
ATOM      3  H   UNL     1      49.152   7.216  12.029  0.00  0.00    +0.000 HD
ATOM      4  H   UNL     1      49.745   5.765  12.423  0.00  0.00    +0.000 HD
ENDBRANCH   1   2
BRANCH   1   5
ATOM      5  C   UNL     1      48.640   7.116  15.115  0.00  0.00    +0.000 C 
ATOM      6  O   UNL     1      48.236   8.259  15.336  0.00  0.00    +0.000 OA
BRANCH   5   7
ATOM      7  C   UNL     1      49.438   6.396  16.115  0.00  0.00    +0.000 A 
ATOM      8  C   UNL     1      50.749   6.721  16.425  0.00  0.00    +0.000 A 
ATOM      9  S   UNL     1      51.383   5.805  17.720  0.00  0.00    +0.000 S 
ATOM     10  C   UNL     1      49.926   4.945  17.901  0.00  0.00    +0.000 A 
ATOM     11  N   UNL     1      49.778   4.012  18.879  0.00  0.00    +0.000 NA
ATOM     12  C   UNL     1      48.613   3.453  18.906  0.00  0.00    +0.000 A 
ATOM     13  N   UNL     1      47.593   3.726  18.030  0.00  0.00    +0.000 N 
ATOM     14  C   UNL     1      47.737   4.576  16.955  0.00  0.00    +0.000 A 
ATOM     15  O   UNL     1      46.905   4.605  16.055  0.00  0.00    +0.000 OA
ATOM     16  C   UNL     1      48.989   5.313  16.955  0.00  0.00    +0.000 A 
ATOM     17  H   UNL     1      46.739   3.190  18.054  0.00  0.00    +0.000 HD
ENDBRANCH   5   7
ENDBRANCH   1   5
BRANCH   1  18
ATOM     18  C   UNL     1      47.018   6.987  13.209  0.00  0.00    +0.000 C 
BRANCH  18  19
ATOM     19  C   UNL     1      46.261   6.006  12.342  0.00  0.00    +0.000 A 
ATOM     20  C   UNL     1      45.923   4.729  12.812  0.00  0.00    +0.000 A 
ATOM     21  C   UNL     1      45.295   3.809  11.968  0.00  0.00    +0.000 A 
ATOM     22  C   UNL     1      44.987   4.153  10.646  0.00  0.00    +0.000 A 
ATOM     23  C   UNL     1      45.290   5.447  10.195  0.00  0.00    +0.000 A 
ATOM     24  C   UNL     1      45.920   6.362  11.033  0.00  0.00    +0.000 A 
BRANCH  22  25
ATOM     25  C   UNL     1      44.396   3.144   9.693  0.00  0.00    +0.000 C 
BRANCH  25  26
ATOM     26  N   UNL     1      44.505   3.572   8.300  0.00  0.00    +0.000 NA
ATOM     27  H   UNL     1      44.833   4.538   8.277  0.00  0.00    +0.000 HD
BRANCH  26  28
ATOM     28  C   UNL     1      45.409   2.714   7.518  0.00  0.00    +0.000 C 
ATOM     29  C   UNL     1      45.944   1.514   8.315  0.00  0.00    +0.000 C 
ATOM     30  C   UNL     1      46.997   0.761   7.516  0.00  0.00    +0.000 C 
ATOM     31  O   UNL     1      48.052   1.632   7.120  0.00  0.00    +0.000 OA
ATOM     32  C   UNL     1      47.589   2.683   6.275  0.00  0.00    +0.000 C 
ATOM     33  C   UNL     1      46.583   3.560   7.009  0.00  0.00    +0.000 C 
ENDBRANCH  26  28
ENDBRANCH  25  26
ENDBRANCH  22  25
ENDBRANCH  18  19
ENDBRANCH   1  18
TORSDOF 8
ENDMDL
MODEL 3
REMARK VINA RESULT:    -7.810      1.602      2.318
REMARK INTER + INTRA:         -12.006
REMARK INTER:                 -11.328
REMARK INTRA:                  -0.679
REMARK UNBOUND:                -0.771
REMARK  Name = 
REMARK  8 active torsions:
REMARK  status: ('A' for Active; 'I' for Inactive)
REMARK    1  A    between atoms: N_1  and  C_2
REMARK    2  A    between atoms: C_2  and  C_3
REMARK    3  A    between atoms: C_2  and  C_18
REMARK    4  A    between atoms: C_3  and  C_4
REMARK    5  A    between atoms: C_7  and  C_8
REMARK    6  A    between atoms: C_8  and  N_9
REMARK    7  A    between atoms: N_9  and  C_10
REMARK    8  A    between atoms: C_18  and  C_20
REMARK                            x       y       z     vdW  Elec       q    Type
REMARK                         _______ _______ _______ _____ _____    ______ ____
ROOT
ATOM      1  C   UNL     1      48.432   5.222  16.280  0.00  0.00    +0.000 C 
ENDROOT
BRANCH   1   2
ATOM      2  N   UNL     1      48.262   6.688  16.458  0.00  0.00    +0.000 NA
ATOM      3  H   UNL     1      47.273   6.895  16.592  0.00  0.00    +0.000 HD
ATOM      4  H   UNL     1      48.499   7.137  15.568  0.00  0.00    +0.000 HD
ENDBRANCH   1   2
BRANCH   1   5
ATOM      5  C   UNL     1      48.864   4.582  17.621  0.00  0.00    +0.000 C 
ATOM      6  O   UNL     1      48.021   4.312  18.480  0.00  0.00    +0.000 OA
BRANCH   5   7
ATOM      7  C   UNL     1      50.291   4.340  17.869  0.00  0.00    +0.000 A 
ATOM      8  C   UNL     1      51.136   5.275  18.444  0.00  0.00    +0.000 A 
ATOM      9  S   UNL     1      52.708   4.674  18.738  0.00  0.00    +0.000 S 
ATOM     10  C   UNL     1      52.306   3.148  18.100  0.00  0.00    +0.000 A 
ATOM     11  N   UNL     1      53.209   2.133  18.086  0.00  0.00    +0.000 NA
ATOM     12  C   UNL     1      52.758   1.028  17.588  0.00  0.00    +0.000 A 
ATOM     13  N   UNL     1      51.494   0.857  17.082  0.00  0.00    +0.000 N 
ATOM     14  C   UNL     1      50.587   1.888  16.969  0.00  0.00    +0.000 A 
ATOM     15  O   UNL     1      49.573   1.767  16.290  0.00  0.00    +0.000 OA
ATOM     16  C   UNL     1      51.009   3.115  17.622  0.00  0.00    +0.000 A 
ATOM     17  H   UNL     1      51.236  -0.007  16.629  0.00  0.00    +0.000 HD
ENDBRANCH   5   7
ENDBRANCH   1   5
BRANCH   1  18
ATOM     18  C   UNL     1      47.138   4.537  15.805  0.00  0.00    +0.000 C 
BRANCH  18  19
ATOM     19  C   UNL     1      46.791   4.821  14.361  0.00  0.00    +0.000 A 
ATOM     20  C   UNL     1      47.434   5.842  13.645  0.00  0.00    +0.000 A 
ATOM     21  C   UNL     1      47.042   6.142  12.337  0.00  0.00    +0.000 A 
ATOM     22  C   UNL     1      46.010   5.422  11.722  0.00  0.00    +0.000 A 
ATOM     23  C   UNL     1      45.400   4.375  12.429  0.00  0.00    +0.000 A 
ATOM     24  C   UNL     1      45.786   4.079  13.733  0.00  0.00    +0.000 A 
BRANCH  22  25
ATOM     25  C   UNL     1      45.511   5.794  10.348  0.00  0.00    +0.000 C 
BRANCH  25  26
ATOM     26  N   UNL     1      44.396   4.950   9.921  0.00  0.00    +0.000 NA
ATOM     27  H   UNL     1      43.646   5.549   9.572  0.00  0.00    +0.000 HD
BRANCH  26  28
ATOM     28  C   UNL     1      44.790   3.982   8.885  0.00  0.00    +0.000 C 
ATOM     29  C   UNL     1      45.077   2.580   9.445  0.00  0.00    +0.000 C 
ATOM     30  C   UNL     1      45.638   1.670   8.364  0.00  0.00    +0.000 C 
ATOM     31  O   UNL     1      46.803   2.240   7.775  0.00  0.00    +0.000 OA
ATOM     32  C   UNL     1      46.525   3.487   7.140  0.00  0.00    +0.000 C 
ATOM     33  C   UNL     1      46.033   4.510   8.156  0.00  0.00    +0.000 C 
ENDBRANCH  26  28
ENDBRANCH  25  26
ENDBRANCH  22  25
ENDBRANCH  18  19
ENDBRANCH   1  18
TORSDOF 8
ENDMDL
MODEL 4
REMARK VINA RESULT:    -7.628      2.424      2.870
REMARK INTER + INTRA:         -11.743
REMARK INTER:                 -10.497
REMARK INTRA:                  -1.246
REMARK UNBOUND:                -0.771
REMARK  Name = 
REMARK  8 active torsions:
REMARK  status: ('A' for Active; 'I' for Inactive)
REMARK    1  A    between atoms: N_1  and  C_2
REMARK    2  A    between atoms: C_2  and  C_3
REMARK    3  A    between atoms: C_2  and  C_18
REMARK    4  A    between atoms: C_3  and  C_4
REMARK    5  A    between atoms: C_7  and  C_8
REMARK    6  A    between atoms: C_8  and  N_9
REMARK    7  A    between atoms: N_9  and  C_10
REMARK    8  A    between atoms: C_18  and  C_20
REMARK                            x       y       z     vdW  Elec       q    Type
REMARK                         _______ _______ _______ _____ _____    ______ ____
ROOT
ATOM      1  C   UNL     1      48.782   6.780  13.996  0.00  0.00    +0.000 C 
ENDROOT
BRANCH   1   2
ATOM      2  N   UNL     1      49.587   6.662  12.752  0.00  0.00    +0.000 NA
ATOM      3  H   UNL     1      50.477   6.216  12.971  0.00  0.00    +0.000 HD
ATOM      4  H   UNL     1      49.841   7.610  12.458  0.00  0.00    +0.000 HD
ENDBRANCH   1   2
BRANCH   1   5
ATOM      5  C   UNL     1      49.553   7.627  15.036  0.00  0.00    +0.000 C 
ATOM      6  O   UNL     1      50.648   8.117  14.749  0.00  0.00    +0.000 OA
BRANCH   5   7
ATOM      7  C   UNL     1      48.981   7.803  16.377  0.00  0.00    +0.000 A 
ATOM      8  C   UNL     1      48.438   8.995  16.826  0.00  0.00    +0.000 A 
ATOM      9  S   UNL     1      47.725   8.872  18.374  0.00  0.00    +0.000 S 
ATOM     10  C   UNL     1      48.126   7.223  18.491  0.00  0.00    +0.000 A 
ATOM     11  N   UNL     1      47.764   6.486  19.574  0.00  0.00    +0.000 NA
ATOM     12  C   UNL     1      48.122   5.245  19.517  0.00  0.00    +0.000 A 
ATOM     13  N   UNL     1      48.829   4.683  18.484  0.00  0.00    +0.000 N 
ATOM     14  C   UNL     1      49.317   5.415  17.424  0.00  0.00    +0.000 A 
ATOM     15  O   UNL     1      50.150   4.942  16.659  0.00  0.00    +0.000 OA
ATOM     16  C   UNL     1      48.839   6.786  17.390  0.00  0.00    +0.000 A 
ATOM     17  H   UNL     1      49.151   3.728  18.543  0.00  0.00    +0.000 HD
ENDBRANCH   5   7
ENDBRANCH   1   5
BRANCH   1  18
ATOM     18  C   UNL     1      47.413   7.438  13.747  0.00  0.00    +0.000 C 
BRANCH  18  19
ATOM     19  C   UNL     1      46.457   6.577  12.952  0.00  0.00    +0.000 A 
ATOM     20  C   UNL     1      45.993   5.351  13.451  0.00  0.00    +0.000 A 
ATOM     21  C   UNL     1      45.175   4.533  12.667  0.00  0.00    +0.000 A 
ATOM     22  C   UNL     1      44.801   4.929  11.378  0.00  0.00    +0.000 A 
ATOM     23  C   UNL     1      45.235   6.175  10.899  0.00  0.00    +0.000 A 
ATOM     24  C   UNL     1      46.053   6.988  11.678  0.00  0.00    +0.000 A 
BRANCH  22  25
ATOM     25  C   UNL     1      43.999   4.018  10.483  0.00  0.00    +0.000 C 
BRANCH  25  26
ATOM     26  N   UNL     1      44.077   4.416   9.079  0.00  0.00    +0.000 NA
ATOM     27  H   UNL     1      44.541   5.323   9.019  0.00  0.00    +0.000 HD
BRANCH  26  28
ATOM     28  C   UNL     1      44.792   3.429   8.254  0.00  0.00    +0.000 C 
ATOM     29  C   UNL     1      45.175   2.159   9.028  0.00  0.00    +0.000 C 
ATOM     30  C   UNL     1      46.052   1.252   8.178  0.00  0.00    +0.000 C 
ATOM     31  O   UNL     1      47.209   1.949   7.722  0.00  0.00    +0.000 OA
ATOM     32  C   UNL     1      46.871   3.061   6.896  0.00  0.00    +0.000 C 
ATOM     33  C   UNL     1      46.056   4.083   7.678  0.00  0.00    +0.000 C 
ENDBRANCH  26  28
ENDBRANCH  25  26
ENDBRANCH  22  25
ENDBRANCH  18  19
ENDBRANCH   1  18
TORSDOF 8
ENDMDL
MODEL 5
REMARK VINA RESULT:    -7.448      2.416      2.846
REMARK INTER + INTRA:         -11.485
REMARK INTER:                 -10.197
REMARK INTRA:                  -1.288
REMARK UNBOUND:                -0.771
REMARK  Name = 
REMARK  8 active torsions:
REMARK  status: ('A' for Active; 'I' for Inactive)
REMARK    1  A    between atoms: N_1  and  C_2
REMARK    2  A    between atoms: C_2  and  C_3
REMARK    3  A    between atoms: C_2  and  C_18
REMARK    4  A    between atoms: C_3  and  C_4
REMARK    5  A    between atoms: C_7  and  C_8
REMARK    6  A    between atoms: C_8  and  N_9
REMARK    7  A    between atoms: N_9  and  C_10
REMARK    8  A    between atoms: C_18  and  C_20
REMARK                            x       y       z     vdW  Elec       q    Type
REMARK                         _______ _______ _______ _____ _____    ______ ____
ROOT
ATOM      1  C   UNL     1      48.479   6.660  13.965  0.00  0.00    +0.000 C 
ENDROOT
BRANCH   1   2
ATOM      2  N   UNL     1      49.503   6.787  12.895  0.00  0.00    +0.000 NA
ATOM      3  H   UNL     1      50.387   6.408  13.233  0.00  0.00    +0.000 HD
ATOM      4  H   UNL     1      49.687   7.786  12.760  0.00  0.00    +0.000 HD
ENDBRANCH   1   2
BRANCH   1   5
ATOM      5  C   UNL     1      48.939   7.440  15.220  0.00  0.00    +0.000 C 
ATOM      6  O   UNL     1      48.505   8.573  15.440  0.00  0.00    +0.000 OA
BRANCH   5   7
ATOM      7  C   UNL     1      49.927   6.828  16.118  0.00  0.00    +0.000 A 
ATOM      8  C   UNL     1      49.586   6.099  17.245  0.00  0.00    +0.000 A 
ATOM      9  S   UNL     1      50.933   5.391  18.023  0.00  0.00    +0.000 S 
ATOM     10  C   UNL     1      52.009   6.044  16.879  0.00  0.00    +0.000 A 
ATOM     11  N   UNL     1      53.343   5.785  16.941  0.00  0.00    +0.000 NA
ATOM     12  C   UNL     1      54.034   6.333  15.997  0.00  0.00    +0.000 A 
ATOM     13  N   UNL     1      53.515   7.134  15.012  0.00  0.00    +0.000 N 
ATOM     14  C   UNL     1      52.193   7.518  14.977  0.00  0.00    +0.000 A 
ATOM     15  O   UNL     1      51.815   8.425  14.245  0.00  0.00    +0.000 OA
ATOM     16  C   UNL     1      51.358   6.832  15.949  0.00  0.00    +0.000 A 
ATOM     17  H   UNL     1      54.124   7.601  14.356  0.00  0.00    +0.000 HD
ENDBRANCH   5   7
ENDBRANCH   1   5
BRANCH   1  18
ATOM     18  C   UNL     1      47.106   7.203  13.528  0.00  0.00    +0.000 C 
BRANCH  18  19
ATOM     19  C   UNL     1      46.308   6.235  12.683  0.00  0.00    +0.000 A 
ATOM     20  C   UNL     1      45.914   4.985  13.182  0.00  0.00    +0.000 A 
ATOM     21  C   UNL     1      45.248   4.073  12.359  0.00  0.00    +0.000 A 
ATOM     22  C   UNL     1      44.958   4.398  11.028  0.00  0.00    +0.000 A 
ATOM     23  C   UNL     1      45.318   5.666  10.547  0.00  0.00    +0.000 A 
ATOM     24  C   UNL     1      45.985   6.573  11.365  0.00  0.00    +0.000 A 
BRANCH  22  25
ATOM     25  C   UNL     1      44.326   3.392  10.099  0.00  0.00    +0.000 C 
BRANCH  25  26
ATOM     26  N   UNL     1      44.369   3.828   8.704  0.00  0.00    +0.000 NA
ATOM     27  H   UNL     1      44.740   4.778   8.668  0.00  0.00    +0.000 HD
BRANCH  26  28
ATOM     28  C   UNL     1      45.182   2.936   7.863  0.00  0.00    +0.000 C 
ATOM     29  C   UNL     1      45.755   1.735   8.632  0.00  0.00    +0.000 C 
ATOM     30  C   UNL     1      46.718   0.945   7.759  0.00  0.00    +0.000 C 
ATOM     31  O   UNL     1      47.756   1.783   7.260  0.00  0.00    +0.000 OA
ATOM     32  C   UNL     1      47.247   2.832   6.439  0.00  0.00    +0.000 C 
ATOM     33  C   UNL     1      46.328   3.745   7.241  0.00  0.00    +0.000 C 
ENDBRANCH  26  28
ENDBRANCH  25  26
ENDBRANCH  22  25
ENDBRANCH  18  19
ENDBRANCH   1  18
TORSDOF 8
ENDMDL
MODEL 6
REMARK VINA RESULT:    -7.356      3.910      8.400
REMARK INTER + INTRA:         -11.353
REMARK INTER:                  -9.284
REMARK INTRA:                  -2.068
REMARK UNBOUND:                -0.771
REMARK  Name = 
REMARK  8 active torsions:
REMARK  status: ('A' for Active; 'I' for Inactive)
REMARK    1  A    between atoms: N_1  and  C_2
REMARK    2  A    between atoms: C_2  and  C_3
REMARK    3  A    between atoms: C_2  and  C_18
REMARK    4  A    between atoms: C_3  and  C_4
REMARK    5  A    between atoms: C_7  and  C_8
REMARK    6  A    between atoms: C_8  and  N_9
REMARK    7  A    between atoms: N_9  and  C_10
REMARK    8  A    between atoms: C_18  and  C_20
REMARK                            x       y       z     vdW  Elec       q    Type
REMARK                         _______ _______ _______ _____ _____    ______ ____
ROOT
ATOM      1  C   UNL     1      47.100   8.879  13.326  0.00  0.00    +0.000 C 
ENDROOT
BRANCH   1   2
ATOM      2  N   UNL     1      46.296   9.856  12.547  0.00  0.00    +0.000 NA
ATOM      3  H   UNL     1      46.799  10.741  12.503  0.00  0.00    +0.000 HD
ATOM      4  H   UNL     1      45.454  10.066  13.091  0.00  0.00    +0.000 HD
ENDBRANCH   1   2
BRANCH   1   5
ATOM      5  C   UNL     1      47.443   7.660  12.436  0.00  0.00    +0.000 C 
ATOM      6  O   UNL     1      48.152   7.800  11.437  0.00  0.00    +0.000 OA
BRANCH   5   7
ATOM      7  C   UNL     1      46.878   6.347  12.776  0.00  0.00    +0.000 A 
ATOM      8  C   UNL     1      47.617   5.322  13.344  0.00  0.00    +0.000 A 
ATOM      9  S   UNL     1      46.673   3.959  13.757  0.00  0.00    +0.000 S 
ATOM     10  C   UNL     1      45.251   4.698  13.185  0.00  0.00    +0.000 A 
ATOM     11  N   UNL     1      44.048   4.073  13.278  0.00  0.00    +0.000 NA
ATOM     12  C   UNL     1      43.055   4.762  12.818  0.00  0.00    +0.000 A 
ATOM     13  N   UNL     1      43.162   6.008  12.254  0.00  0.00    +0.000 N 
ATOM     14  C   UNL     1      44.372   6.628  12.033  0.00  0.00    +0.000 A 
ATOM     15  O   UNL     1      44.456   7.613  11.307  0.00  0.00    +0.000 OA
ATOM     16  C   UNL     1      45.501   5.943  12.639  0.00  0.00    +0.000 A 
ATOM     17  H   UNL     1      42.359   6.453  11.836  0.00  0.00    +0.000 HD
ENDBRANCH   5   7
ENDBRANCH   1   5
BRANCH   1  18
ATOM     18  C   UNL     1      48.415   9.487  13.848  0.00  0.00    +0.000 C 
BRANCH  18  19
ATOM     19  C   UNL     1      49.100   8.645  14.902  0.00  0.00    +0.000 A 
ATOM     20  C   UNL     1      50.300   7.973  14.630  0.00  0.00    +0.000 A 
ATOM     21  C   UNL     1      50.874   7.135  15.591  0.00  0.00    +0.000 A 
ATOM     22  C   UNL     1      50.264   6.964  16.839  0.00  0.00    +0.000 A 
ATOM     23  C   UNL     1      49.085   7.671  17.120  0.00  0.00    +0.000 A 
ATOM     24  C   UNL     1      48.510   8.501  16.162  0.00  0.00    +0.000 A 
BRANCH  22  25
ATOM     25  C   UNL     1      50.817   5.992  17.851  0.00  0.00    +0.000 C 
BRANCH  25  26
ATOM     26  N   UNL     1      49.760   5.284  18.571  0.00  0.00    +0.000 NA
ATOM     27  H   UNL     1      48.872   5.759  18.402  0.00  0.00    +0.000 HD
BRANCH  26  28
ATOM     28  C   UNL     1      49.658   3.871  18.171  0.00  0.00    +0.000 C 
ATOM     29  C   UNL     1      50.978   3.298  17.635  0.00  0.00    +0.000 C 
ATOM     30  C   UNL     1      50.774   1.895  17.085  0.00  0.00    +0.000 C 
ATOM     31  O   UNL     1      49.761   1.885  16.084  0.00  0.00    +0.000 OA
ATOM     32  C   UNL     1      48.496   2.297  16.600  0.00  0.00    +0.000 C 
ATOM     33  C   UNL     1      48.564   3.732  17.105  0.00  0.00    +0.000 C 
ENDBRANCH  26  28
ENDBRANCH  25  26
ENDBRANCH  22  25
ENDBRANCH  18  19
ENDBRANCH   1  18
TORSDOF 8
ENDMDL
MODEL 7
REMARK VINA RESULT:    -7.351      2.051      2.664
REMARK INTER + INTRA:         -11.345
REMARK INTER:                 -10.163
REMARK INTRA:                  -1.182
REMARK UNBOUND:                -0.771
REMARK  Name = 
REMARK  8 active torsions:
REMARK  status: ('A' for Active; 'I' for Inactive)
REMARK    1  A    between atoms: N_1  and  C_2
REMARK    2  A    between atoms: C_2  and  C_3
REMARK    3  A    between atoms: C_2  and  C_18
REMARK    4  A    between atoms: C_3  and  C_4
REMARK    5  A    between atoms: C_7  and  C_8
REMARK    6  A    between atoms: C_8  and  N_9
REMARK    7  A    between atoms: N_9  and  C_10
REMARK    8  A    between atoms: C_18  and  C_20
REMARK                            x       y       z     vdW  Elec       q    Type
REMARK                         _______ _______ _______ _____ _____    ______ ____
ROOT
ATOM      1  C   UNL     1      48.676   6.587  14.211  0.00  0.00    +0.000 C 
ENDROOT
BRANCH   1   2
ATOM      2  N   UNL     1      49.914   7.094  13.563  0.00  0.00    +0.000 NA
ATOM      3  H   UNL     1      50.275   6.380  12.931  0.00  0.00    +0.000 HD
ATOM      4  H   UNL     1      50.630   7.179  14.290  0.00  0.00    +0.000 HD
ENDBRANCH   1   2
BRANCH   1   5
ATOM      5  C   UNL     1      48.711   6.908  15.724  0.00  0.00    +0.000 C 
ATOM      6  O   UNL     1      48.416   8.036  16.126  0.00  0.00    +0.000 OA
BRANCH   5   7
ATOM      7  C   UNL     1      49.139   5.865  16.665  0.00  0.00    +0.000 A 
ATOM      8  C   UNL     1      48.260   5.011  17.310  0.00  0.00    +0.000 A 
ATOM      9  S   UNL     1      49.045   3.811  18.239  0.00  0.00    +0.000 S 
ATOM     10  C   UNL     1      50.581   4.401  17.809  0.00  0.00    +0.000 A 
ATOM     11  N   UNL     1      51.715   3.791  18.244  0.00  0.00    +0.000 NA
ATOM     12  C   UNL     1      52.808   4.340  17.824  0.00  0.00    +0.000 A 
ATOM     13  N   UNL     1      52.867   5.456  17.029  0.00  0.00    +0.000 N 
ATOM     14  C   UNL     1      51.750   6.174  16.662  0.00  0.00    +0.000 A 
ATOM     15  O   UNL     1      51.849   7.293  16.172  0.00  0.00    +0.000 OA
ATOM     16  C   UNL     1      50.497   5.528  17.013  0.00  0.00    +0.000 A 
ATOM     17  H   UNL     1      53.754   5.883  16.809  0.00  0.00    +0.000 HD
ENDBRANCH   5   7
ENDBRANCH   1   5
BRANCH   1  18
ATOM     18  C   UNL     1      47.403   7.210  13.608  0.00  0.00    +0.000 C 
BRANCH  18  19
ATOM     19  C   UNL     1      46.641   6.277  12.694  0.00  0.00    +0.000 A 
ATOM     20  C   UNL     1      46.367   6.624  11.363  0.00  0.00    +0.000 A 
ATOM     21  C   UNL     1      45.592   5.784  10.559  0.00  0.00    +0.000 A 
ATOM     22  C   UNL     1      45.087   4.581  11.068  0.00  0.00    +0.000 A 
ATOM     23  C   UNL     1      45.399   4.220  12.387  0.00  0.00    +0.000 A 
ATOM     24  C   UNL     1      46.167   5.058  13.190  0.00  0.00    +0.000 A 
BRANCH  22  25
ATOM     25  C   UNL     1      44.172   3.709  10.245  0.00  0.00    +0.000 C 
BRANCH  25  26
ATOM     26  N   UNL     1      44.790   2.430   9.903  0.00  0.00    +0.000 NA
ATOM     27  H   UNL     1      44.065   1.790   9.577  0.00  0.00    +0.000 HD
BRANCH  26  28
ATOM     28  C   UNL     1      45.838   2.569   8.878  0.00  0.00    +0.000 C 
ATOM     29  C   UNL     1      45.438   3.506   7.729  0.00  0.00    +0.000 C 
ATOM     30  C   UNL     1      46.482   3.481   6.624  0.00  0.00    +0.000 C 
ATOM     31  O   UNL     1      46.696   2.152   6.158  0.00  0.00    +0.000 OA
ATOM     32  C   UNL     1      47.188   1.298   7.188  0.00  0.00    +0.000 C 
ATOM     33  C   UNL     1      46.175   1.181   8.319  0.00  0.00    +0.000 C 
ENDBRANCH  26  28
ENDBRANCH  25  26
ENDBRANCH  22  25
ENDBRANCH  18  19
ENDBRANCH   1  18
TORSDOF 8
ENDMDL
MODEL 8
REMARK VINA RESULT:    -7.306      3.105      9.032
REMARK INTER + INTRA:         -11.281
REMARK INTER:                  -9.979
REMARK INTRA:                  -1.302
REMARK UNBOUND:                -0.771
REMARK  Name = 
REMARK  8 active torsions:
REMARK  status: ('A' for Active; 'I' for Inactive)
REMARK    1  A    between atoms: N_1  and  C_2
REMARK    2  A    between atoms: C_2  and  C_3
REMARK    3  A    between atoms: C_2  and  C_18
REMARK    4  A    between atoms: C_3  and  C_4
REMARK    5  A    between atoms: C_7  and  C_8
REMARK    6  A    between atoms: C_8  and  N_9
REMARK    7  A    between atoms: N_9  and  C_10
REMARK    8  A    between atoms: C_18  and  C_20
REMARK                            x       y       z     vdW  Elec       q    Type
REMARK                         _______ _______ _______ _____ _____    ______ ____
ROOT
ATOM      1  C   UNL     1      45.956   7.520  12.685  0.00  0.00    +0.000 C 
ENDROOT
BRANCH   1   2
ATOM      2  N   UNL     1      46.399   8.881  12.285  0.00  0.00    +0.000 NA
ATOM      3  H   UNL     1      45.910   9.153  11.433  0.00  0.00    +0.000 HD
ATOM      4  H   UNL     1      47.383   8.817  12.006  0.00  0.00    +0.000 HD
ENDBRANCH   1   2
BRANCH   1   5
ATOM      5  C   UNL     1      44.826   7.042  11.742  0.00  0.00    +0.000 C 
ATOM      6  O   UNL     1      44.210   7.856  11.049  0.00  0.00    +0.000 OA
BRANCH   5   7
ATOM      7  C   UNL     1      44.473   5.617  11.716  0.00  0.00    +0.000 A 
ATOM      8  C   UNL     1      43.818   4.973  12.752  0.00  0.00    +0.000 A 
ATOM      9  S   UNL     1      43.416   3.352  12.392  0.00  0.00    +0.000 S 
ATOM     10  C   UNL     1      44.110   3.463  10.843  0.00  0.00    +0.000 A 
ATOM     11  N   UNL     1      44.073   2.413   9.980  0.00  0.00    +0.000 NA
ATOM     12  C   UNL     1      44.624   2.649   8.834  0.00  0.00    +0.000 A 
ATOM     13  N   UNL     1      45.228   3.830   8.485  0.00  0.00    +0.000 N 
ATOM     14  C   UNL     1      45.392   4.877   9.366  0.00  0.00    +0.000 A 
ATOM     15  O   UNL     1      46.149   5.807   9.111  0.00  0.00    +0.000 OA
ATOM     16  C   UNL     1      44.686   4.700  10.624  0.00  0.00    +0.000 A 
ATOM     17  H   UNL     1      45.715   3.917   7.606  0.00  0.00    +0.000 HD
ENDBRANCH   5   7
ENDBRANCH   1   5
BRANCH   1  18
ATOM     18  C   UNL     1      47.102   6.493  12.634  0.00  0.00    +0.000 C 
BRANCH  18  19
ATOM     19  C   UNL     1      47.505   5.961  13.991  0.00  0.00    +0.000 A 
ATOM     20  C   UNL     1      48.419   6.649  14.801  0.00  0.00    +0.000 A 
ATOM     21  C   UNL     1      48.840   6.100  16.016  0.00  0.00    +0.000 A 
ATOM     22  C   UNL     1      48.348   4.861  16.443  0.00  0.00    +0.000 A 
ATOM     23  C   UNL     1      47.402   4.197  15.648  0.00  0.00    +0.000 A 
ATOM     24  C   UNL     1      46.986   4.741  14.436  0.00  0.00    +0.000 A 
BRANCH  22  25
ATOM     25  C   UNL     1      48.862   4.210  17.703  0.00  0.00    +0.000 C 
BRANCH  25  26
ATOM     26  N   UNL     1      50.205   4.668  18.052  0.00  0.00    +0.000 NA
ATOM     27  H   UNL     1      50.236   4.864  19.054  0.00  0.00    +0.000 HD
BRANCH  26  28
ATOM     28  C   UNL     1      51.243   3.687  17.698  0.00  0.00    +0.000 C 
ATOM     29  C   UNL     1      50.701   2.256  17.562  0.00  0.00    +0.000 C 
ATOM     30  C   UNL     1      51.836   1.265  17.362  0.00  0.00    +0.000 C 
ATOM     31  O   UNL     1      52.786   1.360  18.420  0.00  0.00    +0.000 OA
ATOM     32  C   UNL     1      53.391   2.650  18.480  0.00  0.00    +0.000 C 
ATOM     33  C   UNL     1      52.346   3.722  18.764  0.00  0.00    +0.000 C 
ENDBRANCH  26  28
ENDBRANCH  25  26
ENDBRANCH  22  25
ENDBRANCH  18  19
ENDBRANCH   1  18
TORSDOF 8
ENDMDL
MODEL 9
REMARK VINA RESULT:    -6.694      5.375      8.215
REMARK INTER + INTRA:         -10.401
REMARK INTER:                  -9.317
REMARK INTRA:                  -1.084
REMARK UNBOUND:                -0.771
REMARK  Name = 
REMARK  8 active torsions:
REMARK  status: ('A' for Active; 'I' for Inactive)
REMARK    1  A    between atoms: N_1  and  C_2
REMARK    2  A    between atoms: C_2  and  C_3
REMARK    3  A    between atoms: C_2  and  C_18
REMARK    4  A    between atoms: C_3  and  C_4
REMARK    5  A    between atoms: C_7  and  C_8
REMARK    6  A    between atoms: C_8  and  N_9
REMARK    7  A    between atoms: N_9  and  C_10
REMARK    8  A    between atoms: C_18  and  C_20
REMARK                            x       y       z     vdW  Elec       q    Type
REMARK                         _______ _______ _______ _____ _____    ______ ____
ROOT
ATOM      1  C   UNL     1      46.808   6.911  12.340  0.00  0.00    +0.000 C 
ENDROOT
BRANCH   1   2
ATOM      2  N   UNL     1      46.800   6.563  13.785  0.00  0.00    +0.000 NA
ATOM      3  H   UNL     1      46.743   5.550  13.884  0.00  0.00    +0.000 HD
ATOM      4  H   UNL     1      45.920   6.908  14.181  0.00  0.00    +0.000 HD
ENDBRANCH   1   2
BRANCH   1   5
ATOM      5  C   UNL     1      45.407   6.652  11.735  0.00  0.00    +0.000 C 
ATOM      6  O   UNL     1      44.694   7.599  11.395  0.00  0.00    +0.000 OA
BRANCH   5   7
ATOM      7  C   UNL     1      44.928   5.270  11.611  0.00  0.00    +0.000 A 
ATOM      8  C   UNL     1      44.326   4.574  12.646  0.00  0.00    +0.000 A 
ATOM      9  S   UNL     1      43.746   3.036  12.178  0.00  0.00    +0.000 S 
ATOM     10  C   UNL     1      44.287   3.255  10.580  0.00  0.00    +0.000 A 
ATOM     11  N   UNL     1      44.069   2.308   9.629  0.00  0.00    +0.000 NA
ATOM     12  C   UNL     1      44.520   2.619   8.458  0.00  0.00    +0.000 A 
ATOM     13  N   UNL     1      45.189   3.779   8.160  0.00  0.00    +0.000 N 
ATOM     14  C   UNL     1      45.534   4.711   9.114  0.00  0.00    +0.000 A 
ATOM     15  O   UNL     1      46.340   5.600   8.868  0.00  0.00    +0.000 OA
ATOM     16  C   UNL     1      44.946   4.459  10.419  0.00  0.00    +0.000 A 
ATOM     17  H   UNL     1      45.590   3.919   7.245  0.00  0.00    +0.000 HD
ENDBRANCH   5   7
ENDBRANCH   1   5
BRANCH   1  18
ATOM     18  C   UNL     1      47.181   8.384  12.095  0.00  0.00    +0.000 C 
BRANCH  18  19
ATOM     19  C   UNL     1      48.637   8.594  11.745  0.00  0.00    +0.000 A 
ATOM     20  C   UNL     1      49.156   9.878  11.523  0.00  0.00    +0.000 A 
ATOM     21  C   UNL     1      50.484  10.044  11.121  0.00  0.00    +0.000 A 
ATOM     22  C   UNL     1      51.317   8.932  10.944  0.00  0.00    +0.000 A 
ATOM     23  C   UNL     1      50.804   7.653  11.207  0.00  0.00    +0.000 A 
ATOM     24  C   UNL     1      49.480   7.487  11.603  0.00  0.00    +0.000 A 
BRANCH  22  25
ATOM     25  C   UNL     1      52.723   9.085  10.420  0.00  0.00    +0.000 C 
BRANCH  25  26
ATOM     26  N   UNL     1      52.764   9.135   8.960  0.00  0.00    +0.000 NA
ATOM     27  H   UNL     1      53.244   9.989   8.673  0.00  0.00    +0.000 HD
BRANCH  26  28
ATOM     28  C   UNL     1      53.434   7.961   8.377  0.00  0.00    +0.000 C 
ATOM     29  C   UNL     1      52.461   6.977   7.713  0.00  0.00    +0.000 C 
ATOM     30  C   UNL     1      53.184   5.711   7.279  0.00  0.00    +0.000 C 
ATOM     31  O   UNL     1      53.858   5.109   8.380  0.00  0.00    +0.000 OA
ATOM     32  C   UNL     1      54.855   5.968   8.930  0.00  0.00    +0.000 C 
ATOM     33  C   UNL     1      54.226   7.242   9.477  0.00  0.00    +0.000 C 
ENDBRANCH  26  28
ENDBRANCH  25  26
ENDBRANCH  22  25
ENDBRANCH  18  19
ENDBRANCH   1  18
TORSDOF 8
ENDMDL
