MODEL 1
REMARK VINA RESULT:    -7.672      0.000      0.000
REMARK INTER + INTRA:         -12.673
REMARK INTER:                 -11.260
REMARK INTRA:                  -1.412
REMARK UNBOUND:                -1.412
REMARK  Name = 
REMARK  9 active torsions:
REMARK  status: ('A' for Active; 'I' for Inactive)
REMARK    1  A    between atoms: C_1  and  O_2
REMARK    2  A    between atoms: O_2  and  C_3
REMARK    3  A    between atoms: C_10  and  C_11
REMARK    4  A    between atoms: N_13  and  C_14
REMARK    5  A    between atoms: C_14  and  C_15
REMARK    6  A    between atoms: C_18  and  C_19
REMARK    7  A    between atoms: C_19  and  O_20
REMARK    8  A    between atoms: O_20  and  C_21
REMARK    9  A    between atoms: C_21  and  C_22
REMARK                            x       y       z     vdW  Elec       q    Type
REMARK                         _______ _______ _______ _____ _____    ______ ____
ROOT
ATOM      1  C   UNL     1      47.037   7.871  13.205  0.00  0.00    +0.000 C 
ENDROOT
BRANCH   1   2
ATOM      2  C   UNL     1      46.137   6.961  12.415  0.00  0.00    +0.000 A 
ATOM      3  C   UNL     1      44.920   6.512  12.945  0.00  0.00    +0.000 A 
ATOM      4  C   UNL     1      44.086   5.684  12.190  0.00  0.00    +0.000 A 
ATOM      5  C   UNL     1      44.455   5.296  10.895  0.00  0.00    +0.000 A 
ATOM      6  C   UNL     1      45.687   5.716  10.383  0.00  0.00    +0.000 A 
ATOM      7  C   UNL     1      46.522   6.537  11.138  0.00  0.00    +0.000 A 
BRANCH   5   8
ATOM      8  C   UNL     1      43.522   4.474  10.043  0.00  0.00    +0.000 C 
BRANCH   8   9
ATOM      9  O   UNL     1      44.191   3.938   8.903  0.00  0.00    +0.000 OA
BRANCH   9  10
ATOM     10  C   UNL     1      44.639   2.593   9.103  0.00  0.00    +0.000 C 
BRANCH  10  11
ATOM     11  C   UNL     1      45.826   2.327   8.218  0.00  0.00    +0.000 A 
ATOM     12  C   UNL     1      46.262   1.022   8.009  0.00  0.00    +0.000 A 
ATOM     13  N   UNL     1      47.312   0.714   7.211  0.00  0.00    +0.000 NA
ATOM     14  C   UNL     1      47.917   1.770   6.629  0.00  0.00    +0.000 A 
ATOM     15  C   UNL     1      47.490   3.073   6.823  0.00  0.00    +0.000 A 
ATOM     16  N   UNL     1      46.435   3.382   7.613  0.00  0.00    +0.000 NA
ENDBRANCH  10  11
ENDBRANCH   9  10
ENDBRANCH   8   9
ENDBRANCH   5   8
ENDBRANCH   1   2
BRANCH   1  19
ATOM     17  C   UNL     1      48.767   6.857  14.598  0.00  0.00    +0.000 C 
ATOM     18  O   UNL     1      49.592   7.023  13.699  0.00  0.00    +0.000 OA
ATOM     19  N   UNL     1      47.467   7.252  14.434  0.00  0.00    +0.000 N 
ATOM     20  H   UNL     1      46.790   7.127  15.177  0.00  0.00    +0.000 HD
BRANCH  17  28
ATOM     21  C   UNL     1      47.466   4.235  16.441  0.00  0.00    +0.000 A 
ATOM     22  N   UNL     1      47.203   3.267  17.345  0.00  0.00    +0.000 NA
ATOM     23  C   UNL     1      48.003   3.154  18.408  0.00  0.00    +0.000 A 
ATOM     24  N   UNL     1      49.060   3.906  18.692  0.00  0.00    +0.000 NA
ATOM     25  C   UNL     1      49.292   4.857  17.771  0.00  0.00    +0.000 A 
ATOM     26  S   UNL     1      50.604   5.911  17.987  0.00  0.00    +0.000 S 
ATOM     27  C   UNL     1      50.247   6.723  16.542  0.00  0.00    +0.000 A 
ATOM     28  C   UNL     1      49.141   6.220  15.866  0.00  0.00    +0.000 A 
ATOM     29  C   UNL     1      48.562   5.102  16.610  0.00  0.00    +0.000 A 
BRANCH  21  31
ATOM     30  C   UNL     1      47.098   3.617  14.209  0.00  0.00    +0.000 C 
ATOM     31  O   UNL     1      46.630   4.345  15.346  0.00  0.00    +0.000 OA
ENDBRANCH  21  31
ENDBRANCH  17  28
ENDBRANCH   1  19
TORSDOF 8
ENDMDL
MODEL 2
REMARK VINA RESULT:    -7.503      1.513      1.831
REMARK INTER + INTRA:         -12.424
REMARK INTER:                 -11.322
REMARK INTRA:                  -1.102
REMARK UNBOUND:                -1.412
REMARK  Name = 
REMARK  9 active torsions:
REMARK  status: ('A' for Active; 'I' for Inactive)
REMARK    1  A    between atoms: C_1  and  O_2
REMARK    2  A    between atoms: O_2  and  C_3
REMARK    3  A    between atoms: C_10  and  C_11
REMARK    4  A    between atoms: N_13  and  C_14
REMARK    5  A    between atoms: C_14  and  C_15
REMARK    6  A    between atoms: C_18  and  C_19
REMARK    7  A    between atoms: C_19  and  O_20
REMARK    8  A    between atoms: O_20  and  C_21
REMARK    9  A    between atoms: C_21  and  C_22
REMARK                            x       y       z     vdW  Elec       q    Type
REMARK                         _______ _______ _______ _____ _____    ______ ____
ROOT
ATOM      1  C   UNL     1      48.015   6.881  13.246  0.00  0.00    +0.000 C 
ENDROOT
BRANCH   1   2
ATOM      2  C   UNL     1      46.893   6.087  12.635  0.00  0.00    +0.000 A 
ATOM      3  C   UNL     1      46.422   6.376  11.348  0.00  0.00    +0.000 A 
ATOM      4  C   UNL     1      45.394   5.616  10.786  0.00  0.00    +0.000 A 
ATOM      5  C   UNL     1      44.824   4.554  11.502  0.00  0.00    +0.000 A 
ATOM      6  C   UNL     1      45.273   4.290  12.801  0.00  0.00    +0.000 A 
ATOM      7  C   UNL     1      46.294   5.053  13.363  0.00  0.00    +0.000 A 
BRANCH   5   8
ATOM      8  C   UNL     1      43.775   3.676  10.870  0.00  0.00    +0.000 C 
BRANCH   8   9
ATOM      9  O   UNL     1      44.100   3.364   9.516  0.00  0.00    +0.000 OA
BRANCH   9  10
ATOM     10  C   UNL     1      44.772   2.108   9.381  0.00  0.00    +0.000 C 
BRANCH  10  11
ATOM     11  C   UNL     1      45.776   2.198   8.263  0.00  0.00    +0.000 A 
ATOM     12  C   UNL     1      46.498   1.071   7.882  0.00  0.00    +0.000 A 
ATOM     13  N   UNL     1      47.403   1.080   6.874  0.00  0.00    +0.000 NA
ATOM     14  C   UNL     1      47.562   2.272   6.260  0.00  0.00    +0.000 A 
ATOM     15  C   UNL     1      46.846   3.399   6.625  0.00  0.00    +0.000 A 
ATOM     16  N   UNL     1      45.934   3.389   7.626  0.00  0.00    +0.000 NA
ENDBRANCH  10  11
ENDBRANCH   9  10
ENDBRANCH   8   9
ENDBRANCH   5   8
ENDBRANCH   1   2
BRANCH   1  19
ATOM     17  C   UNL     1      48.997   6.927  15.480  0.00  0.00    +0.000 C 
ATOM     18  O   UNL     1      50.123   6.832  14.991  0.00  0.00    +0.000 OA
ATOM     19  N   UNL     1      47.888   6.958  14.679  0.00  0.00    +0.000 N 
ATOM     20  H   UNL     1      46.962   7.047  15.080  0.00  0.00    +0.000 HD
BRANCH  17  28
ATOM     21  C   UNL     1      48.895   4.559  18.000  0.00  0.00    +0.000 A 
ATOM     22  N   UNL     1      48.825   3.885  19.168  0.00  0.00    +0.000 NA
ATOM     23  C   UNL     1      48.630   4.578  20.292  0.00  0.00    +0.000 A 
ATOM     24  N   UNL     1      48.490   5.894  20.403  0.00  0.00    +0.000 NA
ATOM     25  C   UNL     1      48.567   6.532  19.222  0.00  0.00    +0.000 A 
ATOM     26  S   UNL     1      48.402   8.220  19.185  0.00  0.00    +0.000 S 
ATOM     27  C   UNL     1      48.603   8.248  17.502  0.00  0.00    +0.000 A 
ATOM     28  C   UNL     1      48.802   6.994  16.934  0.00  0.00    +0.000 A 
ATOM     29  C   UNL     1      48.773   5.961  17.967  0.00  0.00    +0.000 A 
BRANCH  21  31
ATOM     30  C   UNL     1      47.882   3.332  16.278  0.00  0.00    +0.000 C 
ATOM     31  O   UNL     1      49.095   3.832  16.842  0.00  0.00    +0.000 OA
ENDBRANCH  21  31
ENDBRANCH  17  28
ENDBRANCH   1  19
TORSDOF 8
ENDMDL
MODEL 3
REMARK VINA RESULT:    -6.957      2.030      3.447
REMARK INTER + INTRA:         -11.624
REMARK INTER:                 -10.339
REMARK INTRA:                  -1.284
REMARK UNBOUND:                -1.412
REMARK  Name = 
REMARK  9 active torsions:
REMARK  status: ('A' for Active; 'I' for Inactive)
REMARK    1  A    between atoms: C_1  and  O_2
REMARK    2  A    between atoms: O_2  and  C_3
REMARK    3  A    between atoms: C_10  and  C_11
REMARK    4  A    between atoms: N_13  and  C_14
REMARK    5  A    between atoms: C_14  and  C_15
REMARK    6  A    between atoms: C_18  and  C_19
REMARK    7  A    between atoms: C_19  and  O_20
REMARK    8  A    between atoms: O_20  and  C_21
REMARK    9  A    between atoms: C_21  and  C_22
REMARK                            x       y       z     vdW  Elec       q    Type
REMARK                         _______ _______ _______ _____ _____    ______ ____
ROOT
ATOM      1  C   UNL     1      47.222   4.048  14.936  0.00  0.00    +0.000 C 
ENDROOT
BRANCH   1   2
ATOM      2  C   UNL     1      46.363   4.245  13.718  0.00  0.00    +0.000 A 
ATOM      3  C   UNL     1      45.869   3.149  12.999  0.00  0.00    +0.000 A 
ATOM      4  C   UNL     1      45.054   3.349  11.882  0.00  0.00    +0.000 A 
ATOM      5  C   UNL     1      44.720   4.645  11.470  0.00  0.00    +0.000 A 
ATOM      6  C   UNL     1      45.244   5.738  12.169  0.00  0.00    +0.000 A 
ATOM      7  C   UNL     1      46.061   5.539  13.279  0.00  0.00    +0.000 A 
BRANCH   5   8
ATOM      8  C   UNL     1      43.772   4.867  10.319  0.00  0.00    +0.000 C 
BRANCH   8   9
ATOM      9  O   UNL     1      44.104   4.042   9.202  0.00  0.00    +0.000 OA
BRANCH   9  10
ATOM     10  C   UNL     1      45.324   4.435   8.565  0.00  0.00    +0.000 C 
BRANCH  10  11
ATOM     11  C   UNL     1      46.052   3.208   8.085  0.00  0.00    +0.000 A 
ATOM     12  C   UNL     1      45.685   1.951   8.557  0.00  0.00    +0.000 A 
ATOM     13  N   UNL     1      46.286   0.807   8.153  0.00  0.00    +0.000 NA
ATOM     14  C   UNL     1      47.281   0.970   7.256  0.00  0.00    +0.000 A 
ATOM     15  C   UNL     1      47.653   2.214   6.774  0.00  0.00    +0.000 A 
ATOM     16  N   UNL     1      47.046   3.358   7.169  0.00  0.00    +0.000 NA
ENDBRANCH  10  11
ENDBRANCH   9  10
ENDBRANCH   8   9
ENDBRANCH   5   8
ENDBRANCH   1   2
BRANCH   1  19
ATOM     17  C   UNL     1      48.539   5.409  16.477  0.00  0.00    +0.000 C 
ATOM     18  O   UNL     1      49.263   4.443  16.717  0.00  0.00    +0.000 OA
ATOM     19  N   UNL     1      47.495   5.298  15.599  0.00  0.00    +0.000 N 
ATOM     20  H   UNL     1      46.905   6.095  15.392  0.00  0.00    +0.000 HD
BRANCH  17  28
ATOM     21  C   UNL     1      48.682   8.676  15.348  0.00  0.00    +0.000 A 
ATOM     22  N   UNL     1      48.770  10.017  15.211  0.00  0.00    +0.000 NA
ATOM     23  C   UNL     1      48.981  10.756  16.302  0.00  0.00    +0.000 A 
ATOM     24  N   UNL     1      49.121  10.315  17.547  0.00  0.00    +0.000 NA
ATOM     25  C   UNL     1      49.026   8.979  17.646  0.00  0.00    +0.000 A 
ATOM     26  S   UNL     1      49.188   8.251  19.170  0.00  0.00    +0.000 S 
ATOM     27  C   UNL     1      48.962   6.707  18.507  0.00  0.00    +0.000 A 
ATOM     28  C   UNL     1      48.756   6.705  17.132  0.00  0.00    +0.000 A 
ATOM     29  C   UNL     1      48.802   8.070  16.613  0.00  0.00    +0.000 A 
BRANCH  21  31
ATOM     30  C   UNL     1      49.675   7.520  13.566  0.00  0.00    +0.000 C 
ATOM     31  O   UNL     1      48.465   7.920  14.211  0.00  0.00    +0.000 OA
ENDBRANCH  21  31
ENDBRANCH  17  28
ENDBRANCH   1  19
TORSDOF 8
ENDMDL
MODEL 4
REMARK VINA RESULT:    -6.949      2.552      3.450
REMARK INTER + INTRA:         -11.612
REMARK INTER:                 -10.615
REMARK INTRA:                  -0.997
REMARK UNBOUND:                -1.412
REMARK  Name = 
REMARK  9 active torsions:
REMARK  status: ('A' for Active; 'I' for Inactive)
REMARK    1  A    between atoms: C_1  and  O_2
REMARK    2  A    between atoms: O_2  and  C_3
REMARK    3  A    between atoms: C_10  and  C_11
REMARK    4  A    between atoms: N_13  and  C_14
REMARK    5  A    between atoms: C_14  and  C_15
REMARK    6  A    between atoms: C_18  and  C_19
REMARK    7  A    between atoms: C_19  and  O_20
REMARK    8  A    between atoms: O_20  and  C_21
REMARK    9  A    between atoms: C_21  and  C_22
REMARK                            x       y       z     vdW  Elec       q    Type
REMARK                         _______ _______ _______ _____ _____    ______ ____
ROOT
ATOM      1  C   UNL     1      48.353   6.285  13.770  0.00  0.00    +0.000 C 
ENDROOT
BRANCH   1   2
ATOM      2  C   UNL     1      47.145   5.902  12.962  0.00  0.00    +0.000 A 
ATOM      3  C   UNL     1      46.780   6.629  11.821  0.00  0.00    +0.000 A 
ATOM      4  C   UNL     1      45.666   6.248  11.069  0.00  0.00    +0.000 A 
ATOM      5  C   UNL     1      44.904   5.134  11.445  0.00  0.00    +0.000 A 
ATOM      6  C   UNL     1      45.249   4.432  12.605  0.00  0.00    +0.000 A 
ATOM      7  C   UNL     1      46.356   4.816  13.358  0.00  0.00    +0.000 A 
BRANCH   5   8
ATOM      8  C   UNL     1      43.753   4.666  10.591  0.00  0.00    +0.000 C 
BRANCH   8   9
ATOM      9  O   UNL     1      44.209   4.114   9.357  0.00  0.00    +0.000 OA
BRANCH   9  10
ATOM     10  C   UNL     1      44.487   2.712   9.444  0.00  0.00    +0.000 C 
BRANCH  10  11
ATOM     11  C   UNL     1      45.577   2.360   8.468  0.00  0.00    +0.000 A 
ATOM     12  C   UNL     1      46.148   3.350   7.674  0.00  0.00    +0.000 A 
ATOM     13  N   UNL     1      47.144   3.103   6.789  0.00  0.00    +0.000 NA
ATOM     14  C   UNL     1      47.546   1.817   6.726  0.00  0.00    +0.000 A 
ATOM     15  C   UNL     1      46.991   0.823   7.515  0.00  0.00    +0.000 A 
ATOM     16  N   UNL     1      46.002   1.070   8.407  0.00  0.00    +0.000 NA
ENDBRANCH  10  11
ENDBRANCH   9  10
ENDBRANCH   8   9
ENDBRANCH   5   8
ENDBRANCH   1   2
BRANCH   1  19
ATOM     17  C   UNL     1      48.923   6.479  16.136  0.00  0.00    +0.000 C 
ATOM     18  O   UNL     1      50.069   6.100  15.895  0.00  0.00    +0.000 OA
ATOM     19  N   UNL     1      48.001   6.599  15.132  0.00  0.00    +0.000 N 
ATOM     20  H   UNL     1      47.060   6.920  15.328  0.00  0.00    +0.000 HD
BRANCH  17  28
ATOM     21  C   UNL     1      47.937   9.389  17.727  0.00  0.00    +0.000 A 
ATOM     22  N   UNL     1      47.507  10.333  18.591  0.00  0.00    +0.000 NA
ATOM     23  C   UNL     1      47.229   9.970  19.845  0.00  0.00    +0.000 A 
ATOM     24  N   UNL     1      47.329   8.751  20.362  0.00  0.00    +0.000 NA
ATOM     25  C   UNL     1      47.758   7.837  19.474  0.00  0.00    +0.000 A 
ATOM     26  S   UNL     1      47.948   6.227  19.975  0.00  0.00    +0.000 S 
ATOM     27  C   UNL     1      48.463   5.760  18.429  0.00  0.00    +0.000 A 
ATOM     28  C   UNL     1      48.499   6.798  17.505  0.00  0.00    +0.000 A 
ATOM     29  C   UNL     1      48.083   8.049  18.135  0.00  0.00    +0.000 A 
BRANCH  21  31
ATOM     30  C   UNL     1      49.598  10.121  16.242  0.00  0.00    +0.000 C 
ATOM     31  O   UNL     1      48.225   9.776  16.432  0.00  0.00    +0.000 OA
ENDBRANCH  21  31
ENDBRANCH  17  28
ENDBRANCH   1  19
TORSDOF 8
ENDMDL
MODEL 5
REMARK VINA RESULT:    -6.751      2.551      3.193
REMARK INTER + INTRA:         -11.320
REMARK INTER:                 -10.351
REMARK INTRA:                  -0.969
REMARK UNBOUND:                -1.412
REMARK  Name = 
REMARK  9 active torsions:
REMARK  status: ('A' for Active; 'I' for Inactive)
REMARK    1  A    between atoms: C_1  and  O_2
REMARK    2  A    between atoms: O_2  and  C_3
REMARK    3  A    between atoms: C_10  and  C_11
REMARK    4  A    between atoms: N_13  and  C_14
REMARK    5  A    between atoms: C_14  and  C_15
REMARK    6  A    between atoms: C_18  and  C_19
REMARK    7  A    between atoms: C_19  and  O_20
REMARK    8  A    between atoms: O_20  and  C_21
REMARK    9  A    between atoms: C_21  and  C_22
REMARK                            x       y       z     vdW  Elec       q    Type
REMARK                         _______ _______ _______ _____ _____    ______ ____
ROOT
ATOM      1  C   UNL     1      47.518   4.457  14.735  0.00  0.00    +0.000 C 
ENDROOT
BRANCH   1   2
ATOM      2  C   UNL     1      46.491   4.547  13.641  0.00  0.00    +0.000 A 
ATOM      3  C   UNL     1      46.036   5.788  13.178  0.00  0.00    +0.000 A 
ATOM      4  C   UNL     1      45.097   5.854  12.146  0.00  0.00    +0.000 A 
ATOM      5  C   UNL     1      44.602   4.681  11.560  0.00  0.00    +0.000 A 
ATOM      6  C   UNL     1      45.031   3.442  12.049  0.00  0.00    +0.000 A 
ATOM      7  C   UNL     1      45.963   3.376  13.082  0.00  0.00    +0.000 A 
BRANCH   5   8
ATOM      8  C   UNL     1      43.655   4.747  10.390  0.00  0.00    +0.000 C 
BRANCH   8   9
ATOM      9  O   UNL     1      44.033   3.834   9.360  0.00  0.00    +0.000 OA
BRANCH   9  10
ATOM     10  C   UNL     1      45.095   4.332   8.540  0.00  0.00    +0.000 C 
BRANCH  10  11
ATOM     11  C   UNL     1      45.932   3.179   8.057  0.00  0.00    +0.000 A 
ATOM     12  C   UNL     1      45.685   1.892   8.527  0.00  0.00    +0.000 A 
ATOM     13  N   UNL     1      46.389   0.810   8.120  0.00  0.00    +0.000 NA
ATOM     14  C   UNL     1      47.362   1.066   7.221  0.00  0.00    +0.000 A 
ATOM     15  C   UNL     1      47.615   2.339   6.740  0.00  0.00    +0.000 A 
ATOM     16  N   UNL     1      46.905   3.422   7.138  0.00  0.00    +0.000 NA
ENDBRANCH  10  11
ENDBRANCH   9  10
ENDBRANCH   8   9
ENDBRANCH   5   8
ENDBRANCH   1   2
BRANCH   1  19
ATOM     17  C   UNL     1      48.620   5.888  16.378  0.00  0.00    +0.000 C 
ATOM     18  O   UNL     1      49.466   5.016  16.576  0.00  0.00    +0.000 OA
ATOM     19  N   UNL     1      47.611   5.691  15.475  0.00  0.00    +0.000 N 
ATOM     20  H   UNL     1      46.920   6.412  15.304  0.00  0.00    +0.000 HD
BRANCH  17  28
ATOM     21  C   UNL     1      47.931   6.792  19.646  0.00  0.00    +0.000 A 
ATOM     22  N   UNL     1      47.755   7.427  20.825  0.00  0.00    +0.000 NA
ATOM     23  C   UNL     1      47.986   8.740  20.881  0.00  0.00    +0.000 A 
ATOM     24  N   UNL     1      48.381   9.523  19.884  0.00  0.00    +0.000 NA
ATOM     25  C   UNL     1      48.548   8.858  18.728  0.00  0.00    +0.000 A 
ATOM     26  S   UNL     1      49.045   9.713  17.349  0.00  0.00    +0.000 S 
ATOM     27  C   UNL     1      49.026   8.301  16.411  0.00  0.00    +0.000 A 
ATOM     28  C   UNL     1      48.652   7.159  17.112  0.00  0.00    +0.000 A 
ATOM     29  C   UNL     1      48.356   7.495  18.503  0.00  0.00    +0.000 A 
BRANCH  21  31
ATOM     30  C   UNL     1      48.729   4.654  20.185  0.00  0.00    +0.000 C 
ATOM     31  O   UNL     1      47.686   5.432  19.598  0.00  0.00    +0.000 OA
ENDBRANCH  21  31
ENDBRANCH  17  28
ENDBRANCH   1  19
TORSDOF 8
ENDMDL
MODEL 6
REMARK VINA RESULT:    -6.702      4.748      9.266
REMARK INTER + INTRA:         -11.248
REMARK INTER:                 -10.403
REMARK INTRA:                  -0.846
REMARK UNBOUND:                -1.412
REMARK  Name = 
REMARK  9 active torsions:
REMARK  status: ('A' for Active; 'I' for Inactive)
REMARK    1  A    between atoms: C_1  and  O_2
REMARK    2  A    between atoms: O_2  and  C_3
REMARK    3  A    between atoms: C_10  and  C_11
REMARK    4  A    between atoms: N_13  and  C_14
REMARK    5  A    between atoms: C_14  and  C_15
REMARK    6  A    between atoms: C_18  and  C_19
REMARK    7  A    between atoms: C_19  and  O_20
REMARK    8  A    between atoms: O_20  and  C_21
REMARK    9  A    between atoms: C_21  and  C_22
REMARK                            x       y       z     vdW  Elec       q    Type
REMARK                         _______ _______ _______ _____ _____    ______ ____
ROOT
ATOM      1  C   UNL     1      47.312   3.429  16.968  0.00  0.00    +0.000 C 
ENDROOT
BRANCH   1   2
ATOM      2  C   UNL     1      48.785   3.298  17.237  0.00  0.00    +0.000 A 
ATOM      3  C   UNL     1      49.517   4.362  17.780  0.00  0.00    +0.000 A 
ATOM      4  C   UNL     1      50.881   4.217  18.044  0.00  0.00    +0.000 A 
ATOM      5  C   UNL     1      51.532   3.006  17.772  0.00  0.00    +0.000 A 
ATOM      6  C   UNL     1      50.806   1.957  17.196  0.00  0.00    +0.000 A 
ATOM      7  C   UNL     1      49.447   2.104  16.928  0.00  0.00    +0.000 A 
BRANCH   5   8
ATOM      8  C   UNL     1      52.982   2.814  18.133  0.00  0.00    +0.000 C 
BRANCH   8   9
ATOM      9  O   UNL     1      53.238   1.483  18.581  0.00  0.00    +0.000 OA
BRANCH   9  10
ATOM     10  C   UNL     1      54.478   0.962  18.092  0.00  0.00    +0.000 C 
BRANCH  10  11
ATOM     11  C   UNL     1      54.445  -0.542  18.157  0.00  0.00    +0.000 A 
ATOM     12  C   UNL     1      54.994  -1.296  17.125  0.00  0.00    +0.000 A 
ATOM     13  N   UNL     1      55.013  -2.650  17.130  0.00  0.00    +0.000 NA
ATOM     14  C   UNL     1      54.452  -3.226  18.214  0.00  0.00    +0.000 A 
ATOM     15  C   UNL     1      53.907  -2.487  19.250  0.00  0.00    +0.000 A 
ATOM     16  N   UNL     1      53.896  -1.133  19.252  0.00  0.00    +0.000 NA
ENDBRANCH  10  11
ENDBRANCH   9  10
ENDBRANCH   8   9
ENDBRANCH   5   8
ENDBRANCH   1   2
BRANCH   1  19
ATOM     17  C   UNL     1      47.066   4.252  14.683  0.00  0.00    +0.000 C 
ATOM     18  O   UNL     1      47.327   3.131  14.247  0.00  0.00    +0.000 OA
ATOM     19  N   UNL     1      47.038   4.489  16.030  0.00  0.00    +0.000 N 
ATOM     20  H   UNL     1      46.813   5.409  16.391  0.00  0.00    +0.000 HD
BRANCH  17  28
ATOM     21  C   UNL     1      44.344   5.181  12.759  0.00  0.00    +0.000 A 
ATOM     22  N   UNL     1      43.459   5.792  11.942  0.00  0.00    +0.000 NA
ATOM     23  C   UNL     1      43.822   6.930  11.348  0.00  0.00    +0.000 A 
ATOM     24  N   UNL     1      44.989   7.554  11.467  0.00  0.00    +0.000 NA
ATOM     25  C   UNL     1      45.843   6.919  12.288  0.00  0.00    +0.000 A 
ATOM     26  S   UNL     1      47.384   7.581  12.545  0.00  0.00    +0.000 S 
ATOM     27  C   UNL     1      47.801   6.317  13.595  0.00  0.00    +0.000 A 
ATOM     28  C   UNL     1      46.794   5.376  13.778  0.00  0.00    +0.000 A 
ATOM     29  C   UNL     1      45.619   5.734  12.986  0.00  0.00    +0.000 A 
BRANCH  21  31
ATOM     30  C   UNL     1      43.737   2.939  12.438  0.00  0.00    +0.000 C 
ATOM     31  O   UNL     1      43.960   4.000  13.367  0.00  0.00    +0.000 OA
ENDBRANCH  21  31
ENDBRANCH  17  28
ENDBRANCH   1  19
TORSDOF 8
ENDMDL
MODEL 7
REMARK VINA RESULT:    -6.209      4.738      9.445
REMARK INTER + INTRA:         -10.525
REMARK INTER:                  -9.362
REMARK INTRA:                  -1.162
REMARK UNBOUND:                -1.412
REMARK  Name = 
REMARK  9 active torsions:
REMARK  status: ('A' for Active; 'I' for Inactive)
REMARK    1  A    between atoms: C_1  and  O_2
REMARK    2  A    between atoms: O_2  and  C_3
REMARK    3  A    between atoms: C_10  and  C_11
REMARK    4  A    between atoms: N_13  and  C_14
REMARK    5  A    between atoms: C_14  and  C_15
REMARK    6  A    between atoms: C_18  and  C_19
REMARK    7  A    between atoms: C_19  and  O_20
REMARK    8  A    between atoms: O_20  and  C_21
REMARK    9  A    between atoms: C_21  and  C_22
REMARK                            x       y       z     vdW  Elec       q    Type
REMARK                         _______ _______ _______ _____ _____    ______ ____
ROOT
ATOM      1  C   UNL     1      47.377   3.692  16.936  0.00  0.00    +0.000 C 
ENDROOT
BRANCH   1   2
ATOM      2  C   UNL     1      48.826   3.412  17.221  0.00  0.00    +0.000 A 
ATOM      3  C   UNL     1      49.378   2.147  16.977  0.00  0.00    +0.000 A 
ATOM      4  C   UNL     1      50.732   1.909  17.228  0.00  0.00    +0.000 A 
ATOM      5  C   UNL     1      51.552   2.932  17.722  0.00  0.00    +0.000 A 
ATOM      6  C   UNL     1      50.991   4.183  17.997  0.00  0.00    +0.000 A 
ATOM      7  C   UNL     1      49.640   4.419  17.753  0.00  0.00    +0.000 A 
BRANCH   5   8
ATOM      8  C   UNL     1      53.031   2.707  17.913  0.00  0.00    +0.000 C 
BRANCH   8   9
ATOM      9  O   UNL     1      53.284   1.639  18.824  0.00  0.00    +0.000 OA
BRANCH   9  10
ATOM     10  C   UNL     1      54.646   1.200  18.801  0.00  0.00    +0.000 C 
BRANCH  10  11
ATOM     11  C   UNL     1      54.684  -0.301  18.708  0.00  0.00    +0.000 A 
ATOM     12  C   UNL     1      54.833  -0.919  17.469  0.00  0.00    +0.000 A 
ATOM     13  N   UNL     1      54.892  -2.264  17.317  0.00  0.00    +0.000 NA
ATOM     14  C   UNL     1      54.790  -2.973  18.461  0.00  0.00    +0.000 A 
ATOM     15  C   UNL     1      54.647  -2.371  19.700  0.00  0.00    +0.000 A 
ATOM     16  N   UNL     1      54.597  -1.027  19.855  0.00  0.00    +0.000 NA
ENDBRANCH  10  11
ENDBRANCH   9  10
ENDBRANCH   8   9
ENDBRANCH   5   8
ENDBRANCH   1   2
BRANCH   1  19
ATOM     17  C   UNL     1      47.157   4.324  14.587  0.00  0.00    +0.000 C 
ATOM     18  O   UNL     1      47.229   3.139  14.258  0.00  0.00    +0.000 OA
ATOM     19  N   UNL     1      47.223   4.688  15.905  0.00  0.00    +0.000 N 
ATOM     20  H   UNL     1      47.154   5.661  16.177  0.00  0.00    +0.000 HD
BRANCH  17  28
ATOM     21  C   UNL     1      48.969   7.174  13.836  0.00  0.00    +0.000 A 
ATOM     22  N   UNL     1      49.469   8.312  13.310  0.00  0.00    +0.000 NA
ATOM     23  C   UNL     1      48.840   8.863  12.270  0.00  0.00    +0.000 A 
ATOM     24  N   UNL     1      47.744   8.411  11.671  0.00  0.00    +0.000 NA
ATOM     25  C   UNL     1      47.275   7.277  12.219  0.00  0.00    +0.000 A 
ATOM     26  S   UNL     1      45.874   6.568  11.576  0.00  0.00    +0.000 S 
ATOM     27  C   UNL     1      45.941   5.305  12.705  0.00  0.00    +0.000 A 
ATOM     28  C   UNL     1      47.016   5.385  13.583  0.00  0.00    +0.000 A 
ATOM     29  C   UNL     1      47.815   6.575  13.296  0.00  0.00    +0.000 A 
BRANCH  21  31
ATOM     30  C   UNL     1      50.753   7.379  15.344  0.00  0.00    +0.000 C 
ATOM     31  O   UNL     1      49.626   6.613  14.914  0.00  0.00    +0.000 OA
ENDBRANCH  21  31
ENDBRANCH  17  28
ENDBRANCH   1  19
TORSDOF 8
ENDMDL
MODEL 8
REMARK VINA RESULT:    -6.155      2.032      3.093
REMARK INTER + INTRA:         -10.447
REMARK INTER:                  -9.480
REMARK INTRA:                  -0.966
REMARK UNBOUND:                -1.412
REMARK  Name = 
REMARK  9 active torsions:
REMARK  status: ('A' for Active; 'I' for Inactive)
REMARK    1  A    between atoms: C_1  and  O_2
REMARK    2  A    between atoms: O_2  and  C_3
REMARK    3  A    between atoms: C_10  and  C_11
REMARK    4  A    between atoms: N_13  and  C_14
REMARK    5  A    between atoms: C_14  and  C_15
REMARK    6  A    between atoms: C_18  and  C_19
REMARK    7  A    between atoms: C_19  and  O_20
REMARK    8  A    between atoms: O_20  and  C_21
REMARK    9  A    between atoms: C_21  and  C_22
REMARK                            x       y       z     vdW  Elec       q    Type
REMARK                         _______ _______ _______ _____ _____    ______ ____
ROOT
ATOM      1  C   UNL     1      48.177   7.634  13.093  0.00  0.00    +0.000 C 
ENDROOT
BRANCH   1   2
ATOM      2  C   UNL     1      47.023   6.827  12.567  0.00  0.00    +0.000 A 
ATOM      3  C   UNL     1      46.871   5.477  12.912  0.00  0.00    +0.000 A 
ATOM      4  C   UNL     1      45.781   4.746  12.432  0.00  0.00    +0.000 A 
ATOM      5  C   UNL     1      44.828   5.354  11.604  0.00  0.00    +0.000 A 
ATOM      6  C   UNL     1      45.002   6.692  11.233  0.00  0.00    +0.000 A 
ATOM      7  C   UNL     1      46.092   7.419  11.706  0.00  0.00    +0.000 A 
BRANCH   5   8
ATOM      8  C   UNL     1      43.606   4.596  11.153  0.00  0.00    +0.000 C 
BRANCH   8   9
ATOM      9  O   UNL     1      43.933   3.612  10.172  0.00  0.00    +0.000 OA
BRANCH   9  10
ATOM     10  C   UNL     1      44.370   4.185   8.935  0.00  0.00    +0.000 C 
BRANCH  10  11
ATOM     11  C   UNL     1      45.379   3.272   8.293  0.00  0.00    +0.000 A 
ATOM     12  C   UNL     1      45.509   1.958   8.733  0.00  0.00    +0.000 A 
ATOM     13  N   UNL     1      46.384   1.080   8.188  0.00  0.00    +0.000 NA
ATOM     14  C   UNL     1      47.133   1.572   7.179  0.00  0.00    +0.000 A 
ATOM     15  C   UNL     1      47.010   2.875   6.727  0.00  0.00    +0.000 A 
ATOM     16  N   UNL     1      46.129   3.752   7.265  0.00  0.00    +0.000 NA
ENDBRANCH  10  11
ENDBRANCH   9  10
ENDBRANCH   8   9
ENDBRANCH   5   8
ENDBRANCH   1   2
BRANCH   1  19
ATOM     17  C   UNL     1      48.878   7.325  15.411  0.00  0.00    +0.000 C 
ATOM     18  O   UNL     1      48.227   8.315  15.744  0.00  0.00    +0.000 OA
ATOM     19  N   UNL     1      48.908   6.915  14.106  0.00  0.00    +0.000 N 
ATOM     20  H   UNL     1      49.435   6.094  13.832  0.00  0.00    +0.000 HD
BRANCH  17  28
ATOM     21  C   UNL     1      52.262   6.811  15.920  0.00  0.00    +0.000 A 
ATOM     22  N   UNL     1      53.483   6.449  16.367  0.00  0.00    +0.000 NA
ATOM     23  C   UNL     1      53.560   5.663  17.443  0.00  0.00    +0.000 A 
ATOM     24  N   UNL     1      52.546   5.176  18.148  0.00  0.00    +0.000 NA
ATOM     25  C   UNL     1      51.347   5.557  17.675  0.00  0.00    +0.000 A 
ATOM     26  S   UNL     1      49.942   5.015  18.459  0.00  0.00    +0.000 S 
ATOM     27  C   UNL     1      48.955   5.854  17.365  0.00  0.00    +0.000 A 
ATOM     28  C   UNL     1      49.656   6.560  16.393  0.00  0.00    +0.000 A 
ATOM     29  C   UNL     1      51.095   6.375  16.575  0.00  0.00    +0.000 A 
BRANCH  21  31
ATOM     30  C   UNL     1      52.230   9.015  15.121  0.00  0.00    +0.000 C 
ATOM     31  O   UNL     1      52.193   7.623  14.804  0.00  0.00    +0.000 OA
ENDBRANCH  21  31
ENDBRANCH  17  28
ENDBRANCH   1  19
TORSDOF 8
ENDMDL
MODEL 9
REMARK VINA RESULT:    -6.065      2.522      3.685
REMARK INTER + INTRA:         -10.314
REMARK INTER:                  -9.560
REMARK INTRA:                  -0.755
REMARK UNBOUND:                -1.412
REMARK  Name = 
REMARK  9 active torsions:
REMARK  status: ('A' for Active; 'I' for Inactive)
REMARK    1  A    between atoms: C_1  and  O_2
REMARK    2  A    between atoms: O_2  and  C_3
REMARK    3  A    between atoms: C_10  and  C_11
REMARK    4  A    between atoms: N_13  and  C_14
REMARK    5  A    between atoms: C_14  and  C_15
REMARK    6  A    between atoms: C_18  and  C_19
REMARK    7  A    between atoms: C_19  and  O_20
REMARK    8  A    between atoms: O_20  and  C_21
REMARK    9  A    between atoms: C_21  and  C_22
REMARK                            x       y       z     vdW  Elec       q    Type
REMARK                         _______ _______ _______ _____ _____    ______ ____
ROOT
ATOM      1  C   UNL     1      47.376   4.795  14.855  0.00  0.00    +0.000 C 
ENDROOT
BRANCH   1   2
ATOM      2  C   UNL     1      46.384   4.659  13.733  0.00  0.00    +0.000 A 
ATOM      3  C   UNL     1      45.668   5.767  13.264  0.00  0.00    +0.000 A 
ATOM      4  C   UNL     1      44.765   5.628  12.208  0.00  0.00    +0.000 A 
ATOM      5  C   UNL     1      44.568   4.379  11.603  0.00  0.00    +0.000 A 
ATOM      6  C   UNL     1      45.259   3.267  12.097  0.00  0.00    +0.000 A 
ATOM      7  C   UNL     1      46.154   3.405  13.155  0.00  0.00    +0.000 A 
BRANCH   5   8
ATOM      8  C   UNL     1      43.661   4.238  10.407  0.00  0.00    +0.000 C 
BRANCH   8   9
ATOM      9  O   UNL     1      44.405   4.007   9.212  0.00  0.00    +0.000 OA
BRANCH   9  10
ATOM     10  C   UNL     1      44.524   2.617   8.892  0.00  0.00    +0.000 C 
BRANCH  10  11
ATOM     11  C   UNL     1      45.734   2.409   8.021  0.00  0.00    +0.000 A 
ATOM     12  C   UNL     1      46.201   3.445   7.217  0.00  0.00    +0.000 A 
ATOM     13  N   UNL     1      47.293   3.330   6.425  0.00  0.00    +0.000 NA
ATOM     14  C   UNL     1      47.903   2.127   6.464  0.00  0.00    +0.000 A 
ATOM     15  C   UNL     1      47.453   1.090   7.264  0.00  0.00    +0.000 A 
ATOM     16  N   UNL     1      46.367   1.206   8.064  0.00  0.00    +0.000 NA
ENDBRANCH  10  11
ENDBRANCH   9  10
ENDBRANCH   8   9
ENDBRANCH   5   8
ENDBRANCH   1   2
BRANCH   1  19
ATOM     17  C   UNL     1      48.532   6.916  14.493  0.00  0.00    +0.000 C 
ATOM     18  O   UNL     1      49.176   6.411  13.573  0.00  0.00    +0.000 OA
ATOM     19  N   UNL     1      47.612   6.178  15.187  0.00  0.00    +0.000 N 
ATOM     20  H   UNL     1      47.073   6.595  15.937  0.00  0.00    +0.000 HD
BRANCH  17  28
ATOM     21  C   UNL     1      48.600   8.564  17.534  0.00  0.00    +0.000 A 
ATOM     22  N   UNL     1      48.698   9.456  18.544  0.00  0.00    +0.000 NA
ATOM     23  C   UNL     1      48.946  10.732  18.244  0.00  0.00    +0.000 A 
ATOM     24  N   UNL     1      49.114  11.248  17.032  0.00  0.00    +0.000 NA
ATOM     25  C   UNL     1      49.012  10.333  16.053  0.00  0.00    +0.000 A 
ATOM     26  S   UNL     1      49.194  10.829  14.440  0.00  0.00    +0.000 S 
ATOM     27  C   UNL     1      48.954   9.246  13.880  0.00  0.00    +0.000 A 
ATOM     28  C   UNL     1      48.737   8.314  14.889  0.00  0.00    +0.000 A 
ATOM     29  C   UNL     1      48.764   8.969  16.195  0.00  0.00    +0.000 A 
BRANCH  21  31
ATOM     30  C   UNL     1      49.455   6.584  18.453  0.00  0.00    +0.000 C 
ATOM     31  O   UNL     1      48.340   7.245  17.854  0.00  0.00    +0.000 OA
ENDBRANCH  21  31
ENDBRANCH  17  28
ENDBRANCH   1  19
TORSDOF 8
ENDMDL
