MODEL 1
REMARK VINA RESULT:    -8.611      0.000      0.000
REMARK INTER + INTRA:         -12.074
REMARK INTER:                 -11.128
REMARK INTRA:                  -0.946
REMARK UNBOUND:                -0.946
REMARK  Name = 
REMARK  5 active torsions:
REMARK  status: ('A' for Active; 'I' for Inactive)
REMARK    1  A    between atoms: C_2  and  C_4
REMARK    2  A    between atoms: C_7  and  C_8
REMARK    3  A    between atoms: C_8  and  C_9
REMARK    4  A    between atoms: C_9  and  C_10
REMARK    5  A    between atoms: C_14  and  C_15
REMARK                            x       y       z     vdW  Elec       q    Type
REMARK                         _______ _______ _______ _____ _____    ______ ____
ROOT
ATOM      1  C   UNL     1      44.073   5.638  11.008  0.00  0.00    +0.000 C 
ENDROOT
BRANCH   1   2
ATOM      2  C   UNL     1      45.136   5.492  12.065  0.00  0.00    +0.000 A 
ATOM      3  C   UNL     1      45.044   4.529  13.059  0.00  0.00    +0.000 A 
ATOM      4  N   UNL     1      45.971   4.358  14.025  0.00  0.00    +0.000 NA
ATOM      5  C   UNL     1      47.044   5.187  13.999  0.00  0.00    +0.000 A 
ATOM      6  C   UNL     1      47.270   6.182  13.045  0.00  0.00    +0.000 A 
ATOM      7  C   UNL     1      46.273   6.309  12.062  0.00  0.00    +0.000 A 
BRANCH   6   8
ATOM      8  C   UNL     1      48.468   7.045  13.056  0.00  0.00    +0.000 A 
ATOM      9  C   UNL     1      49.342   7.110  14.149  0.00  0.00    +0.000 A 
ATOM     10  N   UNL     1      50.470   7.866  14.210  0.00  0.00    +0.000 NA
ATOM     11  C   UNL     1      50.761   8.602  13.115  0.00  0.00    +0.000 A 
ATOM     12  C   UNL     1      49.972   8.616  11.983  0.00  0.00    +0.000 A 
ATOM     13  F   UNL     1      50.310   9.359  10.922  0.00  0.00    +0.000 F 
ATOM     14  C   UNL     1      48.818   7.843  11.954  0.00  0.00    +0.000 A 
ENDBRANCH   6   8
ENDBRANCH   1   2
BRANCH   1  15
ATOM     15  C   UNL     1      43.599   4.277  10.492  0.00  0.00    +0.000 C 
BRANCH  15  19
ATOM     16  C   UNL     1      46.433   2.504   7.753  0.00  0.00    +0.000 A 
ATOM     17  C   UNL     1      46.242   3.891   7.763  0.00  0.00    +0.000 A 
ATOM     18  C   UNL     1      45.316   4.462   8.642  0.00  0.00    +0.000 A 
ATOM     19  C   UNL     1      44.577   3.658   9.522  0.00  0.00    +0.000 A 
ATOM     20  C   UNL     1      44.751   2.269   9.483  0.00  0.00    +0.000 A 
ATOM     21  C   UNL     1      45.671   1.694   8.602  0.00  0.00    +0.000 A 
BRANCH  16  23
ATOM     22  N   UNL     1      48.481   2.609   6.435  0.00  0.00    +0.000 N 
ATOM     23  C   UNL     1      47.418   1.853   6.850  0.00  0.00    +0.000 C 
ATOM     24  O   UNL     1      47.313   0.679   6.521  0.00  0.00    +0.000 OA
ATOM     25  H   UNL     1      49.203   2.116   5.925  0.00  0.00    +0.000 HD
ATOM     26  H   UNL     1      48.741   3.467   6.899  0.00  0.00    +0.000 HD
ENDBRANCH  16  23
ENDBRANCH  15  19
ENDBRANCH   1  15
TORSDOF 5
ENDMDL
MODEL 2
REMARK VINA RESULT:    -8.590      2.146      2.518
REMARK INTER + INTRA:         -12.047
REMARK INTER:                 -11.021
REMARK INTRA:                  -1.026
REMARK UNBOUND:                -0.946
REMARK  Name = 
REMARK  5 active torsions:
REMARK  status: ('A' for Active; 'I' for Inactive)
REMARK    1  A    between atoms: C_2  and  C_4
REMARK    2  A    between atoms: C_7  and  C_8
REMARK    3  A    between atoms: C_8  and  C_9
REMARK    4  A    between atoms: C_9  and  C_10
REMARK    5  A    between atoms: C_14  and  C_15
REMARK                            x       y       z     vdW  Elec       q    Type
REMARK                         _______ _______ _______ _____ _____    ______ ____
ROOT
ATOM      1  C   UNL     1      44.228   3.407  12.058  0.00  0.00    +0.000 C 
ENDROOT
BRANCH   1   2
ATOM      2  C   UNL     1      45.352   4.279  12.550  0.00  0.00    +0.000 A 
ATOM      3  C   UNL     1      46.416   3.755  13.268  0.00  0.00    +0.000 A 
ATOM      4  N   UNL     1      47.447   4.495  13.727  0.00  0.00    +0.000 NA
ATOM      5  C   UNL     1      47.417   5.824  13.457  0.00  0.00    +0.000 A 
ATOM      6  C   UNL     1      46.418   6.475  12.728  0.00  0.00    +0.000 A 
ATOM      7  C   UNL     1      45.375   5.651  12.272  0.00  0.00    +0.000 A 
BRANCH   6   8
ATOM      8  C   UNL     1      46.447   7.924  12.448  0.00  0.00    +0.000 A 
ATOM      9  C   UNL     1      47.640   8.632  12.253  0.00  0.00    +0.000 A 
ATOM     10  N   UNL     1      47.730   9.959  11.971  0.00  0.00    +0.000 NA
ATOM     11  C   UNL     1      46.564  10.632  11.867  0.00  0.00    +0.000 A 
ATOM     12  C   UNL     1      45.330  10.038  12.041  0.00  0.00    +0.000 A 
ATOM     13  F   UNL     1      44.203  10.750  11.919  0.00  0.00    +0.000 F 
ATOM     14  C   UNL     1      45.270   8.683  12.341  0.00  0.00    +0.000 A 
ENDBRANCH   6   8
ENDBRANCH   1   2
BRANCH   1  15
ATOM     15  C   UNL     1      43.739   3.843  10.674  0.00  0.00    +0.000 C 
BRANCH  15  19
ATOM     16  C   UNL     1      46.536   2.749   7.567  0.00  0.00    +0.000 A 
ATOM     17  C   UNL     1      46.228   4.097   7.791  0.00  0.00    +0.000 A 
ATOM     18  C   UNL     1      45.313   4.448   8.788  0.00  0.00    +0.000 A 
ATOM     19  C   UNL     1      44.703   3.461   9.577  0.00  0.00    +0.000 A 
ATOM     20  C   UNL     1      44.993   2.115   9.326  0.00  0.00    +0.000 A 
ATOM     21  C   UNL     1      45.901   1.760   8.325  0.00  0.00    +0.000 A 
BRANCH  16  23
ATOM     22  N   UNL     1      47.503   3.013   5.345  0.00  0.00    +0.000 N 
ATOM     23  C   UNL     1      47.514   2.328   6.531  0.00  0.00    +0.000 C 
ATOM     24  O   UNL     1      48.327   1.436   6.736  0.00  0.00    +0.000 OA
ATOM     25  H   UNL     1      48.255   2.797   4.702  0.00  0.00    +0.000 HD
ATOM     26  H   UNL     1      47.052   3.910   5.250  0.00  0.00    +0.000 HD
ENDBRANCH  16  23
ENDBRANCH  15  19
ENDBRANCH   1  15
TORSDOF 5
ENDMDL
MODEL 3
REMARK VINA RESULT:    -8.257      2.685      3.572
REMARK INTER + INTRA:         -11.616
REMARK INTER:                 -10.882
REMARK INTRA:                  -0.734
REMARK UNBOUND:                -0.946
REMARK  Name = 
REMARK  5 active torsions:
REMARK  status: ('A' for Active; 'I' for Inactive)
REMARK    1  A    between atoms: C_2  and  C_4
REMARK    2  A    between atoms: C_7  and  C_8
REMARK    3  A    between atoms: C_8  and  C_9
REMARK    4  A    between atoms: C_9  and  C_10
REMARK    5  A    between atoms: C_14  and  C_15
REMARK                            x       y       z     vdW  Elec       q    Type
REMARK                         _______ _______ _______ _____ _____    ______ ____
ROOT
ATOM      1  C   UNL     1      43.961   4.167  11.640  0.00  0.00    +0.000 C 
ENDROOT
BRANCH   1   2
ATOM      2  C   UNL     1      45.093   5.006  12.170  0.00  0.00    +0.000 A 
ATOM      3  C   UNL     1      45.490   6.175  11.537  0.00  0.00    +0.000 A 
ATOM      4  N   UNL     1      46.495   6.960  11.975  0.00  0.00    +0.000 NA
ATOM      5  C   UNL     1      47.139   6.563  13.101  0.00  0.00    +0.000 A 
ATOM      6  C   UNL     1      46.828   5.422  13.846  0.00  0.00    +0.000 A 
ATOM      7  C   UNL     1      45.769   4.648  13.344  0.00  0.00    +0.000 A 
BRANCH   6   8
ATOM      8  C   UNL     1      47.552   5.048  15.077  0.00  0.00    +0.000 A 
ATOM      9  C   UNL     1      48.641   5.782  15.566  0.00  0.00    +0.000 A 
ATOM     10  N   UNL     1      49.332   5.501  16.702  0.00  0.00    +0.000 NA
ATOM     11  C   UNL     1      48.917   4.427  17.408  0.00  0.00    +0.000 A 
ATOM     12  C   UNL     1      47.859   3.631  17.021  0.00  0.00    +0.000 A 
ATOM     13  F   UNL     1      47.484   2.581  17.763  0.00  0.00    +0.000 F 
ATOM     14  C   UNL     1      47.178   3.935  15.849  0.00  0.00    +0.000 A 
ENDBRANCH   6   8
ENDBRANCH   1   2
BRANCH   1  15
ATOM     15  C   UNL     1      43.717   4.424  10.150  0.00  0.00    +0.000 C 
BRANCH  15  19
ATOM     16  C   UNL     1      46.561   2.401   7.602  0.00  0.00    +0.000 A 
ATOM     17  C   UNL     1      45.844   1.679   8.563  0.00  0.00    +0.000 A 
ATOM     18  C   UNL     1      44.933   2.337   9.395  0.00  0.00    +0.000 A 
ATOM     19  C   UNL     1      44.723   3.718   9.273  0.00  0.00    +0.000 A 
ATOM     20  C   UNL     1      45.467   4.438   8.330  0.00  0.00    +0.000 A 
ATOM     21  C   UNL     1      46.383   3.785   7.502  0.00  0.00    +0.000 A 
BRANCH  16  23
ATOM     22  N   UNL     1      48.607   2.481   6.278  0.00  0.00    +0.000 N 
ATOM     23  C   UNL     1      47.527   1.743   6.684  0.00  0.00    +0.000 C 
ATOM     24  O   UNL     1      47.392   0.578   6.334  0.00  0.00    +0.000 OA
ATOM     25  H   UNL     1      49.315   1.980   5.757  0.00  0.00    +0.000 HD
ATOM     26  H   UNL     1      48.889   3.323   6.757  0.00  0.00    +0.000 HD
ENDBRANCH  16  23
ENDBRANCH  15  19
ENDBRANCH   1  15
TORSDOF 5
ENDMDL
MODEL 4
REMARK VINA RESULT:    -7.970      1.350      1.894
REMARK INTER + INTRA:         -11.246
REMARK INTER:                 -10.433
REMARK INTRA:                  -0.813
REMARK UNBOUND:                -0.946
REMARK  Name = 
REMARK  5 active torsions:
REMARK  status: ('A' for Active; 'I' for Inactive)
REMARK    1  A    between atoms: C_2  and  C_4
REMARK    2  A    between atoms: C_7  and  C_8
REMARK    3  A    between atoms: C_8  and  C_9
REMARK    4  A    between atoms: C_9  and  C_10
REMARK    5  A    between atoms: C_14  and  C_15
REMARK                            x       y       z     vdW  Elec       q    Type
REMARK                         _______ _______ _______ _____ _____    ______ ____
ROOT
ATOM      1  C   UNL     1      44.419   4.047  11.849  0.00  0.00    +0.000 C 
ENDROOT
BRANCH   1   2
ATOM      2  C   UNL     1      44.990   5.435  11.966  0.00  0.00    +0.000 A 
ATOM      3  C   UNL     1      44.293   6.547  11.516  0.00  0.00    +0.000 A 
ATOM      4  N   UNL     1      44.761   7.810  11.602  0.00  0.00    +0.000 NA
ATOM      5  C   UNL     1      45.984   7.974  12.165  0.00  0.00    +0.000 A 
ATOM      6  C   UNL     1      46.780   6.946  12.676  0.00  0.00    +0.000 A 
ATOM      7  C   UNL     1      46.237   5.655  12.563  0.00  0.00    +0.000 A 
BRANCH   6   8
ATOM      8  C   UNL     1      48.098   7.187  13.296  0.00  0.00    +0.000 A 
ATOM      9  C   UNL     1      48.439   6.693  14.562  0.00  0.00    +0.000 A 
ATOM     10  N   UNL     1      49.641   6.862  15.174  0.00  0.00    +0.000 NA
ATOM     11  C   UNL     1      50.573   7.559  14.488  0.00  0.00    +0.000 A 
ATOM     12  C   UNL     1      50.347   8.093  13.236  0.00  0.00    +0.000 A 
ATOM     13  F   UNL     1      51.308   8.770  12.596  0.00  0.00    +0.000 F 
ATOM     14  C   UNL     1      49.105   7.915  12.639  0.00  0.00    +0.000 A 
ENDBRANCH   6   8
ENDBRANCH   1   2
BRANCH   1  15
ATOM     15  C   UNL     1      43.762   3.819  10.485  0.00  0.00    +0.000 C 
BRANCH  15  19
ATOM     16  C   UNL     1      46.575   2.640   7.424  0.00  0.00    +0.000 A 
ATOM     17  C   UNL     1      45.997   1.673   8.255  0.00  0.00    +0.000 A 
ATOM     18  C   UNL     1      45.096   2.057   9.253  0.00  0.00    +0.000 A 
ATOM     19  C   UNL     1      44.758   3.407   9.428  0.00  0.00    +0.000 A 
ATOM     20  C   UNL     1      45.365   4.371   8.614  0.00  0.00    +0.000 A 
ATOM     21  C   UNL     1      46.270   3.991   7.620  0.00  0.00    +0.000 A 
BRANCH  16  23
ATOM     22  N   UNL     1      47.470   3.018   5.188  0.00  0.00    +0.000 N 
ATOM     23  C   UNL     1      47.524   2.279   6.339  0.00  0.00    +0.000 C 
ATOM     24  O   UNL     1      48.351   1.386   6.476  0.00  0.00    +0.000 OA
ATOM     25  H   UNL     1      48.202   2.841   4.513  0.00  0.00    +0.000 HD
ATOM     26  H   UNL     1      47.007   3.915   5.150  0.00  0.00    +0.000 HD
ENDBRANCH  16  23
ENDBRANCH  15  19
ENDBRANCH   1  15
TORSDOF 5
ENDMDL
MODEL 5
REMARK VINA RESULT:    -7.912      3.591      7.330
REMARK INTER + INTRA:         -11.171
REMARK INTER:                 -10.497
REMARK INTRA:                  -0.673
REMARK UNBOUND:                -0.946
REMARK  Name = 
REMARK  5 active torsions:
REMARK  status: ('A' for Active; 'I' for Inactive)
REMARK    1  A    between atoms: C_2  and  C_4
REMARK    2  A    between atoms: C_7  and  C_8
REMARK    3  A    between atoms: C_8  and  C_9
REMARK    4  A    between atoms: C_9  and  C_10
REMARK    5  A    between atoms: C_14  and  C_15
REMARK                            x       y       z     vdW  Elec       q    Type
REMARK                         _______ _______ _______ _____ _____    ______ ____
ROOT
ATOM      1  C   UNL     1      46.071   7.302  11.755  0.00  0.00    +0.000 C 
ENDROOT
BRANCH   1   2
ATOM      2  C   UNL     1      45.244   6.240  11.081  0.00  0.00    +0.000 A 
ATOM      3  C   UNL     1      43.879   6.132  11.304  0.00  0.00    +0.000 A 
ATOM      4  N   UNL     1      43.096   5.200  10.722  0.00  0.00    +0.000 NA
ATOM      5  C   UNL     1      43.702   4.331   9.875  0.00  0.00    +0.000 A 
ATOM      6  C   UNL     1      45.060   4.342   9.546  0.00  0.00    +0.000 A 
ATOM      7  C   UNL     1      45.823   5.338  10.179  0.00  0.00    +0.000 A 
BRANCH   6   8
ATOM      8  C   UNL     1      45.663   3.381   8.601  0.00  0.00    +0.000 A 
ATOM      9  C   UNL     1      45.798   2.018   8.893  0.00  0.00    +0.000 A 
ATOM     10  N   UNL     1      46.322   1.083   8.057  0.00  0.00    +0.000 NA
ATOM     11  C   UNL     1      46.735   1.521   6.848  0.00  0.00    +0.000 A 
ATOM     12  C   UNL     1      46.653   2.841   6.454  0.00  0.00    +0.000 A 
ATOM     13  F   UNL     1      47.071   3.222   5.240  0.00  0.00    +0.000 F 
ATOM     14  C   UNL     1      46.124   3.777   7.334  0.00  0.00    +0.000 A 
ENDBRANCH   6   8
ENDBRANCH   1   2
BRANCH   1  15
ATOM     15  C   UNL     1      47.477   6.795  12.090  0.00  0.00    +0.000 C 
BRANCH  15  19
ATOM     16  C   UNL     1      47.554   4.649  15.840  0.00  0.00    +0.000 A 
ATOM     17  C   UNL     1      48.252   5.855  15.708  0.00  0.00    +0.000 A 
ATOM     18  C   UNL     1      48.236   6.542  14.491  0.00  0.00    +0.000 A 
ATOM     19  C   UNL     1      47.519   6.038  13.396  0.00  0.00    +0.000 A 
ATOM     20  C   UNL     1      46.849   4.815  13.526  0.00  0.00    +0.000 A 
ATOM     21  C   UNL     1      46.868   4.123  14.740  0.00  0.00    +0.000 A 
BRANCH  16  23
ATOM     22  N   UNL     1      48.570   4.088  17.984  0.00  0.00    +0.000 N 
ATOM     23  C   UNL     1      47.527   3.892  17.119  0.00  0.00    +0.000 C 
ATOM     24  O   UNL     1      46.594   3.155  17.412  0.00  0.00    +0.000 OA
ATOM     25  H   UNL     1      48.473   3.663  18.897  0.00  0.00    +0.000 HD
ATOM     26  H   UNL     1      49.193   4.878  17.901  0.00  0.00    +0.000 HD
ENDBRANCH  16  23
ENDBRANCH  15  19
ENDBRANCH   1  15
TORSDOF 5
ENDMDL
MODEL 6
REMARK VINA RESULT:    -7.752      3.235      6.922
REMARK INTER + INTRA:         -10.964
REMARK INTER:                 -10.034
REMARK INTRA:                  -0.930
REMARK UNBOUND:                -0.946
REMARK  Name = 
REMARK  5 active torsions:
REMARK  status: ('A' for Active; 'I' for Inactive)
REMARK    1  A    between atoms: C_2  and  C_4
REMARK    2  A    between atoms: C_7  and  C_8
REMARK    3  A    between atoms: C_8  and  C_9
REMARK    4  A    between atoms: C_9  and  C_10
REMARK    5  A    between atoms: C_14  and  C_15
REMARK                            x       y       z     vdW  Elec       q    Type
REMARK                         _______ _______ _______ _____ _____    ______ ____
ROOT
ATOM      1  C   UNL     1      44.204   6.574  11.369  0.00  0.00    +0.000 C 
ENDROOT
BRANCH   1   2
ATOM      2  C   UNL     1      44.146   5.124  10.970  0.00  0.00    +0.000 A 
ATOM      3  C   UNL     1      43.317   4.223  11.623  0.00  0.00    +0.000 A 
ATOM      4  N   UNL     1      43.229   2.916  11.300  0.00  0.00    +0.000 NA
ATOM      5  C   UNL     1      44.004   2.484  10.274  0.00  0.00    +0.000 A 
ATOM      6  C   UNL     1      44.864   3.286   9.521  0.00  0.00    +0.000 A 
ATOM      7  C   UNL     1      44.910   4.638   9.901  0.00  0.00    +0.000 A 
BRANCH   6   8
ATOM      8  C   UNL     1      45.672   2.763   8.401  0.00  0.00    +0.000 A 
ATOM      9  C   UNL     1      46.162   1.451   8.372  0.00  0.00    +0.000 A 
ATOM     10  N   UNL     1      46.891   0.906   7.362  0.00  0.00    +0.000 NA
ATOM     11  C   UNL     1      47.147   1.708   6.305  0.00  0.00    +0.000 A 
ATOM     12  C   UNL     1      46.717   3.017   6.228  0.00  0.00    +0.000 A 
ATOM     13  F   UNL     1      46.993   3.767   5.153  0.00  0.00    +0.000 F 
ATOM     14  C   UNL     1      45.985   3.551   7.281  0.00  0.00    +0.000 A 
ENDBRANCH   6   8
ENDBRANCH   1   2
BRANCH   1  15
ATOM     15  C   UNL     1      44.932   6.765  12.702  0.00  0.00    +0.000 C 
BRANCH  15  19
ATOM     16  C   UNL     1      49.068   7.874  12.122  0.00  0.00    +0.000 A 
ATOM     17  C   UNL     1      48.740   6.572  12.521  0.00  0.00    +0.000 A 
ATOM     18  C   UNL     1      47.403   6.219  12.720  0.00  0.00    +0.000 A 
ATOM     19  C   UNL     1      46.379   7.155  12.517  0.00  0.00    +0.000 A 
ATOM     20  C   UNL     1      46.717   8.463  12.149  0.00  0.00    +0.000 A 
ATOM     21  C   UNL     1      48.053   8.822  11.956  0.00  0.00    +0.000 A 
BRANCH  16  23
ATOM     22  N   UNL     1      51.346   7.331  11.443  0.00  0.00    +0.000 N 
ATOM     23  C   UNL     1      50.474   8.292  11.881  0.00  0.00    +0.000 C 
ATOM     24  O   UNL     1      50.835   9.453  12.026  0.00  0.00    +0.000 OA
ATOM     25  H   UNL     1      52.263   7.659  11.167  0.00  0.00    +0.000 HD
ATOM     26  H   UNL     1      51.027   6.456  11.056  0.00  0.00    +0.000 HD
ENDBRANCH  16  23
ENDBRANCH  15  19
ENDBRANCH   1  15
TORSDOF 5
ENDMDL
MODEL 7
REMARK VINA RESULT:    -7.044      3.579      7.520
REMARK INTER + INTRA:         -10.049
REMARK INTER:                  -9.328
REMARK INTRA:                  -0.721
REMARK UNBOUND:                -0.946
REMARK  Name = 
REMARK  5 active torsions:
REMARK  status: ('A' for Active; 'I' for Inactive)
REMARK    1  A    between atoms: C_2  and  C_4
REMARK    2  A    between atoms: C_7  and  C_8
REMARK    3  A    between atoms: C_8  and  C_9
REMARK    4  A    between atoms: C_9  and  C_10
REMARK    5  A    between atoms: C_14  and  C_15
REMARK                            x       y       z     vdW  Elec       q    Type
REMARK                         _______ _______ _______ _____ _____    ______ ____
ROOT
ATOM      1  C   UNL     1      45.123   7.126  11.102  0.00  0.00    +0.000 C 
ENDROOT
BRANCH   1   2
ATOM      2  C   UNL     1      44.740   5.721  10.719  0.00  0.00    +0.000 A 
ATOM      3  C   UNL     1      43.659   5.078  11.303  0.00  0.00    +0.000 A 
ATOM      4  N   UNL     1      43.276   3.823  10.991  0.00  0.00    +0.000 NA
ATOM      5  C   UNL     1      44.005   3.175  10.049  0.00  0.00    +0.000 A 
ATOM      6  C   UNL     1      45.101   3.712   9.369  0.00  0.00    +0.000 A 
ATOM      7  C   UNL     1      45.448   5.024   9.732  0.00  0.00    +0.000 A 
BRANCH   6   8
ATOM      8  C   UNL     1      45.847   2.965   8.336  0.00  0.00    +0.000 A 
ATOM      9  C   UNL     1      46.402   3.584   7.209  0.00  0.00    +0.000 A 
ATOM     10  N   UNL     1      47.116   2.956   6.238  0.00  0.00    +0.000 NA
ATOM     11  C   UNL     1      47.303   1.627   6.394  0.00  0.00    +0.000 A 
ATOM     12  C   UNL     1      46.801   0.913   7.463  0.00  0.00    +0.000 A 
ATOM     13  F   UNL     1      47.022  -0.403   7.574  0.00  0.00    +0.000 F 
ATOM     14  C   UNL     1      46.064   1.580   8.434  0.00  0.00    +0.000 A 
ENDBRANCH   6   8
ENDBRANCH   1   2
BRANCH   1  15
ATOM     15  C   UNL     1      45.259   7.281  12.619  0.00  0.00    +0.000 C 
BRANCH  15  19
ATOM     16  C   UNL     1      49.347   7.860  13.894  0.00  0.00    +0.000 A 
ATOM     17  C   UNL     1      48.393   8.860  14.119  0.00  0.00    +0.000 A 
ATOM     18  C   UNL     1      47.074   8.677  13.695  0.00  0.00    +0.000 A 
ATOM     19  C   UNL     1      46.690   7.492  13.049  0.00  0.00    +0.000 A 
ATOM     20  C   UNL     1      47.656   6.510  12.800  0.00  0.00    +0.000 A 
ATOM     21  C   UNL     1      48.978   6.693  13.217  0.00  0.00    +0.000 A 
BRANCH  16  23
ATOM     22  N   UNL     1      51.211   7.106  15.273  0.00  0.00    +0.000 N 
ATOM     23  C   UNL     1      50.757   8.002  14.342  0.00  0.00    +0.000 C 
ATOM     24  O   UNL     1      51.499   8.855  13.874  0.00  0.00    +0.000 OA
ATOM     25  H   UNL     1      52.203   7.140  15.472  0.00  0.00    +0.000 HD
ATOM     26  H   UNL     1      50.726   6.242  15.465  0.00  0.00    +0.000 HD
ENDBRANCH  16  23
ENDBRANCH  15  19
ENDBRANCH   1  15
TORSDOF 5
ENDMDL
MODEL 8
REMARK VINA RESULT:    -6.745      4.748      8.202
REMARK INTER + INTRA:          -9.663
REMARK INTER:                  -8.785
REMARK INTRA:                  -0.878
REMARK UNBOUND:                -0.946
REMARK  Name = 
REMARK  5 active torsions:
REMARK  status: ('A' for Active; 'I' for Inactive)
REMARK    1  A    between atoms: C_2  and  C_4
REMARK    2  A    between atoms: C_7  and  C_8
REMARK    3  A    between atoms: C_8  and  C_9
REMARK    4  A    between atoms: C_9  and  C_10
REMARK    5  A    between atoms: C_14  and  C_15
REMARK                            x       y       z     vdW  Elec       q    Type
REMARK                         _______ _______ _______ _____ _____    ______ ____
ROOT
ATOM      1  C   UNL     1      49.127   6.895  15.993  0.00  0.00    +0.000 C 
ENDROOT
BRANCH   1   2
ATOM      2  C   UNL     1      48.534   6.813  14.611  0.00  0.00    +0.000 A 
ATOM      3  C   UNL     1      49.110   7.469  13.534  0.00  0.00    +0.000 A 
ATOM      4  N   UNL     1      48.617   7.423  12.278  0.00  0.00    +0.000 NA
ATOM      5  C   UNL     1      47.496   6.685  12.085  0.00  0.00    +0.000 A 
ATOM      6  C   UNL     1      46.829   5.960  13.076  0.00  0.00    +0.000 A 
ATOM      7  C   UNL     1      47.392   6.042  14.361  0.00  0.00    +0.000 A 
BRANCH   6   8
ATOM      8  C   UNL     1      45.620   5.157  12.804  0.00  0.00    +0.000 A 
ATOM      9  C   UNL     1      45.638   3.757  12.753  0.00  0.00    +0.000 A 
ATOM     10  N   UNL     1      44.557   2.964  12.529  0.00  0.00    +0.000 NA
ATOM     11  C   UNL     1      43.376   3.595  12.351  0.00  0.00    +0.000 A 
ATOM     12  C   UNL     1      43.240   4.968  12.379  0.00  0.00    +0.000 A 
ATOM     13  F   UNL     1      42.043   5.542  12.204  0.00  0.00    +0.000 F 
ATOM     14  C   UNL     1      44.365   5.753  12.597  0.00  0.00    +0.000 A 
ENDBRANCH   6   8
ENDBRANCH   1   2
BRANCH   1  15
ATOM     15  C   UNL     1      48.528   5.842  16.928  0.00  0.00    +0.000 C 
BRANCH  15  19
ATOM     16  C   UNL     1      51.197   2.492  17.503  0.00  0.00    +0.000 A 
ATOM     17  C   UNL     1      49.840   2.270  17.240  0.00  0.00    +0.000 A 
ATOM     18  C   UNL     1      48.975   3.355  17.066  0.00  0.00    +0.000 A 
ATOM     19  C   UNL     1      49.455   4.670  17.146  0.00  0.00    +0.000 A 
ATOM     20  C   UNL     1      50.807   4.884  17.441  0.00  0.00    +0.000 A 
ATOM     21  C   UNL     1      51.673   3.802  17.622  0.00  0.00    +0.000 A 
BRANCH  16  23
ATOM     22  N   UNL     1      51.656   0.183  18.138  0.00  0.00    +0.000 N 
ATOM     23  C   UNL     1      52.157   1.371  17.678  0.00  0.00    +0.000 C 
ATOM     24  O   UNL     1      53.340   1.485  17.385  0.00  0.00    +0.000 OA
ATOM     25  H   UNL     1      52.296  -0.600  18.132  0.00  0.00    +0.000 HD
ATOM     26  H   UNL     1      50.667  -0.023  18.121  0.00  0.00    +0.000 HD
ENDBRANCH  16  23
ENDBRANCH  15  19
ENDBRANCH   1  15
TORSDOF 5
ENDMDL
MODEL 9
REMARK VINA RESULT:    -6.565      3.545      5.485
REMARK INTER + INTRA:          -9.430
REMARK INTER:                  -8.413
REMARK INTRA:                  -1.017
REMARK UNBOUND:                -0.946
REMARK  Name = 
REMARK  5 active torsions:
REMARK  status: ('A' for Active; 'I' for Inactive)
REMARK    1  A    between atoms: C_2  and  C_4
REMARK    2  A    between atoms: C_7  and  C_8
REMARK    3  A    between atoms: C_8  and  C_9
REMARK    4  A    between atoms: C_9  and  C_10
REMARK    5  A    between atoms: C_14  and  C_15
REMARK                            x       y       z     vdW  Elec       q    Type
REMARK                         _______ _______ _______ _____ _____    ______ ____
ROOT
ATOM      1  C   UNL     1      47.689   8.009  12.411  0.00  0.00    +0.000 C 
ENDROOT
BRANCH   1   2
ATOM      2  C   UNL     1      48.498   7.900  13.676  0.00  0.00    +0.000 A 
ATOM      3  C   UNL     1      49.410   8.880  14.041  0.00  0.00    +0.000 A 
ATOM      4  N   UNL     1      50.154   8.828  15.165  0.00  0.00    +0.000 NA
ATOM      5  C   UNL     1      49.983   7.747  15.966  0.00  0.00    +0.000 A 
ATOM      6  C   UNL     1      49.086   6.702  15.728  0.00  0.00    +0.000 A 
ATOM      7  C   UNL     1      48.335   6.815  14.546  0.00  0.00    +0.000 A 
BRANCH   6   8
ATOM      8  C   UNL     1      48.928   5.557  16.647  0.00  0.00    +0.000 A 
ATOM      9  C   UNL     1      49.830   5.292  17.685  0.00  0.00    +0.000 A 
ATOM     10  N   UNL     1      49.726   4.270  18.575  0.00  0.00    +0.000 NA
ATOM     11  C   UNL     1      48.656   3.458  18.436  0.00  0.00    +0.000 A 
ATOM     12  C   UNL     1      47.705   3.623  17.449  0.00  0.00    +0.000 A 
ATOM     13  F   UNL     1      46.658   2.793  17.360  0.00  0.00    +0.000 F 
ATOM     14  C   UNL     1      47.844   4.670  16.546  0.00  0.00    +0.000 A 
ENDBRANCH   6   8
ENDBRANCH   1   2
BRANCH   1  15
ATOM     15  C   UNL     1      46.187   7.905  12.690  0.00  0.00    +0.000 C 
BRANCH  15  19
ATOM     16  C   UNL     1      44.495   4.134  11.431  0.00  0.00    +0.000 A 
ATOM     17  C   UNL     1      44.447   4.509  12.779  0.00  0.00    +0.000 A 
ATOM     18  C   UNL     1      45.005   5.723  13.186  0.00  0.00    +0.000 A 
ATOM     19  C   UNL     1      45.611   6.579  12.255  0.00  0.00    +0.000 A 
ATOM     20  C   UNL     1      45.683   6.183  10.914  0.00  0.00    +0.000 A 
ATOM     21  C   UNL     1      45.131   4.966  10.504  0.00  0.00    +0.000 A 
BRANCH  16  23
ATOM     22  N   UNL     1      44.473   2.279   9.848  0.00  0.00    +0.000 N 
ATOM     23  C   UNL     1      43.899   2.861  10.947  0.00  0.00    +0.000 C 
ATOM     24  O   UNL     1      42.962   2.326  11.526  0.00  0.00    +0.000 OA
ATOM     25  H   UNL     1      44.136   1.356   9.609  0.00  0.00    +0.000 HD
ATOM     26  H   UNL     1      45.394   2.538   9.525  0.00  0.00    +0.000 HD
ENDBRANCH  16  23
ENDBRANCH  15  19
ENDBRANCH   1  15
TORSDOF 5
ENDMDL
