MODEL 1
REMARK VINA RESULT:    -8.086      0.000      0.000
REMARK INTER + INTRA:         -12.112
REMARK INTER:                 -10.922
REMARK INTRA:                  -1.190
REMARK UNBOUND:                -1.190
REMARK  Name = 
REMARK  7 active torsions:
REMARK  status: ('A' for Active; 'I' for Inactive)
REMARK    1  A    between atoms: C_1  and  C_2
REMARK    2  A    between atoms: C_2  and  C_3
REMARK    3  A    between atoms: C_7  and  C_8
REMARK    4  A    between atoms: C_8  and  C_9
REMARK    5  A    between atoms: C_9  and  N_10
REMARK    6  A    between atoms: N_10  and  C_11
REMARK    7  A    between atoms: C_14  and  C_15
REMARK                            x       y       z     vdW  Elec       q    Type
REMARK                         _______ _______ _______ _____ _____    ______ ____
ROOT
ATOM      1  C   UNL     1      43.148   4.641  11.150  0.00  0.00    +0.000 C 
ENDROOT
BRANCH   1   2
ATOM      2  N   UNL     1      43.723   5.060   9.863  0.00  0.00    +0.000 N 
ATOM      3  H   UNL     1      44.172   5.972   9.919  0.00  0.00    +0.000 HD
BRANCH   2   4
ATOM      4  C   UNL     1      44.542   4.125   9.202  0.00  0.00    +0.000 A 
ATOM      5  C   UNL     1      45.557   4.499   8.312  0.00  0.00    +0.000 A 
ATOM      6  C   UNL     1      46.384   3.548   7.706  0.00  0.00    +0.000 A 
ATOM      7  C   UNL     1      46.246   2.194   8.011  0.00  0.00    +0.000 A 
ATOM      8  C   UNL     1      45.270   1.801   8.932  0.00  0.00    +0.000 A 
ATOM      9  C   UNL     1      44.441   2.765   9.531  0.00  0.00    +0.000 A 
BRANCH   7  10
ATOM     10  C   UNL     1      47.152   1.237   7.327  0.00  0.00    +0.000 C 
ATOM     11  N   UNL     1      48.203   1.750   6.624  0.00  0.00    +0.000 N 
ATOM     12  O   UNL     1      46.952   0.026   7.353  0.00  0.00    +0.000 OA
ATOM     13  H   UNL     1      48.266   2.726   6.374  0.00  0.00    +0.000 HD
ATOM     14  H   UNL     1      48.724   1.088   6.062  0.00  0.00    +0.000 HD
ENDBRANCH   7  10
ENDBRANCH   2   4
ENDBRANCH   1   2
BRANCH   1  15
ATOM     15  C   UNL     1      43.551   5.586  12.290  0.00  0.00    +0.000 C 
BRANCH  15  20
ATOM     16  C   UNL     1      47.252   6.356  12.932  0.00  0.00    +0.000 A 
ATOM     17  C   UNL     1      47.659   5.127  13.488  0.00  0.00    +0.000 A 
ATOM     18  C   UNL     1      46.773   4.058  13.621  0.00  0.00    +0.000 A 
ATOM     19  C   UNL     1      45.450   4.191  13.210  0.00  0.00    +0.000 A 
ATOM     20  C   UNL     1      45.012   5.389  12.640  0.00  0.00    +0.000 A 
ATOM     21  C   UNL     1      45.922   6.453  12.489  0.00  0.00    +0.000 A 
BRANCH  16  23
ATOM     22  C   UNL     1      48.699   7.774  11.473  0.00  0.00    +0.000 C 
ATOM     23  C   UNL     1      48.230   7.545  12.923  0.00  0.00    +0.000 C 
ATOM     24  C   UNL     1      47.590   8.800  13.527  0.00  0.00    +0.000 C 
ATOM     25  C   UNL     1      48.020   8.789  14.987  0.00  0.00    +0.000 C 
ATOM     26  O   UNL     1      49.048   7.804  15.140  0.00  0.00    +0.000 OA
ATOM     27  C   UNL     1      49.466   7.422  13.826  0.00  0.00    +0.000 C 
ENDBRANCH  16  23
ENDBRANCH  15  20
ENDBRANCH   1  15
TORSDOF 6
ENDMDL
MODEL 2
REMARK VINA RESULT:    -7.965      0.853      1.548
REMARK INTER + INTRA:         -11.950
REMARK INTER:                 -11.211
REMARK INTRA:                  -0.739
REMARK UNBOUND:                -1.190
REMARK  Name = 
REMARK  7 active torsions:
REMARK  status: ('A' for Active; 'I' for Inactive)
REMARK    1  A    between atoms: C_1  and  C_2
REMARK    2  A    between atoms: C_2  and  C_3
REMARK    3  A    between atoms: C_7  and  C_8
REMARK    4  A    between atoms: C_8  and  C_9
REMARK    5  A    between atoms: C_9  and  N_10
REMARK    6  A    between atoms: N_10  and  C_11
REMARK    7  A    between atoms: C_14  and  C_15
REMARK                            x       y       z     vdW  Elec       q    Type
REMARK                         _______ _______ _______ _____ _____    ______ ____
ROOT
ATOM      1  C   UNL     1      43.106   4.037  11.238  0.00  0.00    +0.000 C 
ENDROOT
BRANCH   1   2
ATOM      2  N   UNL     1      43.755   4.731  10.115  0.00  0.00    +0.000 N 
ATOM      3  H   UNL     1      44.133   5.635  10.386  0.00  0.00    +0.000 HD
BRANCH   2   4
ATOM      4  C   UNL     1      44.689   3.988   9.369  0.00  0.00    +0.000 A 
ATOM      5  C   UNL     1      44.773   2.591   9.429  0.00  0.00    +0.000 A 
ATOM      6  C   UNL     1      45.682   1.879   8.639  0.00  0.00    +0.000 A 
ATOM      7  C   UNL     1      46.503   2.547   7.731  0.00  0.00    +0.000 A 
ATOM      8  C   UNL     1      46.405   3.937   7.620  0.00  0.00    +0.000 A 
ATOM      9  C   UNL     1      45.492   4.643   8.422  0.00  0.00    +0.000 A 
BRANCH   7  10
ATOM     10  C   UNL     1      47.450   1.731   6.929  0.00  0.00    +0.000 C 
ATOM     11  N   UNL     1      48.589   2.336   6.482  0.00  0.00    +0.000 N 
ATOM     12  O   UNL     1      47.212   0.563   6.639  0.00  0.00    +0.000 OA
ATOM     13  H   UNL     1      48.709   3.339   6.485  0.00  0.00    +0.000 HD
ATOM     14  H   UNL     1      49.149   1.799   5.831  0.00  0.00    +0.000 HD
ENDBRANCH   7  10
ENDBRANCH   2   4
ENDBRANCH   1   2
BRANCH   1  15
ATOM     15  C   UNL     1      43.325   4.773  12.566  0.00  0.00    +0.000 C 
BRANCH  15  20
ATOM     16  C   UNL     1      46.743   6.435  13.074  0.00  0.00    +0.000 A 
ATOM     17  C   UNL     1      47.482   5.326  13.533  0.00  0.00    +0.000 A 
ATOM     18  C   UNL     1      46.905   4.061  13.644  0.00  0.00    +0.000 A 
ATOM     19  C   UNL     1      45.568   3.870  13.306  0.00  0.00    +0.000 A 
ATOM     20  C   UNL     1      44.807   4.941  12.833  0.00  0.00    +0.000 A 
ATOM     21  C   UNL     1      45.407   6.208  12.702  0.00  0.00    +0.000 A 
BRANCH  16  23
ATOM     22  C   UNL     1      46.263   8.884  12.991  0.00  0.00    +0.000 C 
ATOM     23  C   UNL     1      47.386   7.833  13.088  0.00  0.00    +0.000 C 
ATOM     24  C   UNL     1      48.258   8.034  14.332  0.00  0.00    +0.000 C 
ATOM     25  C   UNL     1      49.666   7.672  13.882  0.00  0.00    +0.000 C 
ATOM     26  O   UNL     1      49.662   7.570  12.454  0.00  0.00    +0.000 OA
ATOM     27  C   UNL     1      48.424   8.121  11.993  0.00  0.00    +0.000 C 
ENDBRANCH  16  23
ENDBRANCH  15  20
ENDBRANCH   1  15
TORSDOF 6
ENDMDL
MODEL 3
REMARK VINA RESULT:    -7.587      1.475      2.388
REMARK INTER + INTRA:         -11.438
REMARK INTER:                 -10.661
REMARK INTRA:                  -0.777
REMARK UNBOUND:                -1.190
REMARK  Name = 
REMARK  7 active torsions:
REMARK  status: ('A' for Active; 'I' for Inactive)
REMARK    1  A    between atoms: C_1  and  C_2
REMARK    2  A    between atoms: C_2  and  C_3
REMARK    3  A    between atoms: C_7  and  C_8
REMARK    4  A    between atoms: C_8  and  C_9
REMARK    5  A    between atoms: C_9  and  N_10
REMARK    6  A    between atoms: N_10  and  C_11
REMARK    7  A    between atoms: C_14  and  C_15
REMARK                            x       y       z     vdW  Elec       q    Type
REMARK                         _______ _______ _______ _____ _____    ______ ____
ROOT
ATOM      1  C   UNL     1      44.412   5.529  11.221  0.00  0.00    +0.000 C 
ENDROOT
BRANCH   1   2
ATOM      2  N   UNL     1      43.784   4.715  10.170  0.00  0.00    +0.000 N 
ATOM      3  H   UNL     1      43.102   5.242   9.628  0.00  0.00    +0.000 HD
BRANCH   2   4
ATOM      4  C   UNL     1      44.650   3.986   9.332  0.00  0.00    +0.000 A 
ATOM      5  C   UNL     1      45.543   4.600   8.444  0.00  0.00    +0.000 A 
ATOM      6  C   UNL     1      46.424   3.849   7.659  0.00  0.00    +0.000 A 
ATOM      7  C   UNL     1      46.465   2.460   7.775  0.00  0.00    +0.000 A 
ATOM      8  C   UNL     1      45.616   1.828   8.688  0.00  0.00    +0.000 A 
ATOM      9  C   UNL     1      44.731   2.592   9.468  0.00  0.00    +0.000 A 
BRANCH   7  10
ATOM     10  C   UNL     1      47.418   1.723   6.906  0.00  0.00    +0.000 C 
ATOM     11  N   UNL     1      48.478   2.416   6.396  0.00  0.00    +0.000 N 
ATOM     12  O   UNL     1      47.251   0.542   6.618  0.00  0.00    +0.000 OA
ATOM     13  H   UNL     1      48.523   3.425   6.403  0.00  0.00    +0.000 HD
ATOM     14  H   UNL     1      49.035   1.927   5.706  0.00  0.00    +0.000 HD
ENDBRANCH   7  10
ENDBRANCH   2   4
ENDBRANCH   1   2
BRANCH   1  15
ATOM     15  C   UNL     1      43.737   6.900  11.361  0.00  0.00    +0.000 C 
BRANCH  15  20
ATOM     16  C   UNL     1      47.083   8.527  12.288  0.00  0.00    +0.000 A 
ATOM     17  C   UNL     1      46.763   9.880  12.056  0.00  0.00    +0.000 A 
ATOM     18  C   UNL     1      45.487  10.268  11.645  0.00  0.00    +0.000 A 
ATOM     19  C   UNL     1      44.497   9.311  11.445  0.00  0.00    +0.000 A 
ATOM     20  C   UNL     1      44.770   7.961  11.679  0.00  0.00    +0.000 A 
ATOM     21  C   UNL     1      46.054   7.585  12.117  0.00  0.00    +0.000 A 
BRANCH  16  23
ATOM     22  C   UNL     1      49.469   8.876  11.641  0.00  0.00    +0.000 C 
ATOM     23  C   UNL     1      48.535   8.137  12.618  0.00  0.00    +0.000 C 
ATOM     24  C   UNL     1      48.875   8.439  14.081  0.00  0.00    +0.000 C 
ATOM     25  C   UNL     1      48.627   7.129  14.815  0.00  0.00    +0.000 C 
ATOM     26  O   UNL     1      48.458   6.098  13.837  0.00  0.00    +0.000 OA
ATOM     27  C   UNL     1      48.867   6.638  12.577  0.00  0.00    +0.000 C 
ENDBRANCH  16  23
ENDBRANCH  15  20
ENDBRANCH   1  15
TORSDOF 6
ENDMDL
MODEL 4
REMARK VINA RESULT:    -6.812      1.536      2.785
REMARK INTER + INTRA:         -10.392
REMARK INTER:                  -9.505
REMARK INTRA:                  -0.886
REMARK UNBOUND:                -1.190
REMARK  Name = 
REMARK  7 active torsions:
REMARK  status: ('A' for Active; 'I' for Inactive)
REMARK    1  A    between atoms: C_1  and  C_2
REMARK    2  A    between atoms: C_2  and  C_3
REMARK    3  A    between atoms: C_7  and  C_8
REMARK    4  A    between atoms: C_8  and  C_9
REMARK    5  A    between atoms: C_9  and  N_10
REMARK    6  A    between atoms: N_10  and  C_11
REMARK    7  A    between atoms: C_14  and  C_15
REMARK                            x       y       z     vdW  Elec       q    Type
REMARK                         _______ _______ _______ _____ _____    ______ ____
ROOT
ATOM      1  C   UNL     1      45.169   6.204  10.884  0.00  0.00    +0.000 C 
ENDROOT
BRANCH   1   2
ATOM      2  N   UNL     1      44.346   5.212  10.175  0.00  0.00    +0.000 N 
ATOM      3  H   UNL     1      43.642   5.646   9.583  0.00  0.00    +0.000 HD
BRANCH   2   4
ATOM      4  C   UNL     1      45.035   4.194   9.488  0.00  0.00    +0.000 A 
ATOM      5  C   UNL     1      44.791   2.832   9.705  0.00  0.00    +0.000 A 
ATOM      6  C   UNL     1      45.460   1.845   8.973  0.00  0.00    +0.000 A 
ATOM      7  C   UNL     1      46.361   2.198   7.969  0.00  0.00    +0.000 A 
ATOM      8  C   UNL     1      46.587   3.552   7.703  0.00  0.00    +0.000 A 
ATOM      9  C   UNL     1      45.913   4.535   8.448  0.00  0.00    +0.000 A 
BRANCH   7  10
ATOM     10  C   UNL     1      47.042   1.100   7.236  0.00  0.00    +0.000 C 
ATOM     11  N   UNL     1      46.779  -0.181   7.625  0.00  0.00    +0.000 N 
ATOM     12  O   UNL     1      47.843   1.325   6.335  0.00  0.00    +0.000 OA
ATOM     13  H   UNL     1      46.327  -0.403   8.501  0.00  0.00    +0.000 HD
ATOM     14  H   UNL     1      47.352  -0.899   7.199  0.00  0.00    +0.000 HD
ENDBRANCH   7  10
ENDBRANCH   2   4
ENDBRANCH   1   2
BRANCH   1  15
ATOM     15  C   UNL     1      45.956   5.571  12.038  0.00  0.00    +0.000 C 
BRANCH  15  20
ATOM     16  C   UNL     1      48.528   7.419  14.201  0.00  0.00    +0.000 A 
ATOM     17  C   UNL     1      49.374   7.919  13.191  0.00  0.00    +0.000 A 
ATOM     18  C   UNL     1      49.106   7.700  11.840  0.00  0.00    +0.000 A 
ATOM     19  C   UNL     1      47.987   6.964  11.460  0.00  0.00    +0.000 A 
ATOM     20  C   UNL     1      47.116   6.464  12.431  0.00  0.00    +0.000 A 
ATOM     21  C   UNL     1      47.383   6.714  13.790  0.00  0.00    +0.000 A 
BRANCH  16  23
ATOM     22  C   UNL     1      48.472   8.969  16.158  0.00  0.00    +0.000 C 
ATOM     23  C   UNL     1      48.932   7.579  15.677  0.00  0.00    +0.000 C 
ATOM     24  C   UNL     1      48.356   6.451  16.540  0.00  0.00    +0.000 C 
ATOM     25  C   UNL     1      49.467   5.414  16.614  0.00  0.00    +0.000 C 
ATOM     26  O   UNL     1      50.666   6.011  16.108  0.00  0.00    +0.000 OA
ATOM     27  C   UNL     1      50.426   7.417  16.000  0.00  0.00    +0.000 C 
ENDBRANCH  16  23
ENDBRANCH  15  20
ENDBRANCH   1  15
TORSDOF 6
ENDMDL
MODEL 5
REMARK VINA RESULT:    -6.658      4.884      8.218
REMARK INTER + INTRA:         -10.184
REMARK INTER:                  -9.492
REMARK INTRA:                  -0.692
REMARK UNBOUND:                -1.190
REMARK  Name = 
REMARK  7 active torsions:
REMARK  status: ('A' for Active; 'I' for Inactive)
REMARK    1  A    between atoms: C_1  and  C_2
REMARK    2  A    between atoms: C_2  and  C_3
REMARK    3  A    between atoms: C_7  and  C_8
REMARK    4  A    between atoms: C_8  and  C_9
REMARK    5  A    between atoms: C_9  and  N_10
REMARK    6  A    between atoms: N_10  and  C_11
REMARK    7  A    between atoms: C_14  and  C_15
REMARK                            x       y       z     vdW  Elec       q    Type
REMARK                         _______ _______ _______ _____ _____    ______ ____
ROOT
ATOM      1  C   UNL     1      48.002   5.206  15.840  0.00  0.00    +0.000 C 
ENDROOT
BRANCH   1   2
ATOM      2  N   UNL     1      48.273   4.743  17.209  0.00  0.00    +0.000 N 
ATOM      3  H   UNL     1      47.443   4.370  17.663  0.00  0.00    +0.000 HD
BRANCH   2   4
ATOM      4  C   UNL     1      49.378   3.886  17.379  0.00  0.00    +0.000 A 
ATOM      5  C   UNL     1      49.335   2.521  17.069  0.00  0.00    +0.000 A 
ATOM      6  C   UNL     1      50.464   1.706  17.206  0.00  0.00    +0.000 A 
ATOM      7  C   UNL     1      51.682   2.248  17.615  0.00  0.00    +0.000 A 
ATOM      8  C   UNL     1      51.760   3.617  17.886  0.00  0.00    +0.000 A 
ATOM      9  C   UNL     1      50.619   4.426  17.751  0.00  0.00    +0.000 A 
BRANCH   7  10
ATOM     10  C   UNL     1      52.838   1.325  17.746  0.00  0.00    +0.000 C 
ATOM     11  N   UNL     1      52.588   0.049  18.162  0.00  0.00    +0.000 N 
ATOM     12  O   UNL     1      53.988   1.694  17.527  0.00  0.00    +0.000 OA
ATOM     13  H   UNL     1      51.711  -0.225  18.582  0.00  0.00    +0.000 HD
ATOM     14  H   UNL     1      53.403  -0.516  18.369  0.00  0.00    +0.000 HD
ENDBRANCH   7  10
ENDBRANCH   2   4
ENDBRANCH   1   2
BRANCH   1  15
ATOM     15  C   UNL     1      46.920   4.360  15.156  0.00  0.00    +0.000 C 
BRANCH  15  20
ATOM     16  C   UNL     1      45.138   4.983  11.818  0.00  0.00    +0.000 A 
ATOM     17  C   UNL     1      45.911   6.057  11.331  0.00  0.00    +0.000 A 
ATOM     18  C   UNL     1      47.005   6.549  12.043  0.00  0.00    +0.000 A 
ATOM     19  C   UNL     1      47.353   5.986  13.267  0.00  0.00    +0.000 A 
ATOM     20  C   UNL     1      46.621   4.911  13.776  0.00  0.00    +0.000 A 
ATOM     21  C   UNL     1      45.534   4.407  13.038  0.00  0.00    +0.000 A 
BRANCH  16  23
ATOM     22  C   UNL     1      42.739   5.548  11.414  0.00  0.00    +0.000 C 
ATOM     23  C   UNL     1      43.867   4.559  11.061  0.00  0.00    +0.000 C 
ATOM     24  C   UNL     1      44.116   4.485   9.550  0.00  0.00    +0.000 C 
ATOM     25  C   UNL     1      44.453   3.024   9.284  0.00  0.00    +0.000 C 
ATOM     26  O   UNL     1      44.133   2.274  10.461  0.00  0.00    +0.000 OA
ATOM     27  C   UNL     1      43.365   3.129  11.313  0.00  0.00    +0.000 C 
ENDBRANCH  16  23
ENDBRANCH  15  20
ENDBRANCH   1  15
TORSDOF 6
ENDMDL
MODEL 6
REMARK VINA RESULT:    -6.349      4.082      6.330
REMARK INTER + INTRA:          -9.766
REMARK INTER:                  -8.319
REMARK INTRA:                  -1.447
REMARK UNBOUND:                -1.190
REMARK  Name = 
REMARK  7 active torsions:
REMARK  status: ('A' for Active; 'I' for Inactive)
REMARK    1  A    between atoms: C_1  and  C_2
REMARK    2  A    between atoms: C_2  and  C_3
REMARK    3  A    between atoms: C_7  and  C_8
REMARK    4  A    between atoms: C_8  and  C_9
REMARK    5  A    between atoms: C_9  and  N_10
REMARK    6  A    between atoms: N_10  and  C_11
REMARK    7  A    between atoms: C_14  and  C_15
REMARK                            x       y       z     vdW  Elec       q    Type
REMARK                         _______ _______ _______ _____ _____    ______ ____
ROOT
ATOM      1  C   UNL     1      49.254   7.978  13.116  0.00  0.00    +0.000 C 
ENDROOT
BRANCH   1   2
ATOM      2  N   UNL     1      48.807   6.642  12.693  0.00  0.00    +0.000 N 
ATOM      3  H   UNL     1      49.320   5.898  13.159  0.00  0.00    +0.000 HD
BRANCH   2   4
ATOM      4  C   UNL     1      47.420   6.402  12.718  0.00  0.00    +0.000 A 
ATOM      5  C   UNL     1      46.509   7.131  11.943  0.00  0.00    +0.000 A 
ATOM      6  C   UNL     1      45.141   6.837  11.956  0.00  0.00    +0.000 A 
ATOM      7  C   UNL     1      44.654   5.772  12.714  0.00  0.00    +0.000 A 
ATOM      8  C   UNL     1      45.551   5.001  13.459  0.00  0.00    +0.000 A 
ATOM      9  C   UNL     1      46.922   5.308  13.443  0.00  0.00    +0.000 A 
BRANCH   7  10
ATOM     10  C   UNL     1      43.191   5.520  12.687  0.00  0.00    +0.000 C 
ATOM     11  N   UNL     1      42.456   6.145  11.722  0.00  0.00    +0.000 N 
ATOM     12  O   UNL     1      42.643   4.805  13.521  0.00  0.00    +0.000 OA
ATOM     13  H   UNL     1      42.815   6.917  11.179  0.00  0.00    +0.000 HD
ATOM     14  H   UNL     1      41.450   6.061  11.808  0.00  0.00    +0.000 HD
ENDBRANCH   7  10
ENDBRANCH   2   4
ENDBRANCH   1   2
BRANCH   1  15
ATOM     15  C   UNL     1      48.865   8.276  14.570  0.00  0.00    +0.000 C 
BRANCH  15  20
ATOM     16  C   UNL     1      49.732   5.499  17.068  0.00  0.00    +0.000 A 
ATOM     17  C   UNL     1      51.135   5.629  17.092  0.00  0.00    +0.000 A 
ATOM     18  C   UNL     1      51.790   6.612  16.350  0.00  0.00    +0.000 A 
ATOM     19  C   UNL     1      51.058   7.489  15.553  0.00  0.00    +0.000 A 
ATOM     20  C   UNL     1      49.665   7.402  15.514  0.00  0.00    +0.000 A 
ATOM     21  C   UNL     1      49.014   6.421  16.287  0.00  0.00    +0.000 A 
BRANCH  16  23
ATOM     22  C   UNL     1      49.010   4.659  19.306  0.00  0.00    +0.000 C 
ATOM     23  C   UNL     1      49.067   4.322  17.803  0.00  0.00    +0.000 C 
ATOM     24  C   UNL     1      47.680   4.016  17.228  0.00  0.00    +0.000 C 
ATOM     25  C   UNL     1      47.918   2.911  16.209  0.00  0.00    +0.000 C 
ATOM     26  O   UNL     1      49.248   2.416  16.394  0.00  0.00    +0.000 OA
ATOM     27  C   UNL     1      49.729   2.946  17.633  0.00  0.00    +0.000 C 
ENDBRANCH  16  23
ENDBRANCH  15  20
ENDBRANCH   1  15
TORSDOF 6
ENDMDL
MODEL 7
REMARK VINA RESULT:    -5.836      3.499      5.500
REMARK INTER + INTRA:          -9.074
REMARK INTER:                  -8.088
REMARK INTRA:                  -0.986
REMARK UNBOUND:                -1.190
REMARK  Name = 
REMARK  7 active torsions:
REMARK  status: ('A' for Active; 'I' for Inactive)
REMARK    1  A    between atoms: C_1  and  C_2
REMARK    2  A    between atoms: C_2  and  C_3
REMARK    3  A    between atoms: C_7  and  C_8
REMARK    4  A    between atoms: C_8  and  C_9
REMARK    5  A    between atoms: C_9  and  N_10
REMARK    6  A    between atoms: N_10  and  C_11
REMARK    7  A    between atoms: C_14  and  C_15
REMARK                            x       y       z     vdW  Elec       q    Type
REMARK                         _______ _______ _______ _____ _____    ______ ____
ROOT
ATOM      1  C   UNL     1      48.815   7.013  12.988  0.00  0.00    +0.000 C 
ENDROOT
BRANCH   1   2
ATOM      2  N   UNL     1      47.364   7.226  13.092  0.00  0.00    +0.000 N 
ATOM      3  H   UNL     1      47.082   8.141  12.749  0.00  0.00    +0.000 HD
BRANCH   2   4
ATOM      4  C   UNL     1      46.537   6.209  12.577  0.00  0.00    +0.000 A 
ATOM      5  C   UNL     1      45.973   6.264  11.296  0.00  0.00    +0.000 A 
ATOM      6  C   UNL     1      45.194   5.215  10.795  0.00  0.00    +0.000 A 
ATOM      7  C   UNL     1      44.995   4.059  11.550  0.00  0.00    +0.000 A 
ATOM      8  C   UNL     1      45.587   3.962  12.813  0.00  0.00    +0.000 A 
ATOM      9  C   UNL     1      46.364   5.024  13.309  0.00  0.00    +0.000 A 
BRANCH   7  10
ATOM     10  C   UNL     1      44.152   2.988  10.962  0.00  0.00    +0.000 C 
ATOM     11  N   UNL     1      44.670   2.270   9.924  0.00  0.00    +0.000 N 
ATOM     12  O   UNL     1      43.012   2.770  11.362  0.00  0.00    +0.000 OA
ATOM     13  H   UNL     1      45.487   2.568   9.410  0.00  0.00    +0.000 HD
ATOM     14  H   UNL     1      44.029   1.639   9.458  0.00  0.00    +0.000 HD
ENDBRANCH   7  10
ENDBRANCH   2   4
ENDBRANCH   1   2
BRANCH   1  15
ATOM     15  C   UNL     1      49.588   7.840  14.023  0.00  0.00    +0.000 C 
BRANCH  15  20
ATOM     16  C   UNL     1      48.604   5.999  17.240  0.00  0.00    +0.000 A 
ATOM     17  C   UNL     1      48.246   7.099  18.045  0.00  0.00    +0.000 A 
ATOM     18  C   UNL     1      48.284   8.405  17.554  0.00  0.00    +0.000 A 
ATOM     19  C   UNL     1      48.691   8.648  16.246  0.00  0.00    +0.000 A 
ATOM     20  C   UNL     1      49.040   7.583  15.412  0.00  0.00    +0.000 A 
ATOM     21  C   UNL     1      48.973   6.268  15.910  0.00  0.00    +0.000 A 
BRANCH  16  23
ATOM     22  C   UNL     1      47.400   3.821  17.445  0.00  0.00    +0.000 C 
ATOM     23  C   UNL     1      48.667   4.593  17.862  0.00  0.00    +0.000 C 
ATOM     24  C   UNL     1      49.949   3.859  17.456  0.00  0.00    +0.000 C 
ATOM     25  C   UNL     1      50.926   4.126  18.592  0.00  0.00    +0.000 C 
ATOM     26  O   UNL     1      50.193   4.694  19.682  0.00  0.00    +0.000 OA
ATOM     27  C   UNL     1      48.802   4.526  19.391  0.00  0.00    +0.000 C 
ENDBRANCH  16  23
ENDBRANCH  15  20
ENDBRANCH   1  15
TORSDOF 6
ENDMDL
MODEL 8
REMARK VINA RESULT:    -5.684      4.361      5.777
REMARK INTER + INTRA:          -8.868
REMARK INTER:                  -8.200
REMARK INTRA:                  -0.668
REMARK UNBOUND:                -1.190
REMARK  Name = 
REMARK  7 active torsions:
REMARK  status: ('A' for Active; 'I' for Inactive)
REMARK    1  A    between atoms: C_1  and  C_2
REMARK    2  A    between atoms: C_2  and  C_3
REMARK    3  A    between atoms: C_7  and  C_8
REMARK    4  A    between atoms: C_8  and  C_9
REMARK    5  A    between atoms: C_9  and  N_10
REMARK    6  A    between atoms: N_10  and  C_11
REMARK    7  A    between atoms: C_14  and  C_15
REMARK                            x       y       z     vdW  Elec       q    Type
REMARK                         _______ _______ _______ _____ _____    ______ ____
ROOT
ATOM      1  C   UNL     1      47.117   3.857  15.504  0.00  0.00    +0.000 C 
ENDROOT
BRANCH   1   2
ATOM      2  N   UNL     1      46.808   5.149  14.873  0.00  0.00    +0.000 N 
ATOM      3  H   UNL     1      47.555   5.829  14.999  0.00  0.00    +0.000 HD
BRANCH   2   4
ATOM      4  C   UNL     1      46.371   5.111  13.535  0.00  0.00    +0.000 A 
ATOM      5  C   UNL     1      46.638   6.136  12.619  0.00  0.00    +0.000 A 
ATOM      6  C   UNL     1      46.229   6.048  11.284  0.00  0.00    +0.000 A 
ATOM      7  C   UNL     1      45.579   4.905  10.819  0.00  0.00    +0.000 A 
ATOM      8  C   UNL     1      45.343   3.849  11.704  0.00  0.00    +0.000 A 
ATOM      9  C   UNL     1      45.753   3.951  13.044  0.00  0.00    +0.000 A 
BRANCH   7  10
ATOM     10  C   UNL     1      45.166   4.879   9.393  0.00  0.00    +0.000 C 
ATOM     11  N   UNL     1      43.899   4.461   9.106  0.00  0.00    +0.000 N 
ATOM     12  O   UNL     1      45.940   5.184   8.490  0.00  0.00    +0.000 OA
ATOM     13  H   UNL     1      43.320   3.977   9.777  0.00  0.00    +0.000 HD
ATOM     14  H   UNL     1      43.689   4.329   8.124  0.00  0.00    +0.000 HD
ENDBRANCH   7  10
ENDBRANCH   2   4
ENDBRANCH   1   2
BRANCH   1  15
ATOM     15  C   UNL     1      47.526   4.023  16.973  0.00  0.00    +0.000 C 
BRANCH  15  20
ATOM     16  C   UNL     1      51.254   4.564  17.688  0.00  0.00    +0.000 A 
ATOM     17  C   UNL     1      51.698   3.227  17.670  0.00  0.00    +0.000 A 
ATOM     18  C   UNL     1      50.825   2.172  17.398  0.00  0.00    +0.000 A 
ATOM     19  C   UNL     1      49.480   2.426  17.144  0.00  0.00    +0.000 A 
ATOM     20  C   UNL     1      49.005   3.740  17.139  0.00  0.00    +0.000 A 
ATOM     21  C   UNL     1      49.900   4.797  17.390  0.00  0.00    +0.000 A 
BRANCH  16  23
ATOM     22  C   UNL     1      53.276   5.861  17.005  0.00  0.00    +0.000 C 
ATOM     23  C   UNL     1      52.225   5.679  18.117  0.00  0.00    +0.000 C 
ATOM     24  C   UNL     1      51.479   6.982  18.424  0.00  0.00    +0.000 C 
ATOM     25  C   UNL     1      51.251   6.954  19.928  0.00  0.00    +0.000 C 
ATOM     26  O   UNL     1      52.048   5.900  20.477  0.00  0.00    +0.000 OA
ATOM     27  C   UNL     1      52.954   5.476  19.454  0.00  0.00    +0.000 C 
ENDBRANCH  16  23
ENDBRANCH  15  20
ENDBRANCH   1  15
TORSDOF 6
ENDMDL
MODEL 9
REMARK VINA RESULT:    -5.547      3.382      8.081
REMARK INTER + INTRA:          -8.683
REMARK INTER:                  -7.365
REMARK INTRA:                  -1.318
REMARK UNBOUND:                -1.190
REMARK  Name = 
REMARK  7 active torsions:
REMARK  status: ('A' for Active; 'I' for Inactive)
REMARK    1  A    between atoms: C_1  and  C_2
REMARK    2  A    between atoms: C_2  and  C_3
REMARK    3  A    between atoms: C_7  and  C_8
REMARK    4  A    between atoms: C_8  and  C_9
REMARK    5  A    between atoms: C_9  and  N_10
REMARK    6  A    between atoms: N_10  and  C_11
REMARK    7  A    between atoms: C_14  and  C_15
REMARK                            x       y       z     vdW  Elec       q    Type
REMARK                         _______ _______ _______ _____ _____    ______ ____
ROOT
ATOM      1  C   UNL     1      48.272   8.740  12.676  0.00  0.00    +0.000 C 
ENDROOT
BRANCH   1   2
ATOM      2  N   UNL     1      49.485   8.958  13.480  0.00  0.00    +0.000 N 
ATOM      3  H   UNL     1      49.740   9.941  13.535  0.00  0.00    +0.000 HD
BRANCH   2   4
ATOM      4  C   UNL     1      49.521   8.347  14.748  0.00  0.00    +0.000 A 
ATOM      5  C   UNL     1      48.555   8.585  15.734  0.00  0.00    +0.000 A 
ATOM      6  C   UNL     1      48.593   7.927  16.968  0.00  0.00    +0.000 A 
ATOM      7  C   UNL     1      49.578   6.975  17.231  0.00  0.00    +0.000 A 
ATOM      8  C   UNL     1      50.526   6.686  16.244  0.00  0.00    +0.000 A 
ATOM      9  C   UNL     1      50.481   7.357  15.010  0.00  0.00    +0.000 A 
BRANCH   7  10
ATOM     10  C   UNL     1      49.565   6.319  18.563  0.00  0.00    +0.000 C 
ATOM     11  N   UNL     1      48.352   6.003  19.102  0.00  0.00    +0.000 N 
ATOM     12  O   UNL     1      50.599   6.097  19.185  0.00  0.00    +0.000 OA
ATOM     13  H   UNL     1      47.484   6.379  18.749  0.00  0.00    +0.000 HD
ATOM     14  H   UNL     1      48.366   5.679  20.062  0.00  0.00    +0.000 HD
ENDBRANCH   7  10
ENDBRANCH   2   4
ENDBRANCH   1   2
BRANCH   1  15
ATOM     15  C   UNL     1      48.330   7.415  11.904  0.00  0.00    +0.000 C 
BRANCH  15  20
ATOM     16  C   UNL     1      45.158   5.265  12.030  0.00  0.00    +0.000 A 
ATOM     17  C   UNL     1      45.397   4.555  13.223  0.00  0.00    +0.000 A 
ATOM     18  C   UNL     1      46.537   4.787  13.994  0.00  0.00    +0.000 A 
ATOM     19  C   UNL     1      47.476   5.730  13.586  0.00  0.00    +0.000 A 
ATOM     20  C   UNL     1      47.267   6.466  12.417  0.00  0.00    +0.000 A 
ATOM     21  C   UNL     1      46.100   6.241  11.661  0.00  0.00    +0.000 A 
BRANCH  16  23
ATOM     22  C   UNL     1      42.854   5.949  11.351  0.00  0.00    +0.000 C 
ATOM     23  C   UNL     1      43.952   4.887  11.151  0.00  0.00    +0.000 C 
ATOM     24  C   UNL     1      44.356   4.744   9.680  0.00  0.00    +0.000 C 
ATOM     25  C   UNL     1      44.632   3.259   9.495  0.00  0.00    +0.000 C 
ATOM     26  O   UNL     1      44.143   2.570  10.651  0.00  0.00    +0.000 OA
ATOM     27  C   UNL     1      43.341   3.497  11.389  0.00  0.00    +0.000 C 
ENDBRANCH  16  23
ENDBRANCH  15  20
ENDBRANCH   1  15
TORSDOF 6
ENDMDL
