MODEL 1
REMARK VINA RESULT:    -7.956      0.000      0.000
REMARK INTER + INTRA:         -10.310
REMARK INTER:                 -10.049
REMARK INTRA:                  -0.261
REMARK UNBOUND:                -0.261
REMARK  Name = 
REMARK  5 active torsions:
REMARK  status: ('A' for Active; 'I' for Inactive)
REMARK    1  A    between atoms: N_1  and  C_2
REMARK    2  A    between atoms: C_2  and  C_3
REMARK    3  A    between atoms: C_3  and  C_4
REMARK    4  A    between atoms: C_7  and  C_8
REMARK    5  A    between atoms: C_8  and  N_9
REMARK                            x       y       z     vdW  Elec       q    Type
REMARK                         _______ _______ _______ _____ _____    ______ ____
ROOT
ATOM      1  C   UNL     1      45.782   3.200   7.845  0.00  0.00    +0.000 A 
ATOM      2  C   UNL     1      45.758   2.053   8.637  0.00  0.00    +0.000 A 
ATOM      3  C   UNL     1      44.958   2.046   9.768  0.00  0.00    +0.000 A 
ATOM      4  C   UNL     1      44.207   3.176  10.094  0.00  0.00    +0.000 A 
ATOM      5  C   UNL     1      44.328   4.289   9.268  0.00  0.00    +0.000 A 
ATOM      6  N   UNL     1      45.091   4.322   8.157  0.00  0.00    +0.000 NA
ENDROOT
BRANCH   1   7
ATOM      7  C   UNL     1      46.618   3.255   6.587  0.00  0.00    +0.000 C 
BRANCH   7   8
ATOM      8  C   UNL     1      47.960   2.547   6.793  0.00  0.00    +0.000 C 
BRANCH   8   9
ATOM      9  N   UNL     1      48.403   1.877   5.567  0.00  0.00    +0.000 NA
ATOM     10  H   UNL     1      48.270   0.873   5.675  0.00  0.00    +0.000 HD
ATOM     11  H   UNL     1      49.410   2.012   5.461  0.00  0.00    +0.000 HD
ENDBRANCH   8   9
ENDBRANCH   7   8
ENDBRANCH   1   7
BRANCH   4  12
ATOM     12  C   UNL     1      43.213   3.157  11.205  0.00  0.00    +0.000 C 
BRANCH  12  13
ATOM     13  N   UNL     1      43.499   4.064  12.325  0.00  0.00    +0.000 N 
ATOM     14  C   UNL     1      42.830   5.273  12.444  0.00  0.00    +0.000 A 
ATOM     15  C   UNL     1      43.733   6.219  12.000  0.00  0.00    +0.000 A 
ATOM     16  C   UNL     1      44.993   5.703  12.398  0.00  0.00    +0.000 A 
ATOM     17  C   UNL     1      46.268   6.251  12.603  0.00  0.00    +0.000 A 
ATOM     18  C   UNL     1      47.197   5.421  13.210  0.00  0.00    +0.000 A 
ATOM     19  F   UNL     1      48.388   5.918  13.566  0.00  0.00    +0.000 F 
ATOM     20  C   UNL     1      46.879   4.096  13.486  0.00  0.00    +0.000 A 
ATOM     21  N   UNL     1      45.706   3.482  13.186  0.00  0.00    +0.000 NA
ATOM     22  C   UNL     1      44.805   4.349  12.685  0.00  0.00    +0.000 A 
ENDBRANCH  12  13
ENDBRANCH   4  12
TORSDOF 5
ENDMDL
MODEL 2
REMARK VINA RESULT:    -7.105      1.634      2.039
REMARK INTER + INTRA:          -9.235
REMARK INTER:                  -8.822
REMARK INTRA:                  -0.414
REMARK UNBOUND:                -0.261
REMARK  Name = 
REMARK  5 active torsions:
REMARK  status: ('A' for Active; 'I' for Inactive)
REMARK    1  A    between atoms: N_1  and  C_2
REMARK    2  A    between atoms: C_2  and  C_3
REMARK    3  A    between atoms: C_3  and  C_4
REMARK    4  A    between atoms: C_7  and  C_8
REMARK    5  A    between atoms: C_8  and  N_9
REMARK                            x       y       z     vdW  Elec       q    Type
REMARK                         _______ _______ _______ _____ _____    ______ ____
ROOT
ATOM      1  C   UNL     1      46.265   2.066   7.784  0.00  0.00    +0.000 A 
ATOM      2  C   UNL     1      46.055   3.413   7.492  0.00  0.00    +0.000 A 
ATOM      3  C   UNL     1      45.161   4.129   8.272  0.00  0.00    +0.000 A 
ATOM      4  C   UNL     1      44.487   3.493   9.316  0.00  0.00    +0.000 A 
ATOM      5  C   UNL     1      44.729   2.136   9.505  0.00  0.00    +0.000 A 
ATOM      6  N   UNL     1      45.599   1.417   8.769  0.00  0.00    +0.000 NA
ENDROOT
BRANCH   1   7
ATOM      7  C   UNL     1      47.247   1.244   6.982  0.00  0.00    +0.000 C 
BRANCH   7   8
ATOM      8  C   UNL     1      48.398   2.115   6.471  0.00  0.00    +0.000 C 
BRANCH   8   9
ATOM      9  N   UNL     1      48.288   2.351   5.028  0.00  0.00    +0.000 NA
ATOM     10  H   UNL     1      47.306   2.302   4.762  0.00  0.00    +0.000 HD
ATOM     11  H   UNL     1      48.747   1.586   4.532  0.00  0.00    +0.000 HD
ENDBRANCH   8   9
ENDBRANCH   7   8
ENDBRANCH   1   7
BRANCH   4  12
ATOM     12  C   UNL     1      43.642   4.257  10.277  0.00  0.00    +0.000 C 
BRANCH  12  13
ATOM     13  N   UNL     1      44.256   4.526  11.585  0.00  0.00    +0.000 N 
ATOM     14  C   UNL     1      43.488   4.531  12.739  0.00  0.00    +0.000 A 
ATOM     15  C   UNL     1      43.297   5.869  13.027  0.00  0.00    +0.000 A 
ATOM     16  C   UNL     1      44.498   6.487  12.594  0.00  0.00    +0.000 A 
ATOM     17  C   UNL     1      45.145   7.699  12.876  0.00  0.00    +0.000 A 
ATOM     18  C   UNL     1      46.438   7.827  12.390  0.00  0.00    +0.000 A 
ATOM     19  F   UNL     1      47.167   8.894  12.738  0.00  0.00    +0.000 F 
ATOM     20  C   UNL     1      46.985   6.835  11.584  0.00  0.00    +0.000 A 
ATOM     21  N   UNL     1      46.352   5.705  11.174  0.00  0.00    +0.000 NA
ATOM     22  C   UNL     1      45.138   5.581  11.746  0.00  0.00    +0.000 A 
ENDBRANCH  12  13
ENDBRANCH   4  12
TORSDOF 5
ENDMDL
MODEL 3
REMARK VINA RESULT:    -6.555      2.890      6.405
REMARK INTER + INTRA:          -8.540
REMARK INTER:                  -8.605
REMARK INTRA:                   0.065
REMARK UNBOUND:                -0.261
REMARK  Name = 
REMARK  5 active torsions:
REMARK  status: ('A' for Active; 'I' for Inactive)
REMARK    1  A    between atoms: N_1  and  C_2
REMARK    2  A    between atoms: C_2  and  C_3
REMARK    3  A    between atoms: C_3  and  C_4
REMARK    4  A    between atoms: C_7  and  C_8
REMARK    5  A    between atoms: C_8  and  N_9
REMARK                            x       y       z     vdW  Elec       q    Type
REMARK                         _______ _______ _______ _____ _____    ______ ____
ROOT
ATOM      1  C   UNL     1      47.687   3.859  15.924  0.00  0.00    +0.000 A 
ATOM      2  C   UNL     1      47.832   5.243  16.010  0.00  0.00    +0.000 A 
ATOM      3  C   UNL     1      47.624   6.002  14.870  0.00  0.00    +0.000 A 
ATOM      4  C   UNL     1      47.288   5.375  13.670  0.00  0.00    +0.000 A 
ATOM      5  C   UNL     1      47.208   3.986  13.671  0.00  0.00    +0.000 A 
ATOM      6  N   UNL     1      47.396   3.222  14.765  0.00  0.00    +0.000 NA
ENDROOT
BRANCH   1   7
ATOM      7  C   UNL     1      47.878   2.984  17.141  0.00  0.00    +0.000 C 
BRANCH   7   8
ATOM      8  C   UNL     1      49.332   2.517  17.256  0.00  0.00    +0.000 C 
BRANCH   8   9
ATOM      9  N   UNL     1      49.726   1.709  16.099  0.00  0.00    +0.000 NA
ATOM     10  H   UNL     1      50.127   0.833  16.431  0.00  0.00    +0.000 HD
ATOM     11  H   UNL     1      50.480   2.187  15.604  0.00  0.00    +0.000 HD
ENDBRANCH   8   9
ENDBRANCH   7   8
ENDBRANCH   1   7
BRANCH   4  12
ATOM     12  C   UNL     1      46.899   6.159  12.463  0.00  0.00    +0.000 C 
BRANCH  12  13
ATOM     13  N   UNL     1      45.519   5.965  12.000  0.00  0.00    +0.000 N 
ATOM     14  C   UNL     1      44.486   5.788  12.909  0.00  0.00    +0.000 A 
ATOM     15  C   UNL     1      44.235   4.429  12.894  0.00  0.00    +0.000 A 
ATOM     16  C   UNL     1      44.495   4.048  11.553  0.00  0.00    +0.000 A 
ATOM     17  C   UNL     1      44.129   2.962  10.743  0.00  0.00    +0.000 A 
ATOM     18  C   UNL     1      44.425   3.081   9.394  0.00  0.00    +0.000 A 
ATOM     19  F   UNL     1      43.981   2.151   8.540  0.00  0.00    +0.000 F 
ATOM     20  C   UNL     1      45.139   4.178   8.927  0.00  0.00    +0.000 A 
ATOM     21  N   UNL     1      45.631   5.189   9.690  0.00  0.00    +0.000 NA
ATOM     22  C   UNL     1      45.238   5.079  10.974  0.00  0.00    +0.000 A 
ENDBRANCH  12  13
ENDBRANCH   4  12
TORSDOF 5
ENDMDL
MODEL 4
REMARK VINA RESULT:    -6.436      3.327      6.053
REMARK INTER + INTRA:          -8.390
REMARK INTER:                  -7.776
REMARK INTRA:                  -0.614
REMARK UNBOUND:                -0.261
REMARK  Name = 
REMARK  5 active torsions:
REMARK  status: ('A' for Active; 'I' for Inactive)
REMARK    1  A    between atoms: N_1  and  C_2
REMARK    2  A    between atoms: C_2  and  C_3
REMARK    3  A    between atoms: C_3  and  C_4
REMARK    4  A    between atoms: C_7  and  C_8
REMARK    5  A    between atoms: C_8  and  N_9
REMARK                            x       y       z     vdW  Elec       q    Type
REMARK                         _______ _______ _______ _____ _____    ______ ____
ROOT
ATOM      1  C   UNL     1      47.860   8.342  12.413  0.00  0.00    +0.000 A 
ATOM      2  C   UNL     1      48.467   7.098  12.587  0.00  0.00    +0.000 A 
ATOM      3  C   UNL     1      47.668   6.007  12.886  0.00  0.00    +0.000 A 
ATOM      4  C   UNL     1      46.288   6.172  13.017  0.00  0.00    +0.000 A 
ATOM      5  C   UNL     1      45.778   7.458  12.869  0.00  0.00    +0.000 A 
ATOM      6  N   UNL     1      46.529   8.536  12.569  0.00  0.00    +0.000 NA
ENDROOT
BRANCH   1   7
ATOM      7  C   UNL     1      48.680   9.561  12.061  0.00  0.00    +0.000 C 
BRANCH   7   8
ATOM      8  C   UNL     1      48.336  10.735  12.983  0.00  0.00    +0.000 C 
BRANCH   8   9
ATOM      9  N   UNL     1      47.121  11.423  12.538  0.00  0.00    +0.000 NA
ATOM     10  H   UNL     1      46.700  11.894  13.338  0.00  0.00    +0.000 HD
ATOM     11  H   UNL     1      46.438  10.727  12.238  0.00  0.00    +0.000 HD
ENDBRANCH   8   9
ENDBRANCH   7   8
ENDBRANCH   1   7
BRANCH   4  12
ATOM     12  C   UNL     1      45.376   5.005  13.178  0.00  0.00    +0.000 C 
BRANCH  12  13
ATOM     13  N   UNL     1      44.370   4.837  12.121  0.00  0.00    +0.000 N 
ATOM     14  C   UNL     1      43.219   4.099  12.350  0.00  0.00    +0.000 A 
ATOM     15  C   UNL     1      43.453   2.884  11.735  0.00  0.00    +0.000 A 
ATOM     16  C   UNL     1      44.247   3.219  10.608  0.00  0.00    +0.000 A 
ATOM     17  C   UNL     1      44.548   2.594   9.389  0.00  0.00    +0.000 A 
ATOM     18  C   UNL     1      45.211   3.373   8.453  0.00  0.00    +0.000 A 
ATOM     19  F   UNL     1      45.406   2.893   7.218  0.00  0.00    +0.000 F 
ATOM     20  C   UNL     1      45.630   4.657   8.780  0.00  0.00    +0.000 A 
ATOM     21  N   UNL     1      45.480   5.258   9.990  0.00  0.00    +0.000 NA
ATOM     22  C   UNL     1      44.751   4.501  10.833  0.00  0.00    +0.000 A 
ENDBRANCH  12  13
ENDBRANCH   4  12
TORSDOF 5
ENDMDL
MODEL 5
REMARK VINA RESULT:    -6.087      2.488      6.077
REMARK INTER + INTRA:          -7.950
REMARK INTER:                  -8.645
REMARK INTRA:                   0.696
REMARK UNBOUND:                -0.261
REMARK  Name = 
REMARK  5 active torsions:
REMARK  status: ('A' for Active; 'I' for Inactive)
REMARK    1  A    between atoms: N_1  and  C_2
REMARK    2  A    between atoms: C_2  and  C_3
REMARK    3  A    between atoms: C_3  and  C_4
REMARK    4  A    between atoms: C_7  and  C_8
REMARK    5  A    between atoms: C_8  and  N_9
REMARK                            x       y       z     vdW  Elec       q    Type
REMARK                         _______ _______ _______ _____ _____    ______ ____
ROOT
ATOM      1  C   UNL     1      46.770   4.721  14.602  0.00  0.00    +0.000 A 
ATOM      2  C   UNL     1      47.623   5.385  13.721  0.00  0.00    +0.000 A 
ATOM      3  C   UNL     1      47.122   5.796  12.497  0.00  0.00    +0.000 A 
ATOM      4  C   UNL     1      45.791   5.533  12.168  0.00  0.00    +0.000 A 
ATOM      5  C   UNL     1      45.028   4.827  13.093  0.00  0.00    +0.000 A 
ATOM      6  N   UNL     1      45.486   4.423  14.294  0.00  0.00    +0.000 NA
ENDROOT
BRANCH   1   7
ATOM      7  C   UNL     1      47.258   4.272  15.960  0.00  0.00    +0.000 C 
BRANCH   7   8
ATOM      8  C   UNL     1      47.950   2.909  15.869  0.00  0.00    +0.000 C 
BRANCH   8   9
ATOM      9  N   UNL     1      49.235   2.915  16.572  0.00  0.00    +0.000 NA
ATOM     10  H   UNL     1      49.186   2.261  17.352  0.00  0.00    +0.000 HD
ATOM     11  H   UNL     1      49.378   3.834  16.992  0.00  0.00    +0.000 HD
ENDBRANCH   8   9
ENDBRANCH   7   8
ENDBRANCH   1   7
BRANCH   4  12
ATOM     12  C   UNL     1      45.167   6.095  10.937  0.00  0.00    +0.000 C 
BRANCH  12  13
ATOM     13  N   UNL     1      44.429   5.134  10.106  0.00  0.00    +0.000 N 
ATOM     14  C   UNL     1      43.447   4.328  10.660  0.00  0.00    +0.000 A 
ATOM     15  C   UNL     1      44.049   3.093  10.809  0.00  0.00    +0.000 A 
ATOM     16  C   UNL     1      44.939   3.012   9.709  0.00  0.00    +0.000 A 
ATOM     17  C   UNL     1      45.585   1.965   9.033  0.00  0.00    +0.000 A 
ATOM     18  C   UNL     1      46.217   2.305   7.847  0.00  0.00    +0.000 A 
ATOM     19  F   UNL     1      46.732   1.339   7.077  0.00  0.00    +0.000 F 
ATOM     20  C   UNL     1      46.278   3.633   7.440  0.00  0.00    +0.000 A 
ATOM     21  N   UNL     1      45.785   4.697   8.125  0.00  0.00    +0.000 NA
ATOM     22  C   UNL     1      45.100   4.310   9.219  0.00  0.00    +0.000 A 
ENDBRANCH  12  13
ENDBRANCH   4  12
TORSDOF 5
ENDMDL
MODEL 6
REMARK VINA RESULT:    -6.071      4.139      7.414
REMARK INTER + INTRA:          -7.929
REMARK INTER:                  -7.622
REMARK INTRA:                  -0.306
REMARK UNBOUND:                -0.261
REMARK  Name = 
REMARK  5 active torsions:
REMARK  status: ('A' for Active; 'I' for Inactive)
REMARK    1  A    between atoms: N_1  and  C_2
REMARK    2  A    between atoms: C_2  and  C_3
REMARK    3  A    between atoms: C_3  and  C_4
REMARK    4  A    between atoms: C_7  and  C_8
REMARK    5  A    between atoms: C_8  and  N_9
REMARK                            x       y       z     vdW  Elec       q    Type
REMARK                         _______ _______ _______ _____ _____    ______ ____
ROOT
ATOM      1  C   UNL     1      50.253   3.235  17.423  0.00  0.00    +0.000 A 
ATOM      2  C   UNL     1      49.265   2.339  17.017  0.00  0.00    +0.000 A 
ATOM      3  C   UNL     1      48.125   2.839  16.411  0.00  0.00    +0.000 A 
ATOM      4  C   UNL     1      47.983   4.216  16.228  0.00  0.00    +0.000 A 
ATOM      5  C   UNL     1      49.001   5.036  16.705  0.00  0.00    +0.000 A 
ATOM      6  N   UNL     1      50.125   4.577  17.290  0.00  0.00    +0.000 NA
ENDROOT
BRANCH   1   7
ATOM      7  C   UNL     1      51.528   2.743  18.068  0.00  0.00    +0.000 C 
BRANCH   7   8
ATOM      8  C   UNL     1      52.022   1.461  17.391  0.00  0.00    +0.000 C 
BRANCH   8   9
ATOM      9  N   UNL     1      51.662   0.273  18.170  0.00  0.00    +0.000 NA
ATOM     10  H   UNL     1      51.044  -0.312  17.610  0.00  0.00    +0.000 HD
ATOM     11  H   UNL     1      51.109   0.563  18.978  0.00  0.00    +0.000 HD
ENDBRANCH   8   9
ENDBRANCH   7   8
ENDBRANCH   1   7
BRANCH   4  12
ATOM     12  C   UNL     1      46.853   4.785  15.440  0.00  0.00    +0.000 C 
BRANCH  12  13
ATOM     13  N   UNL     1      47.089   4.909  13.995  0.00  0.00    +0.000 N 
ATOM     14  C   UNL     1      47.644   6.065  13.467  0.00  0.00    +0.000 A 
ATOM     15  C   UNL     1      46.575   6.750  12.923  0.00  0.00    +0.000 A 
ATOM     16  C   UNL     1      45.711   5.725  12.460  0.00  0.00    +0.000 A 
ATOM     17  C   UNL     1      44.664   5.658  11.528  0.00  0.00    +0.000 A 
ATOM     18  C   UNL     1      44.212   4.387  11.211  0.00  0.00    +0.000 A 
ATOM     19  F   UNL     1      43.315   4.235  10.228  0.00  0.00    +0.000 F 
ATOM     20  C   UNL     1      44.716   3.276  11.879  0.00  0.00    +0.000 A 
ATOM     21  N   UNL     1      45.633   3.300  12.881  0.00  0.00    +0.000 NA
ATOM     22  C   UNL     1      46.110   4.543  13.088  0.00  0.00    +0.000 A 
ENDBRANCH  12  13
ENDBRANCH   4  12
TORSDOF 5
ENDMDL
MODEL 7
REMARK VINA RESULT:    -5.817      2.866      6.677
REMARK INTER + INTRA:          -7.609
REMARK INTER:                  -7.715
REMARK INTRA:                   0.106
REMARK UNBOUND:                -0.261
REMARK  Name = 
REMARK  5 active torsions:
REMARK  status: ('A' for Active; 'I' for Inactive)
REMARK    1  A    between atoms: N_1  and  C_2
REMARK    2  A    between atoms: C_2  and  C_3
REMARK    3  A    between atoms: C_3  and  C_4
REMARK    4  A    between atoms: C_7  and  C_8
REMARK    5  A    between atoms: C_8  and  N_9
REMARK                            x       y       z     vdW  Elec       q    Type
REMARK                         _______ _______ _______ _____ _____    ______ ____
ROOT
ATOM      1  C   UNL     1      48.120   5.596  15.706  0.00  0.00    +0.000 A 
ATOM      2  C   UNL     1      48.400   6.927  15.401  0.00  0.00    +0.000 A 
ATOM      3  C   UNL     1      48.214   7.362  14.099  0.00  0.00    +0.000 A 
ATOM      4  C   UNL     1      47.763   6.468  13.127  0.00  0.00    +0.000 A 
ATOM      5  C   UNL     1      47.551   5.149  13.515  0.00  0.00    +0.000 A 
ATOM      6  N   UNL     1      47.715   4.700  14.775  0.00  0.00    +0.000 NA
ENDROOT
BRANCH   1   7
ATOM      7  C   UNL     1      48.282   5.074  17.115  0.00  0.00    +0.000 C 
BRANCH   7   8
ATOM      8  C   UNL     1      48.006   3.568  17.175  0.00  0.00    +0.000 C 
BRANCH   8   9
ATOM      9  N   UNL     1      46.601   3.296  17.491  0.00  0.00    +0.000 NA
ATOM     10  H   UNL     1      46.034   3.503  16.670  0.00  0.00    +0.000 HD
ATOM     11  H   UNL     1      46.291   3.950  18.211  0.00  0.00    +0.000 HD
ENDBRANCH   8   9
ENDBRANCH   7   8
ENDBRANCH   1   7
BRANCH   4  12
ATOM     12  C   UNL     1      47.395   6.927  11.757  0.00  0.00    +0.000 C 
BRANCH  12  13
ATOM     13  N   UNL     1      45.983   6.757  11.391  0.00  0.00    +0.000 N 
ATOM     14  C   UNL     1      44.986   6.868  12.349  0.00  0.00    +0.000 A 
ATOM     15  C   UNL     1      44.630   5.565  12.636  0.00  0.00    +0.000 A 
ATOM     16  C   UNL     1      44.794   4.884  11.403  0.00  0.00    +0.000 A 
ATOM     17  C   UNL     1      44.306   3.686  10.861  0.00  0.00    +0.000 A 
ATOM     18  C   UNL     1      44.543   3.488   9.509  0.00  0.00    +0.000 A 
ATOM     19  F   UNL     1      43.988   2.437   8.892  0.00  0.00    +0.000 F 
ATOM     20  C   UNL     1      45.316   4.394   8.793  0.00  0.00    +0.000 A 
ATOM     21  N   UNL     1      45.921   5.499   9.302  0.00  0.00    +0.000 NA
ATOM     22  C   UNL     1      45.585   5.700  10.591  0.00  0.00    +0.000 A 
ENDBRANCH  12  13
ENDBRANCH   4  12
TORSDOF 5
ENDMDL
MODEL 8
REMARK VINA RESULT:    -5.803      3.658      6.207
REMARK INTER + INTRA:          -7.591
REMARK INTER:                  -6.910
REMARK INTRA:                  -0.680
REMARK UNBOUND:                -0.261
REMARK  Name = 
REMARK  5 active torsions:
REMARK  status: ('A' for Active; 'I' for Inactive)
REMARK    1  A    between atoms: N_1  and  C_2
REMARK    2  A    between atoms: C_2  and  C_3
REMARK    3  A    between atoms: C_3  and  C_4
REMARK    4  A    between atoms: C_7  and  C_8
REMARK    5  A    between atoms: C_8  and  N_9
REMARK                            x       y       z     vdW  Elec       q    Type
REMARK                         _______ _______ _______ _____ _____    ______ ____
ROOT
ATOM      1  C   UNL     1      44.847   5.526  11.614  0.00  0.00    +0.000 A 
ATOM      2  C   UNL     1      45.336   6.800  11.325  0.00  0.00    +0.000 A 
ATOM      3  C   UNL     1      46.532   7.196  11.901  0.00  0.00    +0.000 A 
ATOM      4  C   UNL     1      47.212   6.329  12.757  0.00  0.00    +0.000 A 
ATOM      5  C   UNL     1      46.625   5.095  13.020  0.00  0.00    +0.000 A 
ATOM      6  N   UNL     1      45.469   4.679  12.468  0.00  0.00    +0.000 NA
ENDROOT
BRANCH   1   7
ATOM      7  C   UNL     1      43.560   5.033  10.995  0.00  0.00    +0.000 C 
BRANCH   7   8
ATOM      8  C   UNL     1      42.351   5.467  11.829  0.00  0.00    +0.000 C 
BRANCH   8   9
ATOM      9  N   UNL     1      42.637   5.386  13.264  0.00  0.00    +0.000 NA
ATOM     10  H   UNL     1      42.763   4.407  13.519  0.00  0.00    +0.000 HD
ATOM     11  H   UNL     1      41.816   5.701  13.783  0.00  0.00    +0.000 HD
ENDBRANCH   8   9
ENDBRANCH   7   8
ENDBRANCH   1   7
BRANCH   4  12
ATOM     12  C   UNL     1      48.575   6.648  13.268  0.00  0.00    +0.000 C 
BRANCH  12  13
ATOM     13  N   UNL     1      48.634   7.129  14.655  0.00  0.00    +0.000 N 
ATOM     14  C   UNL     1      49.249   8.334  14.960  0.00  0.00    +0.000 A 
ATOM     15  C   UNL     1      50.480   7.978  15.477  0.00  0.00    +0.000 A 
ATOM     16  C   UNL     1      50.226   6.758  16.154  0.00  0.00    +0.000 A 
ATOM     17  C   UNL     1      50.875   6.034  17.166  0.00  0.00    +0.000 A 
ATOM     18  C   UNL     1      50.166   4.971  17.704  0.00  0.00    +0.000 A 
ATOM     19  F   UNL     1      50.661   4.322  18.766  0.00  0.00    +0.000 F 
ATOM     20  C   UNL     1      48.934   4.609  17.172  0.00  0.00    +0.000 A 
ATOM     21  N   UNL     1      48.325   5.195  16.109  0.00  0.00    +0.000 NA
ATOM     22  C   UNL     1      49.004   6.277  15.682  0.00  0.00    +0.000 A 
ENDBRANCH  12  13
ENDBRANCH   4  12
TORSDOF 5
ENDMDL
MODEL 9
REMARK VINA RESULT:    -5.012      4.093      6.799
REMARK INTER + INTRA:          -6.591
REMARK INTER:                  -5.930
REMARK INTRA:                  -0.660
REMARK UNBOUND:                -0.261
REMARK  Name = 
REMARK  5 active torsions:
REMARK  status: ('A' for Active; 'I' for Inactive)
REMARK    1  A    between atoms: N_1  and  C_2
REMARK    2  A    between atoms: C_2  and  C_3
REMARK    3  A    between atoms: C_3  and  C_4
REMARK    4  A    between atoms: C_7  and  C_8
REMARK    5  A    between atoms: C_8  and  N_9
REMARK                            x       y       z     vdW  Elec       q    Type
REMARK                         _______ _______ _______ _____ _____    ______ ____
ROOT
ATOM      1  C   UNL     1      49.970   9.356  12.579  0.00  0.00    +0.000 A 
ATOM      2  C   UNL     1      49.933   8.199  11.800  0.00  0.00    +0.000 A 
ATOM      3  C   UNL     1      48.720   7.555  11.627  0.00  0.00    +0.000 A 
ATOM      4  C   UNL     1      47.571   8.062  12.236  0.00  0.00    +0.000 A 
ATOM      5  C   UNL     1      47.712   9.196  13.030  0.00  0.00    +0.000 A 
ATOM      6  N   UNL     1      48.877   9.849  13.209  0.00  0.00    +0.000 NA
ENDROOT
BRANCH   1   7
ATOM      7  C   UNL     1      51.262  10.113  12.781  0.00  0.00    +0.000 C 
BRANCH   7   8
ATOM      8  C   UNL     1      51.464  10.464  14.258  0.00  0.00    +0.000 C 
BRANCH   8   9
ATOM      9  N   UNL     1      51.250   9.296  15.117  0.00  0.00    +0.000 NA
ATOM     10  H   UNL     1      51.900   8.562  14.841  0.00  0.00    +0.000 HD
ATOM     11  H   UNL     1      50.318   8.920  14.939  0.00  0.00    +0.000 HD
ENDBRANCH   8   9
ENDBRANCH   7   8
ENDBRANCH   1   7
BRANCH   4  12
ATOM     12  C   UNL     1      46.222   7.498  11.948  0.00  0.00    +0.000 C 
BRANCH  12  13
ATOM     13  N   UNL     1      45.734   6.503  12.913  0.00  0.00    +0.000 N 
ATOM     14  C   UNL     1      46.610   5.873  13.784  0.00  0.00    +0.000 A 
ATOM     15  C   UNL     1      46.810   4.621  13.236  0.00  0.00    +0.000 A 
ATOM     16  C   UNL     1      45.566   4.309  12.632  0.00  0.00    +0.000 A 
ATOM     17  C   UNL     1      44.935   3.125  12.222  0.00  0.00    +0.000 A 
ATOM     18  C   UNL     1      43.600   3.239  11.864  0.00  0.00    +0.000 A 
ATOM     19  F   UNL     1      42.894   2.133  11.599  0.00  0.00    +0.000 F 
ATOM     20  C   UNL     1      42.990   4.488  11.823  0.00  0.00    +0.000 A 
ATOM     21  N   UNL     1      43.594   5.676  12.082  0.00  0.00    +0.000 NA
ATOM     22  C   UNL     1      44.859   5.507  12.515  0.00  0.00    +0.000 A 
ENDBRANCH  12  13
ENDBRANCH   4  12
TORSDOF 5
ENDMDL
