MODEL 1
REMARK VINA RESULT:    -7.889      0.000      0.000
REMARK INTER + INTRA:         -10.684
REMARK INTER:                 -10.195
REMARK INTRA:                  -0.489
REMARK UNBOUND:                -0.489
REMARK  Name = 
REMARK  5 active torsions:
REMARK  status: ('A' for Active; 'I' for Inactive)
REMARK    1  A    between atoms: C_2  and  C_3
REMARK    2  A    between atoms: C_6  and  C_7
REMARK    3  A    between atoms: C_7  and  C_8
REMARK    4  A    between atoms: C_8  and  N_9
REMARK    5  A    between atoms: C_13  and  C_14
REMARK                            x       y       z     vdW  Elec       q    Type
REMARK                         _______ _______ _______ _____ _____    ______ ____
ROOT
ATOM      1  C   UNL     1      43.402   4.712  10.689  0.00  0.00    +0.000 C 
ENDROOT
BRANCH   1   2
ATOM      2  N   UNL     1      44.262   5.205   9.606  0.00  0.00    +0.000 N 
ATOM      3  C   UNL     1      44.980   4.134   9.019  0.00  0.00    +0.000 A 
ATOM      4  C   UNL     1      45.897   4.357   7.983  0.00  0.00    +0.000 A 
ATOM      5  N   UNL     1      46.623   3.373   7.375  0.00  0.00    +0.000 NA
ATOM      6  C   UNL     1      46.377   2.119   7.849  0.00  0.00    +0.000 A 
ATOM      7  C   UNL     1      45.465   1.878   8.857  0.00  0.00    +0.000 A 
ATOM      8  N   UNL     1      44.756   2.870   9.448  0.00  0.00    +0.000 NA
ATOM      9  H   UNL     1      44.925   5.896   9.948  0.00  0.00    +0.000 HD
BRANCH   6  10
ATOM     10  C   UNL     1      47.121   0.969   7.267  0.00  0.00    +0.000 C 
ATOM     11  N   UNL     1      46.750  -0.274   7.693  0.00  0.00    +0.000 N 
ATOM     12  O   UNL     1      48.017   1.120   6.448  0.00  0.00    +0.000 OA
ATOM     13  H   UNL     1      46.014  -0.378   8.376  0.00  0.00    +0.000 HD
ATOM     14  H   UNL     1      47.231  -1.084   7.326  0.00  0.00    +0.000 HD
ENDBRANCH   6  10
ENDBRANCH   1   2
BRANCH   1  15
ATOM     15  C   UNL     1      43.988   4.917  12.076  0.00  0.00    +0.000 C 
ATOM     16  C   UNL     1      42.960   4.869  13.211  0.00  0.00    +0.000 C 
ATOM     17  C   UNL     1      43.952   3.770  13.064  0.00  0.00    +0.000 C 
ATOM     18  F   UNL     1      43.485   2.547  12.620  0.00  0.00    +0.000 F 
BRANCH  15  22
ATOM     19  C   UNL     1      47.199   7.857  12.282  0.00  0.00    +0.000 A 
ATOM     20  C   UNL     1      47.468   6.507  12.516  0.00  0.00    +0.000 A 
ATOM     21  C   UNL     1      46.429   5.569  12.485  0.00  0.00    +0.000 A 
ATOM     22  C   UNL     1      45.100   5.954  12.216  0.00  0.00    +0.000 A 
ATOM     23  C   UNL     1      44.850   7.324  12.025  0.00  0.00    +0.000 A 
ATOM     24  C   UNL     1      45.884   8.265  12.050  0.00  0.00    +0.000 A 
BRANCH  19  26
ATOM     25  N   UNL     1      49.120   9.600  12.252  0.00  0.00    +0.000 NA
ATOM     26  C   UNL     1      48.266   8.815  12.261  0.00  0.00    +0.000 C 
ENDBRANCH  19  26
ENDBRANCH  15  22
ENDBRANCH   1  15
TORSDOF 5
ENDMDL
MODEL 2
REMARK VINA RESULT:    -7.660      4.092      7.096
REMARK INTER + INTRA:         -10.388
REMARK INTER:                  -9.961
REMARK INTRA:                  -0.427
REMARK UNBOUND:                -0.489
REMARK  Name = 
REMARK  5 active torsions:
REMARK  status: ('A' for Active; 'I' for Inactive)
REMARK    1  A    between atoms: C_2  and  C_3
REMARK    2  A    between atoms: C_6  and  C_7
REMARK    3  A    between atoms: C_7  and  C_8
REMARK    4  A    between atoms: C_8  and  N_9
REMARK    5  A    between atoms: C_13  and  C_14
REMARK                            x       y       z     vdW  Elec       q    Type
REMARK                         _______ _______ _______ _____ _____    ______ ____
ROOT
ATOM      1  C   UNL     1      45.320   4.085  12.282  0.00  0.00    +0.000 C 
ENDROOT
BRANCH   1   2
ATOM      2  N   UNL     1      46.311   5.150  12.476  0.00  0.00    +0.000 N 
ATOM      3  C   UNL     1      46.885   5.061  13.768  0.00  0.00    +0.000 A 
ATOM      4  C   UNL     1      47.837   5.993  14.204  0.00  0.00    +0.000 A 
ATOM      5  N   UNL     1      48.428   5.968  15.435  0.00  0.00    +0.000 NA
ATOM      6  C   UNL     1      48.028   4.936  16.230  0.00  0.00    +0.000 A 
ATOM      7  C   UNL     1      47.105   3.998  15.811  0.00  0.00    +0.000 A 
ATOM      8  N   UNL     1      46.529   4.044  14.585  0.00  0.00    +0.000 NA
ATOM      9  H   UNL     1      45.890   6.069  12.366  0.00  0.00    +0.000 HD
BRANCH   6  10
ATOM     10  C   UNL     1      48.599   4.816  17.599  0.00  0.00    +0.000 C 
ATOM     11  N   UNL     1      47.761   4.345  18.569  0.00  0.00    +0.000 N 
ATOM     12  O   UNL     1      49.757   5.119  17.851  0.00  0.00    +0.000 OA
ATOM     13  H   UNL     1      46.805   4.108  18.343  0.00  0.00    +0.000 HD
ATOM     14  H   UNL     1      48.106   4.250  19.514  0.00  0.00    +0.000 HD
ENDBRANCH   6  10
ENDBRANCH   1   2
BRANCH   1  15
ATOM     15  C   UNL     1      44.535   4.208  10.986  0.00  0.00    +0.000 C 
ATOM     16  C   UNL     1      43.034   3.936  11.128  0.00  0.00    +0.000 C 
ATOM     17  C   UNL     1      43.514   5.318  10.851  0.00  0.00    +0.000 C 
ATOM     18  F   UNL     1      43.419   6.241  11.875  0.00  0.00    +0.000 F 
BRANCH  15  22
ATOM     19  C   UNL     1      46.607   2.702   7.461  0.00  0.00    +0.000 A 
ATOM     20  C   UNL     1      46.468   4.077   7.659  0.00  0.00    +0.000 A 
ATOM     21  C   UNL     1      45.771   4.558   8.773  0.00  0.00    +0.000 A 
ATOM     22  C   UNL     1      45.201   3.681   9.718  0.00  0.00    +0.000 A 
ATOM     23  C   UNL     1      45.320   2.302   9.474  0.00  0.00    +0.000 A 
ATOM     24  C   UNL     1      46.019   1.815   8.365  0.00  0.00    +0.000 A 
BRANCH  19  26
ATOM     25  N   UNL     1      47.986   1.809   5.453  0.00  0.00    +0.000 NA
ATOM     26  C   UNL     1      47.363   2.202   6.350  0.00  0.00    +0.000 C 
ENDBRANCH  19  26
ENDBRANCH  15  22
ENDBRANCH   1  15
TORSDOF 5
ENDMDL
MODEL 3
REMARK VINA RESULT:    -6.406      3.070      6.352
REMARK INTER + INTRA:          -8.767
REMARK INTER:                  -9.047
REMARK INTRA:                   0.280
REMARK UNBOUND:                -0.489
REMARK  Name = 
REMARK  5 active torsions:
REMARK  status: ('A' for Active; 'I' for Inactive)
REMARK    1  A    between atoms: C_2  and  C_3
REMARK    2  A    between atoms: C_6  and  C_7
REMARK    3  A    between atoms: C_7  and  C_8
REMARK    4  A    between atoms: C_8  and  N_9
REMARK    5  A    between atoms: C_13  and  C_14
REMARK                            x       y       z     vdW  Elec       q    Type
REMARK                         _______ _______ _______ _____ _____    ______ ____
ROOT
ATOM      1  C   UNL     1      44.724   6.129  11.978  0.00  0.00    +0.000 C 
ENDROOT
BRANCH   1   2
ATOM      2  N   UNL     1      45.542   5.869  13.169  0.00  0.00    +0.000 N 
ATOM      3  C   UNL     1      46.840   6.411  13.005  0.00  0.00    +0.000 A 
ATOM      4  C   UNL     1      47.820   6.261  13.996  0.00  0.00    +0.000 A 
ATOM      5  N   UNL     1      49.089   6.755  13.902  0.00  0.00    +0.000 NA
ATOM      6  C   UNL     1      49.343   7.438  12.750  0.00  0.00    +0.000 A 
ATOM      7  C   UNL     1      48.386   7.611  11.771  0.00  0.00    +0.000 A 
ATOM      8  N   UNL     1      47.132   7.110  11.884  0.00  0.00    +0.000 NA
ATOM      9  H   UNL     1      45.623   4.871  13.348  0.00  0.00    +0.000 HD
BRANCH   6  10
ATOM     10  C   UNL     1      50.699   8.011  12.535  0.00  0.00    +0.000 C 
ATOM     11  N   UNL     1      51.363   7.600  11.415  0.00  0.00    +0.000 N 
ATOM     12  O   UNL     1      51.200   8.811  13.314  0.00  0.00    +0.000 OA
ATOM     13  H   UNL     1      50.937   6.933  10.787  0.00  0.00    +0.000 HD
ATOM     14  H   UNL     1      52.288   7.963  11.230  0.00  0.00    +0.000 HD
ENDBRANCH   6  10
ENDBRANCH   1   2
BRANCH   1  15
ATOM     15  C   UNL     1      44.155   4.873  11.340  0.00  0.00    +0.000 C 
ATOM     16  C   UNL     1      43.657   3.825  12.341  0.00  0.00    +0.000 C 
ATOM     17  C   UNL     1      42.680   4.572  11.503  0.00  0.00    +0.000 C 
ATOM     18  F   UNL     1      41.892   5.515  12.134  0.00  0.00    +0.000 F 
BRANCH  15  22
ATOM     19  C   UNL     1      46.033   3.397   7.695  0.00  0.00    +0.000 A 
ATOM     20  C   UNL     1      45.270   2.539   8.488  0.00  0.00    +0.000 A 
ATOM     21  C   UNL     1      44.698   3.005   9.677  0.00  0.00    +0.000 A 
ATOM     22  C   UNL     1      44.868   4.338  10.101  0.00  0.00    +0.000 A 
ATOM     23  C   UNL     1      45.674   5.171   9.305  0.00  0.00    +0.000 A 
ATOM     24  C   UNL     1      46.245   4.712   8.114  0.00  0.00    +0.000 A 
BRANCH  19  26
ATOM     25  N   UNL     1      47.016   2.557   5.446  0.00  0.00    +0.000 NA
ATOM     26  C   UNL     1      46.579   2.940   6.450  0.00  0.00    +0.000 C 
ENDBRANCH  19  26
ENDBRANCH  15  22
ENDBRANCH   1  15
TORSDOF 5
ENDMDL
MODEL 4
REMARK VINA RESULT:    -6.077      5.431      6.505
REMARK INTER + INTRA:          -8.342
REMARK INTER:                  -7.886
REMARK INTRA:                  -0.456
REMARK UNBOUND:                -0.489
REMARK  Name = 
REMARK  5 active torsions:
REMARK  status: ('A' for Active; 'I' for Inactive)
REMARK    1  A    between atoms: C_2  and  C_3
REMARK    2  A    between atoms: C_6  and  C_7
REMARK    3  A    between atoms: C_7  and  C_8
REMARK    4  A    between atoms: C_8  and  N_9
REMARK    5  A    between atoms: C_13  and  C_14
REMARK                            x       y       z     vdW  Elec       q    Type
REMARK                         _______ _______ _______ _____ _____    ______ ____
ROOT
ATOM      1  C   UNL     1      47.157   4.017  16.012  0.00  0.00    +0.000 C 
ENDROOT
BRANCH   1   2
ATOM      2  N   UNL     1      47.410   5.196  15.175  0.00  0.00    +0.000 N 
ATOM      3  C   UNL     1      46.741   5.074  13.933  0.00  0.00    +0.000 A 
ATOM      4  C   UNL     1      46.858   6.061  12.945  0.00  0.00    +0.000 A 
ATOM      5  N   UNL     1      46.243   6.005  11.727  0.00  0.00    +0.000 NA
ATOM      6  C   UNL     1      45.473   4.897  11.536  0.00  0.00    +0.000 A 
ATOM      7  C   UNL     1      45.332   3.922  12.504  0.00  0.00    +0.000 A 
ATOM      8  N   UNL     1      45.953   3.997  13.706  0.00  0.00    +0.000 NA
ATOM      9  H   UNL     1      48.405   5.318  15.002  0.00  0.00    +0.000 HD
BRANCH   6  10
ATOM     10  C   UNL     1      44.765   4.725  10.239  0.00  0.00    +0.000 C 
ATOM     11  N   UNL     1      45.414   5.176   9.126  0.00  0.00    +0.000 N 
ATOM     12  O   UNL     1      43.659   4.206  10.164  0.00  0.00    +0.000 OA
ATOM     13  H   UNL     1      46.323   5.610   9.208  0.00  0.00    +0.000 HD
ATOM     14  H   UNL     1      44.968   5.082   8.224  0.00  0.00    +0.000 HD
ENDBRANCH   6  10
ENDBRANCH   1   2
BRANCH   1  15
ATOM     15  C   UNL     1      48.035   3.946  17.251  0.00  0.00    +0.000 C 
ATOM     16  C   UNL     1      47.799   2.709  18.123  0.00  0.00    +0.000 C 
ATOM     17  C   UNL     1      49.067   2.843  17.355  0.00  0.00    +0.000 C 
ATOM     18  F   UNL     1      49.240   2.012  16.265  0.00  0.00    +0.000 F 
BRANCH  15  22
ATOM     19  C   UNL     1      48.841   7.577  19.522  0.00  0.00    +0.000 A 
ATOM     20  C   UNL     1      47.555   7.035  19.499  0.00  0.00    +0.000 A 
ATOM     21  C   UNL     1      47.290   5.889  18.740  0.00  0.00    +0.000 A 
ATOM     22  C   UNL     1      48.301   5.255  17.990  0.00  0.00    +0.000 A 
ATOM     23  C   UNL     1      49.577   5.844  17.998  0.00  0.00    +0.000 A 
ATOM     24  C   UNL     1      49.849   6.986  18.758  0.00  0.00    +0.000 A 
BRANCH  19  26
ATOM     25  N   UNL     1      49.353   9.643  21.006  0.00  0.00    +0.000 NA
ATOM     26  C   UNL     1      49.131   8.720  20.338  0.00  0.00    +0.000 C 
ENDBRANCH  19  26
ENDBRANCH  15  22
ENDBRANCH   1  15
TORSDOF 5
ENDMDL
MODEL 5
REMARK VINA RESULT:    -6.008      5.822      7.144
REMARK INTER + INTRA:          -8.254
REMARK INTER:                  -8.786
REMARK INTRA:                   0.532
REMARK UNBOUND:                -0.489
REMARK  Name = 
REMARK  5 active torsions:
REMARK  status: ('A' for Active; 'I' for Inactive)
REMARK    1  A    between atoms: C_2  and  C_3
REMARK    2  A    between atoms: C_6  and  C_7
REMARK    3  A    between atoms: C_7  and  C_8
REMARK    4  A    between atoms: C_8  and  N_9
REMARK    5  A    between atoms: C_13  and  C_14
REMARK                            x       y       z     vdW  Elec       q    Type
REMARK                         _______ _______ _______ _____ _____    ______ ____
ROOT
ATOM      1  C   UNL     1      47.380   4.525  16.030  0.00  0.00    +0.000 C 
ENDROOT
BRANCH   1   2
ATOM      2  N   UNL     1      47.554   5.495  14.943  0.00  0.00    +0.000 N 
ATOM      3  C   UNL     1      46.725   5.161  13.844  0.00  0.00    +0.000 A 
ATOM      4  C   UNL     1      46.739   5.921  12.666  0.00  0.00    +0.000 A 
ATOM      5  N   UNL     1      45.969   5.653  11.571  0.00  0.00    +0.000 NA
ATOM      6  C   UNL     1      45.151   4.572  11.709  0.00  0.00    +0.000 A 
ATOM      7  C   UNL     1      45.111   3.822  12.868  0.00  0.00    +0.000 A 
ATOM      8  N   UNL     1      45.885   4.104  13.943  0.00  0.00    +0.000 NA
ATOM      9  H   UNL     1      48.520   5.526  14.628  0.00  0.00    +0.000 HD
BRANCH   6  10
ATOM     10  C   UNL     1      44.274   4.180  10.572  0.00  0.00    +0.000 C 
ATOM     11  N   UNL     1      44.462   4.853   9.399  0.00  0.00    +0.000 N 
ATOM     12  O   UNL     1      43.428   3.302  10.674  0.00  0.00    +0.000 OA
ATOM     13  H   UNL     1      45.159   5.581   9.336  0.00  0.00    +0.000 HD
ATOM     14  H   UNL     1      43.886   4.621   8.601  0.00  0.00    +0.000 HD
ENDBRANCH   6  10
ENDBRANCH   1   2
BRANCH   1  15
ATOM     15  C   UNL     1      48.285   4.775  17.225  0.00  0.00    +0.000 C 
ATOM     16  C   UNL     1      48.448   6.253  17.597  0.00  0.00    +0.000 C 
ATOM     17  C   UNL     1      47.684   5.343  18.493  0.00  0.00    +0.000 C 
ATOM     18  F   UNL     1      46.313   5.505  18.545  0.00  0.00    +0.000 F 
BRANCH  15  22
ATOM     19  C   UNL     1      51.808   2.266  17.755  0.00  0.00    +0.000 A 
ATOM     20  C   UNL     1      51.892   3.644  17.959  0.00  0.00    +0.000 A 
ATOM     21  C   UNL     1      50.769   4.453  17.753  0.00  0.00    +0.000 A 
ATOM     22  C   UNL     1      49.535   3.907  17.345  0.00  0.00    +0.000 A 
ATOM     23  C   UNL     1      49.488   2.523  17.107  0.00  0.00    +0.000 A 
ATOM     24  C   UNL     1      50.606   1.708  17.315  0.00  0.00    +0.000 A 
BRANCH  19  26
ATOM     25  N   UNL     1      53.847   0.732  18.226  0.00  0.00    +0.000 NA
ATOM     26  C   UNL     1      52.940   1.425  18.014  0.00  0.00    +0.000 C 
ENDBRANCH  19  26
ENDBRANCH  15  22
ENDBRANCH   1  15
TORSDOF 5
ENDMDL
MODEL 6
REMARK VINA RESULT:    -5.925      4.866      6.038
REMARK INTER + INTRA:          -8.147
REMARK INTER:                  -8.175
REMARK INTRA:                   0.028
REMARK UNBOUND:                -0.489
REMARK  Name = 
REMARK  5 active torsions:
REMARK  status: ('A' for Active; 'I' for Inactive)
REMARK    1  A    between atoms: C_2  and  C_3
REMARK    2  A    between atoms: C_6  and  C_7
REMARK    3  A    between atoms: C_7  and  C_8
REMARK    4  A    between atoms: C_8  and  N_9
REMARK    5  A    between atoms: C_13  and  C_14
REMARK                            x       y       z     vdW  Elec       q    Type
REMARK                         _______ _______ _______ _____ _____    ______ ____
ROOT
ATOM      1  C   UNL     1      47.519   4.065  15.643  0.00  0.00    +0.000 C 
ENDROOT
BRANCH   1   2
ATOM      2  N   UNL     1      47.132   5.261  14.885  0.00  0.00    +0.000 N 
ATOM      3  C   UNL     1      46.394   4.897  13.732  0.00  0.00    +0.000 A 
ATOM      4  C   UNL     1      45.941   5.865  12.825  0.00  0.00    +0.000 A 
ATOM      5  N   UNL     1      45.229   5.585  11.694  0.00  0.00    +0.000 NA
ATOM      6  C   UNL     1      44.967   4.260  11.509  0.00  0.00    +0.000 A 
ATOM      7  C   UNL     1      45.390   3.294  12.400  0.00  0.00    +0.000 A 
ATOM      8  N   UNL     1      46.098   3.594  13.515  0.00  0.00    +0.000 NA
ATOM      9  H   UNL     1      47.948   5.795  14.598  0.00  0.00    +0.000 HD
BRANCH   6  10
ATOM     10  C   UNL     1      44.206   3.836  10.302  0.00  0.00    +0.000 C 
ATOM     11  N   UNL     1      43.941   4.805   9.378  0.00  0.00    +0.000 N 
ATOM     12  O   UNL     1      43.834   2.682  10.138  0.00  0.00    +0.000 OA
ATOM     13  H   UNL     1      44.248   5.755   9.535  0.00  0.00    +0.000 HD
ATOM     14  H   UNL     1      43.424   4.562   8.544  0.00  0.00    +0.000 HD
ENDBRANCH   6  10
ENDBRANCH   1   2
BRANCH   1  15
ATOM     15  C   UNL     1      48.160   4.374  16.987  0.00  0.00    +0.000 C 
ATOM     16  C   UNL     1      47.178   4.856  18.060  0.00  0.00    +0.000 C 
ATOM     17  C   UNL     1      47.807   3.512  18.181  0.00  0.00    +0.000 C 
ATOM     18  F   UNL     1      47.000   2.411  17.971  0.00  0.00    +0.000 F 
BRANCH  15  22
ATOM     19  C   UNL     1      52.095   6.232  16.754  0.00  0.00    +0.000 A 
ATOM     20  C   UNL     1      51.940   4.992  17.377  0.00  0.00    +0.000 A 
ATOM     21  C   UNL     1      50.670   4.414  17.482  0.00  0.00    +0.000 A 
ATOM     22  C   UNL     1      49.526   5.054  16.966  0.00  0.00    +0.000 A 
ATOM     23  C   UNL     1      49.703   6.320  16.381  0.00  0.00    +0.000 A 
ATOM     24  C   UNL     1      50.970   6.901  16.268  0.00  0.00    +0.000 A 
BRANCH  19  26
ATOM     25  N   UNL     1      54.461   7.257  16.471  0.00  0.00    +0.000 NA
ATOM     26  C   UNL     1      53.399   6.806  16.597  0.00  0.00    +0.000 C 
ENDBRANCH  19  26
ENDBRANCH  15  22
ENDBRANCH   1  15
TORSDOF 5
ENDMDL
MODEL 7
REMARK VINA RESULT:    -5.722      5.371      8.362
REMARK INTER + INTRA:          -7.884
REMARK INTER:                  -7.882
REMARK INTRA:                  -0.002
REMARK UNBOUND:                -0.489
REMARK  Name = 
REMARK  5 active torsions:
REMARK  status: ('A' for Active; 'I' for Inactive)
REMARK    1  A    between atoms: C_2  and  C_3
REMARK    2  A    between atoms: C_6  and  C_7
REMARK    3  A    between atoms: C_7  and  C_8
REMARK    4  A    between atoms: C_8  and  N_9
REMARK    5  A    between atoms: C_13  and  C_14
REMARK                            x       y       z     vdW  Elec       q    Type
REMARK                         _______ _______ _______ _____ _____    ______ ____
ROOT
ATOM      1  C   UNL     1      48.983   6.878  13.791  0.00  0.00    +0.000 C 
ENDROOT
BRANCH   1   2
ATOM      2  N   UNL     1      48.783   7.680  15.003  0.00  0.00    +0.000 N 
ATOM      3  C   UNL     1      48.782   6.850  16.151  0.00  0.00    +0.000 A 
ATOM      4  C   UNL     1      48.572   7.381  17.431  0.00  0.00    +0.000 A 
ATOM      5  N   UNL     1      48.556   6.639  18.577  0.00  0.00    +0.000 NA
ATOM      6  C   UNL     1      48.779   5.308  18.388  0.00  0.00    +0.000 A 
ATOM      7  C   UNL     1      49.005   4.769  17.137  0.00  0.00    +0.000 A 
ATOM      8  N   UNL     1      49.014   5.524  16.012  0.00  0.00    +0.000 NA
ATOM      9  H   UNL     1      47.904   8.190  14.966  0.00  0.00    +0.000 HD
BRANCH   6  10
ATOM     10  C   UNL     1      48.772   4.400  19.567  0.00  0.00    +0.000 C 
ATOM     11  N   UNL     1      48.355   3.118  19.347  0.00  0.00    +0.000 N 
ATOM     12  O   UNL     1      49.122   4.773  20.679  0.00  0.00    +0.000 OA
ATOM     13  H   UNL     1      48.062   2.831  18.424  0.00  0.00    +0.000 HD
ATOM     14  H   UNL     1      48.332   2.468  20.120  0.00  0.00    +0.000 HD
ENDBRANCH   6  10
ENDBRANCH   1   2
BRANCH   1  15
ATOM     15  C   UNL     1      48.012   7.210  12.671  0.00  0.00    +0.000 C 
ATOM     16  C   UNL     1      47.691   8.702  12.533  0.00  0.00    +0.000 C 
ATOM     17  C   UNL     1      48.505   8.019  11.490  0.00  0.00    +0.000 C 
ATOM     18  F   UNL     1      49.851   8.328  11.431  0.00  0.00    +0.000 F 
BRANCH  15  22
ATOM     19  C   UNL     1      44.823   4.319  11.986  0.00  0.00    +0.000 A 
ATOM     20  C   UNL     1      45.235   5.167  10.956  0.00  0.00    +0.000 A 
ATOM     21  C   UNL     1      46.234   6.119  11.188  0.00  0.00    +0.000 A 
ATOM     22  C   UNL     1      46.850   6.246  12.449  0.00  0.00    +0.000 A 
ATOM     23  C   UNL     1      46.388   5.409  13.480  0.00  0.00    +0.000 A 
ATOM     24  C   UNL     1      45.393   4.452  13.254  0.00  0.00    +0.000 A 
BRANCH  19  26
ATOM     25  N   UNL     1      43.050   2.478  11.542  0.00  0.00    +0.000 NA
ATOM     26  C   UNL     1      43.837   3.308  11.742  0.00  0.00    +0.000 C 
ENDBRANCH  19  26
ENDBRANCH  15  22
ENDBRANCH   1  15
TORSDOF 5
ENDMDL
MODEL 8
REMARK VINA RESULT:    -5.514      3.819      5.885
REMARK INTER + INTRA:          -7.616
REMARK INTER:                  -7.163
REMARK INTRA:                  -0.452
REMARK UNBOUND:                -0.489
REMARK  Name = 
REMARK  5 active torsions:
REMARK  status: ('A' for Active; 'I' for Inactive)
REMARK    1  A    between atoms: C_2  and  C_3
REMARK    2  A    between atoms: C_6  and  C_7
REMARK    3  A    between atoms: C_7  and  C_8
REMARK    4  A    between atoms: C_8  and  N_9
REMARK    5  A    between atoms: C_13  and  C_14
REMARK                            x       y       z     vdW  Elec       q    Type
REMARK                         _______ _______ _______ _____ _____    ______ ____
ROOT
ATOM      1  C   UNL     1      47.621   7.623  13.883  0.00  0.00    +0.000 C 
ENDROOT
BRANCH   1   2
ATOM      2  N   UNL     1      47.712   6.214  14.283  0.00  0.00    +0.000 N 
ATOM      3  C   UNL     1      46.837   5.421  13.501  0.00  0.00    +0.000 A 
ATOM      4  C   UNL     1      46.717   4.041  13.719  0.00  0.00    +0.000 A 
ATOM      5  N   UNL     1      45.892   3.220  13.005  0.00  0.00    +0.000 NA
ATOM      6  C   UNL     1      45.182   3.849  12.027  0.00  0.00    +0.000 A 
ATOM      7  C   UNL     1      45.299   5.204  11.786  0.00  0.00    +0.000 A 
ATOM      8  N   UNL     1      46.123   6.001  12.508  0.00  0.00    +0.000 NA
ATOM      9  H   UNL     1      47.475   6.094  15.264  0.00  0.00    +0.000 HD
BRANCH   6  10
ATOM     10  C   UNL     1      44.241   3.053  11.192  0.00  0.00    +0.000 C 
ATOM     11  N   UNL     1      44.788   2.366  10.146  0.00  0.00    +0.000 N 
ATOM     12  O   UNL     1      43.041   3.009  11.424  0.00  0.00    +0.000 OA
ATOM     13  H   UNL     1      45.780   2.421   9.965  0.00  0.00    +0.000 HD
ATOM     14  H   UNL     1      44.185   1.815   9.551  0.00  0.00    +0.000 HD
ENDBRANCH   6  10
ENDBRANCH   1   2
BRANCH   1  15
ATOM     15  C   UNL     1      48.889   8.418  14.152  0.00  0.00    +0.000 C 
ATOM     16  C   UNL     1      48.645   9.842  14.662  0.00  0.00    +0.000 C 
ATOM     17  C   UNL     1      49.215   8.815  15.577  0.00  0.00    +0.000 C 
ATOM     18  F   UNL     1      48.399   8.340  16.586  0.00  0.00    +0.000 F 
BRANCH  15  22
ATOM     19  C   UNL     1      52.158   8.094  11.289  0.00  0.00    +0.000 A 
ATOM     20  C   UNL     1      50.862   7.731  10.919  0.00  0.00    +0.000 A 
ATOM     21  C   UNL     1      49.820   7.801  11.850  0.00  0.00    +0.000 A 
ATOM     22  C   UNL     1      50.043   8.240  13.171  0.00  0.00    +0.000 A 
ATOM     23  C   UNL     1      51.364   8.561  13.530  0.00  0.00    +0.000 A 
ATOM     24  C   UNL     1      52.409   8.497  12.602  0.00  0.00    +0.000 A 
BRANCH  19  26
ATOM     25  N   UNL     1      54.073   8.045   9.540  0.00  0.00    +0.000 NA
ATOM     26  C   UNL     1      53.220   8.074  10.326  0.00  0.00    +0.000 C 
ENDBRANCH  19  26
ENDBRANCH  15  22
ENDBRANCH   1  15
TORSDOF 5
ENDMDL
MODEL 9
REMARK VINA RESULT:    -5.217      4.028      6.225
REMARK INTER + INTRA:          -7.231
REMARK INTER:                  -6.625
REMARK INTRA:                  -0.607
REMARK UNBOUND:                -0.489
REMARK  Name = 
REMARK  5 active torsions:
REMARK  status: ('A' for Active; 'I' for Inactive)
REMARK    1  A    between atoms: C_2  and  C_3
REMARK    2  A    between atoms: C_6  and  C_7
REMARK    3  A    between atoms: C_7  and  C_8
REMARK    4  A    between atoms: C_8  and  N_9
REMARK    5  A    between atoms: C_13  and  C_14
REMARK                            x       y       z     vdW  Elec       q    Type
REMARK                         _______ _______ _______ _____ _____    ______ ____
ROOT
ATOM      1  C   UNL     1      48.623   7.322  12.399  0.00  0.00    +0.000 C 
ENDROOT
BRANCH   1   2
ATOM      2  N   UNL     1      48.217   6.205  13.260  0.00  0.00    +0.000 N 
ATOM      3  C   UNL     1      46.963   5.693  12.846  0.00  0.00    +0.000 A 
ATOM      4  C   UNL     1      46.345   4.641  13.537  0.00  0.00    +0.000 A 
ATOM      5  N   UNL     1      45.138   4.103  13.194  0.00  0.00    +0.000 NA
ATOM      6  C   UNL     1      44.564   4.664  12.093  0.00  0.00    +0.000 A 
ATOM      7  C   UNL     1      45.165   5.689  11.390  0.00  0.00    +0.000 A 
ATOM      8  N   UNL     1      46.363   6.210  11.749  0.00  0.00    +0.000 NA
ATOM      9  H   UNL     1      48.149   6.496  14.232  0.00  0.00    +0.000 HD
BRANCH   6  10
ATOM     10  C   UNL     1      43.239   4.163  11.634  0.00  0.00    +0.000 C 
ATOM     11  N   UNL     1      42.216   5.067  11.625  0.00  0.00    +0.000 N 
ATOM     12  O   UNL     1      43.068   3.004  11.281  0.00  0.00    +0.000 OA
ATOM     13  H   UNL     1      42.375   6.017  11.928  0.00  0.00    +0.000 HD
ATOM     14  H   UNL     1      41.299   4.769  11.323  0.00  0.00    +0.000 HD
ENDBRANCH   6  10
ENDBRANCH   1   2
BRANCH   1  15
ATOM     15  C   UNL     1      48.621   8.669  13.102  0.00  0.00    +0.000 C 
ATOM     16  C   UNL     1      49.067   9.842  12.224  0.00  0.00    +0.000 C 
ATOM     17  C   UNL     1      47.644   9.732  12.646  0.00  0.00    +0.000 C 
ATOM     18  F   UNL     1      46.719   9.390  11.678  0.00  0.00    +0.000 F 
BRANCH  15  22
ATOM     19  C   UNL     1      49.899   8.559  17.267  0.00  0.00    +0.000 A 
ATOM     20  C   UNL     1      48.608   8.978  16.940  0.00  0.00    +0.000 A 
ATOM     21  C   UNL     1      48.212   9.047  15.600  0.00  0.00    +0.000 A 
ATOM     22  C   UNL     1      49.089   8.696  14.555  0.00  0.00    +0.000 A 
ATOM     23  C   UNL     1      50.396   8.317  14.909  0.00  0.00    +0.000 A 
ATOM     24  C   UNL     1      50.797   8.241  16.246  0.00  0.00    +0.000 A 
BRANCH  19  26
ATOM     25  N   UNL     1      50.607   8.327  19.752  0.00  0.00    +0.000 NA
ATOM     26  C   UNL     1      50.296   8.437  18.640  0.00  0.00    +0.000 C 
ENDBRANCH  19  26
ENDBRANCH  15  22
ENDBRANCH   1  15
TORSDOF 5
ENDMDL
