MODEL 1
REMARK VINA RESULT:    -8.327      0.000      0.000
REMARK INTER + INTRA:         -11.558
REMARK INTER:                 -10.761
REMARK INTRA:                  -0.797
REMARK UNBOUND:                -0.797
REMARK  Name = 
REMARK  5 active torsions:
REMARK  status: ('A' for Active; 'I' for Inactive)
REMARK    1  A    between atoms: C_2  and  C_4
REMARK    2  A    between atoms: C_7  and  C_8
REMARK    3  A    between atoms: C_8  and  O_9
REMARK    4  A    between atoms: O_9  and  C_10
REMARK    5  A    between atoms: C_14  and  C_15
REMARK                            x       y       z     vdW  Elec       q    Type
REMARK                         _______ _______ _______ _____ _____    ______ ____
ROOT
ATOM      1  O   UNL     1      44.500   5.814  10.795  0.00  0.00    +0.000 OA
ENDROOT
BRANCH   1   2
ATOM      2  C   UNL     1      45.340   5.554  11.839  0.00  0.00    +0.000 A 
ATOM      3  C   UNL     1      45.107   4.668  12.887  0.00  0.00    +0.000 A 
ATOM      4  C   UNL     1      46.066   4.516  13.893  0.00  0.00    +0.000 A 
ATOM      5  C   UNL     1      47.266   5.228  13.842  0.00  0.00    +0.000 A 
ATOM      6  C   UNL     1      47.525   6.109  12.785  0.00  0.00    +0.000 A 
ATOM      7  C   UNL     1      46.537   6.275  11.802  0.00  0.00    +0.000 A 
BRANCH   6   8
ATOM      8  C   UNL     1      48.861   6.820  12.681  0.00  0.00    +0.000 C 
ATOM      9  C   UNL     1      49.350   7.362  14.033  0.00  0.00    +0.000 C 
ATOM     10  C   UNL     1      50.627   8.175  13.851  0.00  0.00    +0.000 C 
ATOM     11  O   UNL     1      50.431   9.223  12.902  0.00  0.00    +0.000 OA
ATOM     12  C   UNL     1      50.111   8.722  11.605  0.00  0.00    +0.000 C 
ATOM     13  C   UNL     1      48.803   7.950  11.639  0.00  0.00    +0.000 C 
ENDBRANCH   6   8
ENDBRANCH   1   2
BRANCH   1  14
ATOM     14  C   UNL     1      43.772   4.715  10.247  0.00  0.00    +0.000 C 
BRANCH  14  18
ATOM     15  C   UNL     1      46.390   2.446   7.740  0.00  0.00    +0.000 A 
ATOM     16  C   UNL     1      45.648   1.773   8.710  0.00  0.00    +0.000 A 
ATOM     17  C   UNL     1      44.782   2.499   9.525  0.00  0.00    +0.000 A 
ATOM     18  C   UNL     1      44.688   3.883   9.370  0.00  0.00    +0.000 A 
ATOM     19  N   UNL     1      45.390   4.548   8.414  0.00  0.00    +0.000 NA
ATOM     20  C   UNL     1      46.232   3.819   7.638  0.00  0.00    +0.000 A 
BRANCH  15  22
ATOM     21  N   UNL     1      48.457   2.480   6.455  0.00  0.00    +0.000 N 
ATOM     22  C   UNL     1      47.356   1.770   6.848  0.00  0.00    +0.000 C 
ATOM     23  O   UNL     1      47.195   0.611   6.491  0.00  0.00    +0.000 OA
ATOM     24  H   UNL     1      49.148   1.976   5.917  0.00  0.00    +0.000 HD
ATOM     25  H   UNL     1      48.748   3.338   6.904  0.00  0.00    +0.000 HD
ENDBRANCH  15  22
ENDBRANCH  14  18
ENDBRANCH   1  14
TORSDOF 5
ENDMDL
MODEL 2
REMARK VINA RESULT:    -8.313      2.035      3.091
REMARK INTER + INTRA:         -11.540
REMARK INTER:                 -10.972
REMARK INTRA:                  -0.568
REMARK UNBOUND:                -0.797
REMARK  Name = 
REMARK  5 active torsions:
REMARK  status: ('A' for Active; 'I' for Inactive)
REMARK    1  A    between atoms: C_2  and  C_4
REMARK    2  A    between atoms: C_7  and  C_8
REMARK    3  A    between atoms: C_8  and  O_9
REMARK    4  A    between atoms: O_9  and  C_10
REMARK    5  A    between atoms: C_14  and  C_15
REMARK                            x       y       z     vdW  Elec       q    Type
REMARK                         _______ _______ _______ _____ _____    ______ ____
ROOT
ATOM      1  O   UNL     1      44.117   4.557  11.580  0.00  0.00    +0.000 OA
ENDROOT
BRANCH   1   2
ATOM      2  C   UNL     1      45.232   5.188  12.050  0.00  0.00    +0.000 A 
ATOM      3  C   UNL     1      45.913   6.234  11.432  0.00  0.00    +0.000 A 
ATOM      4  C   UNL     1      47.051   6.774  12.038  0.00  0.00    +0.000 A 
ATOM      5  C   UNL     1      47.498   6.288  13.269  0.00  0.00    +0.000 A 
ATOM      6  C   UNL     1      46.814   5.250  13.913  0.00  0.00    +0.000 A 
ATOM      7  C   UNL     1      45.693   4.697  13.274  0.00  0.00    +0.000 A 
BRANCH   6   8
ATOM      8  C   UNL     1      47.245   4.777  15.288  0.00  0.00    +0.000 C 
ATOM      9  C   UNL     1      48.359   5.647  15.892  0.00  0.00    +0.000 C 
ATOM     10  C   UNL     1      48.842   5.055  17.210  0.00  0.00    +0.000 C 
ATOM     11  O   UNL     1      49.265   3.703  17.037  0.00  0.00    +0.000 OA
ATOM     12  C   UNL     1      48.199   2.857  16.608  0.00  0.00    +0.000 C 
ATOM     13  C   UNL     1      47.676   3.301  15.252  0.00  0.00    +0.000 C 
ENDBRANCH   6   8
ENDBRANCH   1   2
BRANCH   1  14
ATOM     14  C   UNL     1      43.783   4.747  10.204  0.00  0.00    +0.000 C 
BRANCH  14  18
ATOM     15  C   UNL     1      46.381   2.423   7.726  0.00  0.00    +0.000 A 
ATOM     16  C   UNL     1      45.623   1.767   8.696  0.00  0.00    +0.000 A 
ATOM     17  C   UNL     1      44.764   2.511   9.502  0.00  0.00    +0.000 A 
ATOM     18  C   UNL     1      44.692   3.896   9.338  0.00  0.00    +0.000 A 
ATOM     19  N   UNL     1      45.409   4.544   8.382  0.00  0.00    +0.000 NA
ATOM     20  C   UNL     1      46.244   3.797   7.615  0.00  0.00    +0.000 A 
BRANCH  15  22
ATOM     21  N   UNL     1      48.424   2.437   6.403  0.00  0.00    +0.000 N 
ATOM     22  C   UNL     1      47.341   1.727   6.845  0.00  0.00    +0.000 C 
ATOM     23  O   UNL     1      47.193   0.552   6.537  0.00  0.00    +0.000 OA
ATOM     24  H   UNL     1      49.113   1.923   5.873  0.00  0.00    +0.000 HD
ATOM     25  H   UNL     1      48.709   3.316   6.812  0.00  0.00    +0.000 HD
ENDBRANCH  15  22
ENDBRANCH  14  18
ENDBRANCH   1  14
TORSDOF 5
ENDMDL
MODEL 3
REMARK VINA RESULT:    -8.188      1.711      2.239
REMARK INTER + INTRA:         -11.378
REMARK INTER:                 -10.558
REMARK INTRA:                  -0.819
REMARK UNBOUND:                -0.797
REMARK  Name = 
REMARK  5 active torsions:
REMARK  status: ('A' for Active; 'I' for Inactive)
REMARK    1  A    between atoms: C_2  and  C_4
REMARK    2  A    between atoms: C_7  and  C_8
REMARK    3  A    between atoms: C_8  and  O_9
REMARK    4  A    between atoms: O_9  and  C_10
REMARK    5  A    between atoms: C_14  and  C_15
REMARK                            x       y       z     vdW  Elec       q    Type
REMARK                         _______ _______ _______ _____ _____    ______ ____
ROOT
ATOM      1  O   UNL     1      43.851   3.876  11.448  0.00  0.00    +0.000 OA
ENDROOT
BRANCH   1   2
ATOM      2  C   UNL     1      44.885   4.355  12.199  0.00  0.00    +0.000 A 
ATOM      3  C   UNL     1      45.840   3.597  12.871  0.00  0.00    +0.000 A 
ATOM      4  C   UNL     1      46.839   4.237  13.610  0.00  0.00    +0.000 A 
ATOM      5  C   UNL     1      46.900   5.631  13.662  0.00  0.00    +0.000 A 
ATOM      6  C   UNL     1      45.959   6.408  12.977  0.00  0.00    +0.000 A 
ATOM      7  C   UNL     1      44.943   5.750  12.267  0.00  0.00    +0.000 A 
BRANCH   6   8
ATOM      8  C   UNL     1      46.071   7.921  12.961  0.00  0.00    +0.000 C 
ATOM      9  C   UNL     1      45.087   8.579  11.981  0.00  0.00    +0.000 C 
ATOM     10  C   UNL     1      45.329  10.082  11.910  0.00  0.00    +0.000 C 
ATOM     11  O   UNL     1      46.685  10.363  11.565  0.00  0.00    +0.000 OA
ATOM     12  C   UNL     1      47.603   9.876  12.543  0.00  0.00    +0.000 C 
ATOM     13  C   UNL     1      47.512   8.362  12.653  0.00  0.00    +0.000 C 
ENDBRANCH   6   8
ENDBRANCH   1   2
BRANCH   1  14
ATOM     14  C   UNL     1      43.702   4.395  10.125  0.00  0.00    +0.000 C 
BRANCH  14  18
ATOM     15  C   UNL     1      46.581   2.623   7.505  0.00  0.00    +0.000 A 
ATOM     16  C   UNL     1      45.842   1.790   8.344  0.00  0.00    +0.000 A 
ATOM     17  C   UNL     1      44.892   2.353   9.194  0.00  0.00    +0.000 A 
ATOM     18  C   UNL     1      44.713   3.738   9.204  0.00  0.00    +0.000 A 
ATOM     19  N   UNL     1      45.411   4.559   8.376  0.00  0.00    +0.000 NA
ATOM     20  C   UNL     1      46.335   3.986   7.563  0.00  0.00    +0.000 A 
BRANCH  15  22
ATOM     21  N   UNL     1      47.941   2.897   5.506  0.00  0.00    +0.000 N 
ATOM     22  C   UNL     1      47.630   2.125   6.592  0.00  0.00    +0.000 C 
ATOM     23  O   UNL     1      48.219   1.075   6.806  0.00  0.00    +0.000 OA
ATOM     24  H   UNL     1      48.718   2.585   4.940  0.00  0.00    +0.000 HD
ATOM     25  H   UNL     1      47.657   3.863   5.418  0.00  0.00    +0.000 HD
ENDBRANCH  15  22
ENDBRANCH  14  18
ENDBRANCH   1  14
TORSDOF 5
ENDMDL
MODEL 4
REMARK VINA RESULT:    -7.203      4.171      8.087
REMARK INTER + INTRA:         -10.105
REMARK INTER:                  -9.603
REMARK INTRA:                  -0.502
REMARK UNBOUND:                -0.797
REMARK  Name = 
REMARK  5 active torsions:
REMARK  status: ('A' for Active; 'I' for Inactive)
REMARK    1  A    between atoms: C_2  and  C_4
REMARK    2  A    between atoms: C_7  and  C_8
REMARK    3  A    between atoms: C_8  and  O_9
REMARK    4  A    between atoms: O_9  and  C_10
REMARK    5  A    between atoms: C_14  and  C_15
REMARK                            x       y       z     vdW  Elec       q    Type
REMARK                         _______ _______ _______ _____ _____    ______ ____
ROOT
ATOM      1  O   UNL     1      45.618   4.186  13.928  0.00  0.00    +0.000 OA
ENDROOT
BRANCH   1   2
ATOM      2  C   UNL     1      44.814   4.528  12.879  0.00  0.00    +0.000 A 
ATOM      3  C   UNL     1      43.743   5.415  12.913  0.00  0.00    +0.000 A 
ATOM      4  C   UNL     1      43.006   5.658  11.751  0.00  0.00    +0.000 A 
ATOM      5  C   UNL     1      43.350   5.035  10.549  0.00  0.00    +0.000 A 
ATOM      6  C   UNL     1      44.437   4.154  10.493  0.00  0.00    +0.000 A 
ATOM      7  C   UNL     1      45.145   3.896  11.677  0.00  0.00    +0.000 A 
BRANCH   6   8
ATOM      8  C   UNL     1      44.867   3.541   9.173  0.00  0.00    +0.000 C 
ATOM      9  C   UNL     1      45.439   2.125   9.336  0.00  0.00    +0.000 C 
ATOM     10  C   UNL     1      45.971   1.608   8.005  0.00  0.00    +0.000 C 
ATOM     11  O   UNL     1      46.935   2.507   7.459  0.00  0.00    +0.000 OA
ATOM     12  C   UNL     1      46.377   3.788   7.174  0.00  0.00    +0.000 C 
ATOM     13  C   UNL     1      45.875   4.448   8.448  0.00  0.00    +0.000 C 
ENDBRANCH   6   8
ENDBRANCH   1   2
BRANCH   1  14
ATOM     14  C   UNL     1      46.900   4.810  14.006  0.00  0.00    +0.000 C 
BRANCH  14  18
ATOM     15  C   UNL     1      48.498   4.477  17.959  0.00  0.00    +0.000 A 
ATOM     16  C   UNL     1      47.581   3.519  17.528  0.00  0.00    +0.000 A 
ATOM     17  C   UNL     1      47.062   3.609  16.238  0.00  0.00    +0.000 A 
ATOM     18  C   UNL     1      47.453   4.663  15.411  0.00  0.00    +0.000 A 
ATOM     19  N   UNL     1      48.362   5.591  15.811  0.00  0.00    +0.000 NA
ATOM     20  C   UNL     1      48.848   5.485  17.074  0.00  0.00    +0.000 A 
BRANCH  15  22
ATOM     21  N   UNL     1      48.507   3.673  20.256  0.00  0.00    +0.000 N 
ATOM     22  C   UNL     1      49.082   4.484  19.316  0.00  0.00    +0.000 C 
ATOM     23  O   UNL     1      50.058   5.169  19.590  0.00  0.00    +0.000 OA
ATOM     24  H   UNL     1      48.970   3.625  21.153  0.00  0.00    +0.000 HD
ATOM     25  H   UNL     1      47.864   2.929  20.021  0.00  0.00    +0.000 HD
ENDBRANCH  15  22
ENDBRANCH  14  18
ENDBRANCH   1  14
TORSDOF 5
ENDMDL
MODEL 5
REMARK VINA RESULT:    -7.136      2.931      4.177
REMARK INTER + INTRA:         -10.018
REMARK INTER:                  -9.335
REMARK INTRA:                  -0.684
REMARK UNBOUND:                -0.797
REMARK  Name = 
REMARK  5 active torsions:
REMARK  status: ('A' for Active; 'I' for Inactive)
REMARK    1  A    between atoms: C_2  and  C_4
REMARK    2  A    between atoms: C_7  and  C_8
REMARK    3  A    between atoms: C_8  and  O_9
REMARK    4  A    between atoms: O_9  and  C_10
REMARK    5  A    between atoms: C_14  and  C_15
REMARK                            x       y       z     vdW  Elec       q    Type
REMARK                         _______ _______ _______ _____ _____    ______ ____
ROOT
ATOM      1  O   UNL     1      44.578   4.341  11.767  0.00  0.00    +0.000 OA
ENDROOT
BRANCH   1   2
ATOM      2  C   UNL     1      45.001   5.604  12.069  0.00  0.00    +0.000 A 
ATOM      3  C   UNL     1      45.996   5.947  12.979  0.00  0.00    +0.000 A 
ATOM      4  C   UNL     1      46.312   7.293  13.186  0.00  0.00    +0.000 A 
ATOM      5  C   UNL     1      45.653   8.295  12.470  0.00  0.00    +0.000 A 
ATOM      6  C   UNL     1      44.663   7.965  11.536  0.00  0.00    +0.000 A 
ATOM      7  C   UNL     1      44.335   6.612  11.366  0.00  0.00    +0.000 A 
BRANCH   6   8
ATOM      8  C   UNL     1      44.005   9.044  10.696  0.00  0.00    +0.000 C 
ATOM      9  C   UNL     1      44.680  10.414  10.854  0.00  0.00    +0.000 C 
ATOM     10  C   UNL     1      43.905  11.483  10.093  0.00  0.00    +0.000 C 
ATOM     11  O   UNL     1      42.541  11.516  10.511  0.00  0.00    +0.000 OA
ATOM     12  C   UNL     1      41.864  10.289  10.240  0.00  0.00    +0.000 C 
ATOM     13  C   UNL     1      42.503   9.146  11.012  0.00  0.00    +0.000 C 
ENDBRANCH   6   8
ENDBRANCH   1   2
BRANCH   1  14
ATOM     14  C   UNL     1      43.885   4.157  10.532  0.00  0.00    +0.000 C 
BRANCH  14  18
ATOM     15  C   UNL     1      46.559   2.560   7.601  0.00  0.00    +0.000 A 
ATOM     16  C   UNL     1      46.393   3.943   7.669  0.00  0.00    +0.000 A 
ATOM     17  C   UNL     1      45.534   4.477   8.627  0.00  0.00    +0.000 A 
ATOM     18  C   UNL     1      44.843   3.620   9.486  0.00  0.00    +0.000 A 
ATOM     19  N   UNL     1      45.011   2.272   9.444  0.00  0.00    +0.000 NA
ATOM     20  C   UNL     1      45.848   1.777   8.497  0.00  0.00    +0.000 A 
BRANCH  15  22
ATOM     21  N   UNL     1      48.557   2.556   6.212  0.00  0.00    +0.000 N 
ATOM     22  C   UNL     1      47.423   1.897   6.603  0.00  0.00    +0.000 C 
ATOM     23  O   UNL     1      47.154   0.790   6.157  0.00  0.00    +0.000 OA
ATOM     24  H   UNL     1      49.179   2.052   5.595  0.00  0.00    +0.000 HD
ATOM     25  H   UNL     1      48.936   3.345   6.716  0.00  0.00    +0.000 HD
ENDBRANCH  15  22
ENDBRANCH  14  18
ENDBRANCH   1  14
TORSDOF 5
ENDMDL
MODEL 6
REMARK VINA RESULT:    -6.584      5.224      8.412
REMARK INTER + INTRA:          -9.306
REMARK INTER:                  -8.741
REMARK INTRA:                  -0.564
REMARK UNBOUND:                -0.797
REMARK  Name = 
REMARK  5 active torsions:
REMARK  status: ('A' for Active; 'I' for Inactive)
REMARK    1  A    between atoms: C_2  and  C_4
REMARK    2  A    between atoms: C_7  and  C_8
REMARK    3  A    between atoms: C_8  and  O_9
REMARK    4  A    between atoms: O_9  and  C_10
REMARK    5  A    between atoms: C_14  and  C_15
REMARK                            x       y       z     vdW  Elec       q    Type
REMARK                         _______ _______ _______ _____ _____    ______ ____
ROOT
ATOM      1  O   UNL     1      47.742   4.458  15.847  0.00  0.00    +0.000 OA
ENDROOT
BRANCH   1   2
ATOM      2  C   UNL     1      47.485   5.188  14.722  0.00  0.00    +0.000 A 
ATOM      3  C   UNL     1      48.210   6.284  14.264  0.00  0.00    +0.000 A 
ATOM      4  C   UNL     1      47.817   6.935  13.092  0.00  0.00    +0.000 A 
ATOM      5  C   UNL     1      46.715   6.481  12.363  0.00  0.00    +0.000 A 
ATOM      6  C   UNL     1      45.986   5.368  12.800  0.00  0.00    +0.000 A 
ATOM      7  C   UNL     1      46.375   4.747  13.996  0.00  0.00    +0.000 A 
BRANCH   6   8
ATOM      8  C   UNL     1      44.841   4.821  11.968  0.00  0.00    +0.000 C 
ATOM      9  C   UNL     1      44.458   3.385  12.360  0.00  0.00    +0.000 C 
ATOM     10  C   UNL     1      43.395   2.840  11.413  0.00  0.00    +0.000 C 
ATOM     11  O   UNL     1      43.834   2.918  10.057  0.00  0.00    +0.000 OA
ATOM     12  C   UNL     1      44.060   4.263   9.640  0.00  0.00    +0.000 C 
ATOM     13  C   UNL     1      45.166   4.899  10.467  0.00  0.00    +0.000 C 
ENDBRANCH   6   8
ENDBRANCH   1   2
BRANCH   1  14
ATOM     14  C   UNL     1      48.570   5.056  16.845  0.00  0.00    +0.000 C 
BRANCH  14  18
ATOM     15  C   UNL     1      51.776   2.368  17.730  0.00  0.00    +0.000 A 
ATOM     16  C   UNL     1      51.950   3.725  18.001  0.00  0.00    +0.000 A 
ATOM     17  C   UNL     1      50.909   4.610  17.728  0.00  0.00    +0.000 A 
ATOM     18  C   UNL     1      49.723   4.127  17.173  0.00  0.00    +0.000 A 
ATOM     19  N   UNL     1      49.532   2.804  16.925  0.00  0.00    +0.000 NA
ATOM     20  C   UNL     1      50.564   1.964  17.193  0.00  0.00    +0.000 A 
BRANCH  15  22
ATOM     21  N   UNL     1      52.935   0.339  17.048  0.00  0.00    +0.000 N 
ATOM     22  C   UNL     1      52.830   1.357  17.957  0.00  0.00    +0.000 C 
ATOM     23  O   UNL     1      53.599   1.435  18.905  0.00  0.00    +0.000 OA
ATOM     24  H   UNL     1      53.713  -0.294  17.171  0.00  0.00    +0.000 HD
ATOM     25  H   UNL     1      52.488   0.363  16.142  0.00  0.00    +0.000 HD
ENDBRANCH  15  22
ENDBRANCH  14  18
ENDBRANCH   1  14
TORSDOF 5
ENDMDL
MODEL 7
REMARK VINA RESULT:    -6.515      4.877      8.027
REMARK INTER + INTRA:          -9.216
REMARK INTER:                  -8.567
REMARK INTRA:                  -0.649
REMARK UNBOUND:                -0.797
REMARK  Name = 
REMARK  5 active torsions:
REMARK  status: ('A' for Active; 'I' for Inactive)
REMARK    1  A    between atoms: C_2  and  C_4
REMARK    2  A    between atoms: C_7  and  C_8
REMARK    3  A    between atoms: C_8  and  O_9
REMARK    4  A    between atoms: O_9  and  C_10
REMARK    5  A    between atoms: C_14  and  C_15
REMARK                            x       y       z     vdW  Elec       q    Type
REMARK                         _______ _______ _______ _____ _____    ______ ____
ROOT
ATOM      1  O   UNL     1      48.660   6.383  15.588  0.00  0.00    +0.000 OA
ENDROOT
BRANCH   1   2
ATOM      2  C   UNL     1      48.309   6.604  14.288  0.00  0.00    +0.000 A 
ATOM      3  C   UNL     1      48.994   7.393  13.368  0.00  0.00    +0.000 A 
ATOM      4  C   UNL     1      48.501   7.528  12.068  0.00  0.00    +0.000 A 
ATOM      5  C   UNL     1      47.339   6.859  11.676  0.00  0.00    +0.000 A 
ATOM      6  C   UNL     1      46.649   6.046  12.583  0.00  0.00    +0.000 A 
ATOM      7  C   UNL     1      47.139   5.949  13.894  0.00  0.00    +0.000 A 
BRANCH   6   8
ATOM      8  C   UNL     1      45.435   5.252  12.139  0.00  0.00    +0.000 C 
ATOM      9  C   UNL     1      45.241   5.267  10.614  0.00  0.00    +0.000 C 
ATOM     10  C   UNL     1      43.943   4.566  10.234  0.00  0.00    +0.000 C 
ATOM     11  O   UNL     1      42.832   5.150  10.913  0.00  0.00    +0.000 OA
ATOM     12  C   UNL     1      42.935   5.018  12.330  0.00  0.00    +0.000 C 
ATOM     13  C   UNL     1      44.163   5.750  12.846  0.00  0.00    +0.000 C 
ENDBRANCH   6   8
ENDBRANCH   1   2
BRANCH   1  14
ATOM     14  C   UNL     1      48.017   5.305  16.270  0.00  0.00    +0.000 C 
BRANCH  14  18
ATOM     15  C   UNL     1      50.981   2.451  17.434  0.00  0.00    +0.000 A 
ATOM     16  C   UNL     1      49.733   1.985  17.023  0.00  0.00    +0.000 A 
ATOM     17  C   UNL     1      48.762   2.904  16.630  0.00  0.00    +0.000 A 
ATOM     18  C   UNL     1      49.050   4.270  16.673  0.00  0.00    +0.000 A 
ATOM     19  N   UNL     1      50.269   4.735  17.051  0.00  0.00    +0.000 NA
ATOM     20  C   UNL     1      51.195   3.820  17.436  0.00  0.00    +0.000 A 
BRANCH  15  22
ATOM     21  N   UNL     1      51.777   0.227  18.021  0.00  0.00    +0.000 N 
ATOM     22  C   UNL     1      52.065   1.559  17.897  0.00  0.00    +0.000 C 
ATOM     23  O   UNL     1      53.186   1.985  18.139  0.00  0.00    +0.000 OA
ATOM     24  H   UNL     1      52.551  -0.380  18.255  0.00  0.00    +0.000 HD
ATOM     25  H   UNL     1      50.955  -0.198  17.615  0.00  0.00    +0.000 HD
ENDBRANCH  15  22
ENDBRANCH  14  18
ENDBRANCH   1  14
TORSDOF 5
ENDMDL
MODEL 8
REMARK VINA RESULT:    -6.257      4.503      8.500
REMARK INTER + INTRA:          -8.883
REMARK INTER:                  -8.261
REMARK INTRA:                  -0.622
REMARK UNBOUND:                -0.797
REMARK  Name = 
REMARK  5 active torsions:
REMARK  status: ('A' for Active; 'I' for Inactive)
REMARK    1  A    between atoms: C_2  and  C_4
REMARK    2  A    between atoms: C_7  and  C_8
REMARK    3  A    between atoms: C_8  and  O_9
REMARK    4  A    between atoms: O_9  and  C_10
REMARK    5  A    between atoms: C_14  and  C_15
REMARK                            x       y       z     vdW  Elec       q    Type
REMARK                         _______ _______ _______ _____ _____    ______ ____
ROOT
ATOM      1  O   UNL     1      48.597   6.283  13.732  0.00  0.00    +0.000 OA
ENDROOT
BRANCH   1   2
ATOM      2  C   UNL     1      47.458   6.775  13.162  0.00  0.00    +0.000 A 
ATOM      3  C   UNL     1      46.957   8.067  13.298  0.00  0.00    +0.000 A 
ATOM      4  C   UNL     1      45.768   8.420  12.655  0.00  0.00    +0.000 A 
ATOM      5  C   UNL     1      45.090   7.495  11.858  0.00  0.00    +0.000 A 
ATOM      6  C   UNL     1      45.590   6.197  11.696  0.00  0.00    +0.000 A 
ATOM      7  C   UNL     1      46.767   5.849  12.376  0.00  0.00    +0.000 A 
BRANCH   6   8
ATOM      8  C   UNL     1      44.903   5.216  10.765  0.00  0.00    +0.000 C 
ATOM      9  C   UNL     1      44.785   3.808  11.370  0.00  0.00    +0.000 C 
ATOM     10  C   UNL     1      44.206   2.836  10.350  0.00  0.00    +0.000 C 
ATOM     11  O   UNL     1      44.984   2.832   9.153  0.00  0.00    +0.000 OA
ATOM     12  C   UNL     1      44.986   4.104   8.508  0.00  0.00    +0.000 C 
ATOM     13  C   UNL     1      45.617   5.157   9.404  0.00  0.00    +0.000 C 
ENDBRANCH   6   8
ENDBRANCH   1   2
BRANCH   1  14
ATOM     14  C   UNL     1      49.271   7.112  14.680  0.00  0.00    +0.000 C 
BRANCH  14  18
ATOM     15  C   UNL     1      48.516   5.601  18.608  0.00  0.00    +0.000 A 
ATOM     16  C   UNL     1      48.646   6.979  18.438  0.00  0.00    +0.000 A 
ATOM     17  C   UNL     1      48.880   7.485  17.162  0.00  0.00    +0.000 A 
ATOM     18  C   UNL     1      48.999   6.606  16.083  0.00  0.00    +0.000 A 
ATOM     19  N   UNL     1      48.853   5.263  16.233  0.00  0.00    +0.000 NA
ATOM     20  C   UNL     1      48.633   4.795  17.487  0.00  0.00    +0.000 A 
BRANCH  15  22
ATOM     21  N   UNL     1      48.640   3.649  20.056  0.00  0.00    +0.000 N 
ATOM     22  C   UNL     1      48.297   4.967  19.925  0.00  0.00    +0.000 C 
ATOM     23  O   UNL     1      47.848   5.597  20.873  0.00  0.00    +0.000 OA
ATOM     24  H   UNL     1      48.564   3.255  20.984  0.00  0.00    +0.000 HD
ATOM     25  H   UNL     1      49.221   3.163  19.388  0.00  0.00    +0.000 HD
ENDBRANCH  15  22
ENDBRANCH  14  18
ENDBRANCH   1  14
TORSDOF 5
ENDMDL
MODEL 9
REMARK VINA RESULT:    -5.984      3.213      5.356
REMARK INTER + INTRA:          -8.530
REMARK INTER:                  -7.843
REMARK INTRA:                  -0.687
REMARK UNBOUND:                -0.797
REMARK  Name = 
REMARK  5 active torsions:
REMARK  status: ('A' for Active; 'I' for Inactive)
REMARK    1  A    between atoms: C_2  and  C_4
REMARK    2  A    between atoms: C_7  and  C_8
REMARK    3  A    between atoms: C_8  and  O_9
REMARK    4  A    between atoms: O_9  and  C_10
REMARK    5  A    between atoms: C_14  and  C_15
REMARK                            x       y       z     vdW  Elec       q    Type
REMARK                         _______ _______ _______ _____ _____    ______ ____
ROOT
ATOM      1  O   UNL     1      47.786   7.712  12.791  0.00  0.00    +0.000 OA
ENDROOT
BRANCH   1   2
ATOM      2  C   UNL     1      48.480   7.770  13.966  0.00  0.00    +0.000 A 
ATOM      3  C   UNL     1      49.281   8.821  14.402  0.00  0.00    +0.000 A 
ATOM      4  C   UNL     1      49.937   8.728  15.632  0.00  0.00    +0.000 A 
ATOM      5  C   UNL     1      49.777   7.599  16.439  0.00  0.00    +0.000 A 
ATOM      6  C   UNL     1      48.959   6.542  16.024  0.00  0.00    +0.000 A 
ATOM      7  C   UNL     1      48.335   6.636  14.771  0.00  0.00    +0.000 A 
BRANCH   6   8
ATOM      8  C   UNL     1      48.715   5.352  16.933  0.00  0.00    +0.000 C 
ATOM      9  C   UNL     1      50.002   4.575  17.251  0.00  0.00    +0.000 C 
ATOM     10  C   UNL     1      49.683   3.322  18.059  0.00  0.00    +0.000 C 
ATOM     11  O   UNL     1      48.729   2.507  17.377  0.00  0.00    +0.000 OA
ATOM     12  C   UNL     1      47.480   3.173  17.199  0.00  0.00    +0.000 C 
ATOM     13  C   UNL     1      47.654   4.412  16.335  0.00  0.00    +0.000 C 
ENDBRANCH   6   8
ENDBRANCH   1   2
BRANCH   1  14
ATOM     14  C   UNL     1      46.363   7.800  12.862  0.00  0.00    +0.000 C 
BRANCH  14  18
ATOM     15  C   UNL     1      44.595   4.186  11.414  0.00  0.00    +0.000 A 
ATOM     16  C   UNL     1      45.097   5.099  10.488  0.00  0.00    +0.000 A 
ATOM     17  C   UNL     1      45.687   6.275  10.947  0.00  0.00    +0.000 A 
ATOM     18  C   UNL     1      45.745   6.526  12.319  0.00  0.00    +0.000 A 
ATOM     19  N   UNL     1      45.278   5.634  13.233  0.00  0.00    +0.000 NA
ATOM     20  C   UNL     1      44.703   4.500  12.760  0.00  0.00    +0.000 A 
BRANCH  15  22
ATOM     21  N   UNL     1      44.474   2.211   9.997  0.00  0.00    +0.000 N 
ATOM     22  C   UNL     1      43.926   2.927  11.026  0.00  0.00    +0.000 C 
ATOM     23  O   UNL     1      42.934   2.521  11.616  0.00  0.00    +0.000 OA
ATOM     24  H   UNL     1      44.055   1.312   9.802  0.00  0.00    +0.000 HD
ATOM     25  H   UNL     1      45.406   2.379   9.645  0.00  0.00    +0.000 HD
ENDBRANCH  15  22
ENDBRANCH  14  18
ENDBRANCH   1  14
TORSDOF 5
ENDMDL
