MODEL 1
REMARK VINA RESULT:    -8.006      0.000      0.000
REMARK INTER + INTRA:         -11.644
REMARK INTER:                 -10.815
REMARK INTRA:                  -0.830
REMARK UNBOUND:                -0.830
REMARK  Name = 
REMARK  6 active torsions:
REMARK  status: ('A' for Active; 'I' for Inactive)
REMARK    1  A    between atoms: C_2  and  C_19
REMARK    2  A    between atoms: N_3  and  C_4
REMARK    3  A    between atoms: C_4  and  C_5
REMARK    4  A    between atoms: C_8  and  C_9
REMARK    5  A    between atoms: C_9  and  O_10
REMARK    6  A    between atoms: O_10  and  C_11
REMARK                            x       y       z     vdW  Elec       q    Type
REMARK                         _______ _______ _______ _____ _____    ______ ____
ROOT
ATOM      1  O   UNL     1      48.581   8.274  16.157  0.00  0.00    +0.000 OA
ATOM      2  C   UNL     1      48.721   7.075  15.960  0.00  0.00    +0.000 C 
ATOM      3  N   UNL     1      48.239   6.398  14.858  0.00  0.00    +0.000 N 
ATOM      4  H   UNL     1      48.575   5.466  14.696  0.00  0.00    +0.000 HD
ENDROOT
BRANCH   2   5
ATOM      5  C   UNL     1      49.593   6.227  16.757  0.00  0.00    +0.000 A 
ATOM      6  C   UNL     1      50.829   6.647  17.221  0.00  0.00    +0.000 A 
ATOM      7  S   UNL     1      51.839   5.318  17.619  0.00  0.00    +0.000 S 
ATOM      8  C   UNL     1      50.593   4.198  17.298  0.00  0.00    +0.000 A 
ATOM      9  N   UNL     1      50.799   2.855  17.285  0.00  0.00    +0.000 NA
ATOM     10  C   UNL     1      49.729   2.157  17.077  0.00  0.00    +0.000 A 
ATOM     11  N   UNL     1      48.464   2.676  16.937  0.00  0.00    +0.000 N 
ATOM     12  C   UNL     1      48.203   4.026  16.966  0.00  0.00    +0.000 A 
ATOM     13  O   UNL     1      47.063   4.469  16.938  0.00  0.00    +0.000 OA
ATOM     14  C   UNL     1      49.398   4.840  17.052  0.00  0.00    +0.000 A 
ATOM     15  H   UNL     1      47.658   2.072  16.872  0.00  0.00    +0.000 HD
ENDBRANCH   2   5
BRANCH   3  16
ATOM     16  C   UNL     1      47.723   7.082  13.708  0.00  0.00    +0.000 C 
BRANCH  16  17
ATOM     17  C   UNL     1      46.805   6.167  12.935  0.00  0.00    +0.000 A 
ATOM     18  C   UNL     1      46.240   6.587  11.724  0.00  0.00    +0.000 A 
ATOM     19  C   UNL     1      45.398   5.738  11.000  0.00  0.00    +0.000 A 
ATOM     20  C   UNL     1      45.081   4.464  11.486  0.00  0.00    +0.000 A 
ATOM     21  C   UNL     1      45.622   4.053  12.712  0.00  0.00    +0.000 A 
ATOM     22  C   UNL     1      46.467   4.901  13.435  0.00  0.00    +0.000 A 
BRANCH  20  23
ATOM     23  C   UNL     1      44.194   3.531  10.694  0.00  0.00    +0.000 C 
BRANCH  23  24
ATOM     24  O   UNL     1      44.169   3.965   9.338  0.00  0.00    +0.000 OA
BRANCH  24  25
ATOM     25  C   UNL     1      45.117   3.301   8.589  0.00  0.00    +0.000 A 
ATOM     26  N   UNL     1      45.775   4.059   7.702  0.00  0.00    +0.000 NA
ATOM     27  C   UNL     1      46.704   3.427   6.962  0.00  0.00    +0.000 A 
ATOM     28  C   UNL     1      46.996   2.089   7.088  0.00  0.00    +0.000 A 
ATOM     29  C   UNL     1      46.274   1.414   8.043  0.00  0.00    +0.000 A 
ATOM     30  N   UNL     1      45.327   1.991   8.805  0.00  0.00    +0.000 NA
ENDBRANCH  24  25
ENDBRANCH  23  24
ENDBRANCH  20  23
ENDBRANCH  16  17
ENDBRANCH   3  16
TORSDOF 6
ENDMDL
MODEL 2
REMARK VINA RESULT:    -7.652      1.684      1.826
REMARK INTER + INTRA:         -11.166
REMARK INTER:                 -10.349
REMARK INTRA:                  -0.817
REMARK UNBOUND:                -0.830
REMARK  Name = 
REMARK  6 active torsions:
REMARK  status: ('A' for Active; 'I' for Inactive)
REMARK    1  A    between atoms: C_2  and  C_19
REMARK    2  A    between atoms: N_3  and  C_4
REMARK    3  A    between atoms: C_4  and  C_5
REMARK    4  A    between atoms: C_8  and  C_9
REMARK    5  A    between atoms: C_9  and  O_10
REMARK    6  A    between atoms: O_10  and  C_11
REMARK                            x       y       z     vdW  Elec       q    Type
REMARK                         _______ _______ _______ _____ _____    ______ ____
ROOT
ATOM      1  O   UNL     1      50.448   6.692  15.526  0.00  0.00    +0.000 OA
ATOM      2  C   UNL     1      49.268   6.938  15.737  0.00  0.00    +0.000 C 
ATOM      3  N   UNL     1      48.318   7.131  14.756  0.00  0.00    +0.000 N 
ATOM      4  H   UNL     1      47.352   7.128  15.030  0.00  0.00    +0.000 HD
ENDROOT
BRANCH   2   5
ATOM      5  C   UNL     1      48.654   6.856  17.053  0.00  0.00    +0.000 A 
ATOM      6  C   UNL     1      48.314   7.977  17.794  0.00  0.00    +0.000 A 
ATOM      7  S   UNL     1      48.149   7.606  19.461  0.00  0.00    +0.000 S 
ATOM      8  C   UNL     1      48.401   5.942  19.177  0.00  0.00    +0.000 A 
ATOM      9  N   UNL     1      48.544   5.040  20.182  0.00  0.00    +0.000 NA
ATOM     10  C   UNL     1      48.673   3.816  19.781  0.00  0.00    +0.000 A 
ATOM     11  N   UNL     1      48.614   3.405  18.471  0.00  0.00    +0.000 N 
ATOM     12  C   UNL     1      48.448   4.279  17.422  0.00  0.00    +0.000 A 
ATOM     13  O   UNL     1      48.300   3.892  16.270  0.00  0.00    +0.000 OA
ATOM     14  C   UNL     1      48.447   5.670  17.827  0.00  0.00    +0.000 A 
ATOM     15  H   UNL     1      48.626   2.425  18.231  0.00  0.00    +0.000 HD
ENDBRANCH   2   5
BRANCH   3  16
ATOM     16  C   UNL     1      48.572   6.831  13.376  0.00  0.00    +0.000 C 
BRANCH  16  17
ATOM     17  C   UNL     1      47.367   6.158  12.766  0.00  0.00    +0.000 A 
ATOM     18  C   UNL     1      46.719   6.728  11.664  0.00  0.00    +0.000 A 
ATOM     19  C   UNL     1      45.609   6.103  11.089  0.00  0.00    +0.000 A 
ATOM     20  C   UNL     1      45.109   4.908  11.622  0.00  0.00    +0.000 A 
ATOM     21  C   UNL     1      45.739   4.351  12.743  0.00  0.00    +0.000 A 
ATOM     22  C   UNL     1      46.851   4.975  13.316  0.00  0.00    +0.000 A 
BRANCH  20  23
ATOM     23  C   UNL     1      43.927   4.212  10.988  0.00  0.00    +0.000 C 
BRANCH  23  24
ATOM     24  O   UNL     1      43.918   4.505   9.594  0.00  0.00    +0.000 OA
BRANCH  24  25
ATOM     25  C   UNL     1      44.797   3.692   8.912  0.00  0.00    +0.000 A 
ATOM     26  N   UNL     1      45.548   4.311   7.992  0.00  0.00    +0.000 NA
ATOM     27  C   UNL     1      46.412   3.531   7.316  0.00  0.00    +0.000 A 
ATOM     28  C   UNL     1      46.552   2.181   7.537  0.00  0.00    +0.000 A 
ATOM     29  C   UNL     1      45.745   1.655   8.518  0.00  0.00    +0.000 A 
ATOM     30  N   UNL     1      44.857   2.384   9.218  0.00  0.00    +0.000 NA
ENDBRANCH  24  25
ENDBRANCH  23  24
ENDBRANCH  20  23
ENDBRANCH  16  17
ENDBRANCH   3  16
TORSDOF 6
ENDMDL
MODEL 3
REMARK VINA RESULT:    -7.389      2.568      4.309
REMARK INTER + INTRA:         -10.810
REMARK INTER:                  -9.933
REMARK INTRA:                  -0.877
REMARK UNBOUND:                -0.830
REMARK  Name = 
REMARK  6 active torsions:
REMARK  status: ('A' for Active; 'I' for Inactive)
REMARK    1  A    between atoms: C_2  and  C_19
REMARK    2  A    between atoms: N_3  and  C_4
REMARK    3  A    between atoms: C_4  and  C_5
REMARK    4  A    between atoms: C_8  and  C_9
REMARK    5  A    between atoms: C_9  and  O_10
REMARK    6  A    between atoms: O_10  and  C_11
REMARK                            x       y       z     vdW  Elec       q    Type
REMARK                         _______ _______ _______ _____ _____    ______ ____
ROOT
ATOM      1  O   UNL     1      49.298   5.823  15.893  0.00  0.00    +0.000 OA
ATOM      2  C   UNL     1      48.794   6.631  15.125  0.00  0.00    +0.000 C 
ATOM      3  N   UNL     1      47.727   6.364  14.292  0.00  0.00    +0.000 N 
ATOM      4  H   UNL     1      47.267   7.141  13.854  0.00  0.00    +0.000 HD
ENDROOT
BRANCH   2   5
ATOM      5  C   UNL     1      49.113   8.050  15.130  0.00  0.00    +0.000 A 
ATOM      6  C   UNL     1      49.218   8.792  16.295  0.00  0.00    +0.000 A 
ATOM      7  S   UNL     1      49.041  10.472  15.993  0.00  0.00    +0.000 S 
ATOM      8  C   UNL     1      48.955  10.220  14.307  0.00  0.00    +0.000 A 
ATOM      9  N   UNL     1      48.651  11.213  13.432  0.00  0.00    +0.000 NA
ATOM     10  C   UNL     1      48.684  10.852  12.189  0.00  0.00    +0.000 A 
ATOM     11  N   UNL     1      49.048   9.606  11.740  0.00  0.00    +0.000 N 
ATOM     12  C   UNL     1      49.385   8.576  12.586  0.00  0.00    +0.000 A 
ATOM     13  O   UNL     1      49.801   7.502  12.172  0.00  0.00    +0.000 OA
ATOM     14  C   UNL     1      49.217   8.906  13.987  0.00  0.00    +0.000 A 
ATOM     15  H   UNL     1      49.146   9.416  10.753  0.00  0.00    +0.000 HD
ENDBRANCH   2   5
BRANCH   3  16
ATOM     16  C   UNL     1      46.945   5.167  14.413  0.00  0.00    +0.000 C 
BRANCH  16  17
ATOM     17  C   UNL     1      46.243   4.878  13.108  0.00  0.00    +0.000 A 
ATOM     18  C   UNL     1      45.630   3.637  12.893  0.00  0.00    +0.000 A 
ATOM     19  C   UNL     1      44.970   3.369  11.691  0.00  0.00    +0.000 A 
ATOM     20  C   UNL     1      44.934   4.326  10.669  0.00  0.00    +0.000 A 
ATOM     21  C   UNL     1      45.572   5.557  10.871  0.00  0.00    +0.000 A 
ATOM     22  C   UNL     1      46.230   5.826  12.075  0.00  0.00    +0.000 A 
BRANCH  20  23
ATOM     23  C   UNL     1      44.198   4.052   9.378  0.00  0.00    +0.000 C 
BRANCH  23  24
ATOM     24  O   UNL     1      44.321   2.669   9.064  0.00  0.00    +0.000 OA
BRANCH  24  25
ATOM     25  C   UNL     1      45.409   2.442   8.250  0.00  0.00    +0.000 A 
ATOM     26  N   UNL     1      45.747   3.463   7.451  0.00  0.00    +0.000 NA
ATOM     27  C   UNL     1      46.807   3.257   6.649  0.00  0.00    +0.000 A 
ATOM     28  C   UNL     1      47.533   2.088   6.632  0.00  0.00    +0.000 A 
ATOM     29  C   UNL     1      47.110   1.116   7.506  0.00  0.00    +0.000 A 
ATOM     30  N   UNL     1      46.051   1.262   8.324  0.00  0.00    +0.000 NA
ENDBRANCH  24  25
ENDBRANCH  23  24
ENDBRANCH  20  23
ENDBRANCH  16  17
ENDBRANCH   3  16
TORSDOF 6
ENDMDL
MODEL 4
REMARK VINA RESULT:    -7.306      2.363      3.104
REMARK INTER + INTRA:         -10.698
REMARK INTER:                  -9.943
REMARK INTRA:                  -0.755
REMARK UNBOUND:                -0.830
REMARK  Name = 
REMARK  6 active torsions:
REMARK  status: ('A' for Active; 'I' for Inactive)
REMARK    1  A    between atoms: C_2  and  C_19
REMARK    2  A    between atoms: N_3  and  C_4
REMARK    3  A    between atoms: C_4  and  C_5
REMARK    4  A    between atoms: C_8  and  C_9
REMARK    5  A    between atoms: C_9  and  O_10
REMARK    6  A    between atoms: O_10  and  C_11
REMARK                            x       y       z     vdW  Elec       q    Type
REMARK                         _______ _______ _______ _____ _____    ______ ____
ROOT
ATOM      1  O   UNL     1      49.336   4.739  16.594  0.00  0.00    +0.000 OA
ATOM      2  C   UNL     1      48.628   5.671  16.241  0.00  0.00    +0.000 C 
ATOM      3  N   UNL     1      47.556   5.561  15.379  0.00  0.00    +0.000 N 
ATOM      4  H   UNL     1      46.925   6.339  15.311  0.00  0.00    +0.000 HD
ENDROOT
BRANCH   2   5
ATOM      5  C   UNL     1      48.684   6.995  16.840  0.00  0.00    +0.000 A 
ATOM      6  C   UNL     1      49.236   8.089  16.192  0.00  0.00    +0.000 A 
ATOM      7  S   UNL     1      49.670   9.326  17.300  0.00  0.00    +0.000 S 
ATOM      8  C   UNL     1      49.008   8.462  18.615  0.00  0.00    +0.000 A 
ATOM      9  N   UNL     1      49.160   8.861  19.905  0.00  0.00    +0.000 NA
ATOM     10  C   UNL     1      48.546   8.114  20.766  0.00  0.00    +0.000 A 
ATOM     11  N   UNL     1      47.747   7.042  20.451  0.00  0.00    +0.000 N 
ATOM     12  C   UNL     1      47.545   6.615  19.159  0.00  0.00    +0.000 A 
ATOM     13  O   UNL     1      46.756   5.721  18.885  0.00  0.00    +0.000 OA
ATOM     14  C   UNL     1      48.335   7.340  18.185  0.00  0.00    +0.000 A 
ATOM     15  H   UNL     1      47.219   6.559  21.163  0.00  0.00    +0.000 HD
ENDBRANCH   2   5
BRANCH   3  16
ATOM     16  C   UNL     1      47.017   4.289  14.989  0.00  0.00    +0.000 C 
BRANCH  16  17
ATOM     17  C   UNL     1      46.403   4.391  13.614  0.00  0.00    +0.000 A 
ATOM     18  C   UNL     1      46.367   5.619  12.943  0.00  0.00    +0.000 A 
ATOM     19  C   UNL     1      45.809   5.715  11.665  0.00  0.00    +0.000 A 
ATOM     20  C   UNL     1      45.250   4.590  11.045  0.00  0.00    +0.000 A 
ATOM     21  C   UNL     1      45.260   3.366  11.727  0.00  0.00    +0.000 A 
ATOM     22  C   UNL     1      45.821   3.270  13.004  0.00  0.00    +0.000 A 
BRANCH  20  23
ATOM     23  C   UNL     1      44.672   4.681   9.652  0.00  0.00    +0.000 C 
BRANCH  23  24
ATOM     24  O   UNL     1      44.405   3.365   9.179  0.00  0.00    +0.000 OA
BRANCH  24  25
ATOM     25  C   UNL     1      45.377   2.951   8.295  0.00  0.00    +0.000 A 
ATOM     26  N   UNL     1      45.851   1.716   8.506  0.00  0.00    +0.000 NA
ATOM     27  C   UNL     1      46.802   1.296   7.651  0.00  0.00    +0.000 A 
ATOM     28  C   UNL     1      47.273   2.054   6.605  0.00  0.00    +0.000 A 
ATOM     29  C   UNL     1      46.703   3.297   6.471  0.00  0.00    +0.000 A 
ATOM     30  N   UNL     1      45.757   3.774   7.301  0.00  0.00    +0.000 NA
ENDBRANCH  24  25
ENDBRANCH  23  24
ENDBRANCH  20  23
ENDBRANCH  16  17
ENDBRANCH   3  16
TORSDOF 6
ENDMDL
MODEL 5
REMARK VINA RESULT:    -7.302      2.816      8.356
REMARK INTER + INTRA:         -10.693
REMARK INTER:                  -9.788
REMARK INTRA:                  -0.905
REMARK UNBOUND:                -0.830
REMARK  Name = 
REMARK  6 active torsions:
REMARK  status: ('A' for Active; 'I' for Inactive)
REMARK    1  A    between atoms: C_2  and  C_19
REMARK    2  A    between atoms: N_3  and  C_4
REMARK    3  A    between atoms: C_4  and  C_5
REMARK    4  A    between atoms: C_8  and  C_9
REMARK    5  A    between atoms: C_9  and  O_10
REMARK    6  A    between atoms: O_10  and  C_11
REMARK                            x       y       z     vdW  Elec       q    Type
REMARK                         _______ _______ _______ _____ _____    ______ ____
ROOT
ATOM      1  O   UNL     1      44.939   7.492  11.720  0.00  0.00    +0.000 OA
ATOM      2  C   UNL     1      45.390   6.386  11.458  0.00  0.00    +0.000 C 
ATOM      3  N   UNL     1      46.698   6.000  11.671  0.00  0.00    +0.000 N 
ATOM      4  H   UNL     1      46.915   5.022  11.610  0.00  0.00    +0.000 HD
ENDROOT
BRANCH   2   5
ATOM      5  C   UNL     1      44.565   5.251  11.076  0.00  0.00    +0.000 A 
ATOM      6  C   UNL     1      43.460   4.846  11.809  0.00  0.00    +0.000 A 
ATOM      7  S   UNL     1      43.039   3.217  11.468  0.00  0.00    +0.000 S 
ATOM      8  C   UNL     1      44.239   3.098  10.260  0.00  0.00    +0.000 A 
ATOM      9  N   UNL     1      44.549   1.926   9.648  0.00  0.00    +0.000 NA
ATOM     10  C   UNL     1      45.444   2.033   8.719  0.00  0.00    +0.000 A 
ATOM     11  N   UNL     1      46.016   3.213   8.309  0.00  0.00    +0.000 N 
ATOM     12  C   UNL     1      45.717   4.427   8.883  0.00  0.00    +0.000 A 
ATOM     13  O   UNL     1      46.159   5.481   8.444  0.00  0.00    +0.000 OA
ATOM     14  C   UNL     1      44.827   4.321  10.021  0.00  0.00    +0.000 A 
ATOM     15  H   UNL     1      46.638   3.242   7.514  0.00  0.00    +0.000 HD
ENDBRANCH   2   5
BRANCH   3  16
ATOM     16  C   UNL     1      47.611   6.792  12.445  0.00  0.00    +0.000 C 
BRANCH  16  17
ATOM     17  C   UNL     1      47.799   6.173  13.809  0.00  0.00    +0.000 A 
ATOM     18  C   UNL     1      47.117   5.001  14.156  0.00  0.00    +0.000 A 
ATOM     19  C   UNL     1      47.297   4.418  15.414  0.00  0.00    +0.000 A 
ATOM     20  C   UNL     1      48.142   5.012  16.359  0.00  0.00    +0.000 A 
ATOM     21  C   UNL     1      48.804   6.201  16.024  0.00  0.00    +0.000 A 
ATOM     22  C   UNL     1      48.626   6.782  14.765  0.00  0.00    +0.000 A 
BRANCH  20  23
ATOM     23  C   UNL     1      48.363   4.372  17.710  0.00  0.00    +0.000 C 
BRANCH  23  24
ATOM     24  O   UNL     1      48.679   2.996  17.519  0.00  0.00    +0.000 OA
BRANCH  24  25
ATOM     25  C   UNL     1      50.032   2.776  17.651  0.00  0.00    +0.000 A 
ATOM     26  N   UNL     1      50.452   1.561  17.274  0.00  0.00    +0.000 NA
ATOM     27  C   UNL     1      51.772   1.329  17.398  0.00  0.00    +0.000 A 
ATOM     28  C   UNL     1      52.667   2.262  17.865  0.00  0.00    +0.000 A 
ATOM     29  C   UNL     1      52.130   3.480  18.204  0.00  0.00    +0.000 A 
ATOM     30  N   UNL     1      50.819   3.765  18.112  0.00  0.00    +0.000 NA
ENDBRANCH  24  25
ENDBRANCH  23  24
ENDBRANCH  20  23
ENDBRANCH  16  17
ENDBRANCH   3  16
TORSDOF 6
ENDMDL
MODEL 6
REMARK VINA RESULT:    -7.241      1.959      2.571
REMARK INTER + INTRA:         -10.610
REMARK INTER:                 -10.119
REMARK INTRA:                  -0.491
REMARK UNBOUND:                -0.830
REMARK  Name = 
REMARK  6 active torsions:
REMARK  status: ('A' for Active; 'I' for Inactive)
REMARK    1  A    between atoms: C_2  and  C_19
REMARK    2  A    between atoms: N_3  and  C_4
REMARK    3  A    between atoms: C_4  and  C_5
REMARK    4  A    between atoms: C_8  and  C_9
REMARK    5  A    between atoms: C_9  and  O_10
REMARK    6  A    between atoms: O_10  and  C_11
REMARK                            x       y       z     vdW  Elec       q    Type
REMARK                         _______ _______ _______ _____ _____    ______ ____
ROOT
ATOM      1  O   UNL     1      49.559   6.682  14.669  0.00  0.00    +0.000 OA
ATOM      2  C   UNL     1      48.516   6.225  15.115  0.00  0.00    +0.000 C 
ATOM      3  N   UNL     1      47.265   6.454  14.580  0.00  0.00    +0.000 N 
ATOM      4  H   UNL     1      46.506   5.879  14.897  0.00  0.00    +0.000 HD
ENDROOT
BRANCH   2   5
ATOM      5  C   UNL     1      48.464   5.204  16.150  0.00  0.00    +0.000 A 
ATOM      6  C   UNL     1      47.788   4.005  15.989  0.00  0.00    +0.000 A 
ATOM      7  S   UNL     1      47.425   3.277  17.500  0.00  0.00    +0.000 S 
ATOM      8  C   UNL     1      48.277   4.485  18.354  0.00  0.00    +0.000 A 
ATOM      9  N   UNL     1      48.256   4.578  19.709  0.00  0.00    +0.000 NA
ATOM     10  C   UNL     1      49.002   5.522  20.187  0.00  0.00    +0.000 A 
ATOM     11  N   UNL     1      49.810   6.342  19.438  0.00  0.00    +0.000 N 
ATOM     12  C   UNL     1      49.882   6.270  18.067  0.00  0.00    +0.000 A 
ATOM     13  O   UNL     1      50.678   6.939  17.420  0.00  0.00    +0.000 OA
ATOM     14  C   UNL     1      48.950   5.323  17.491  0.00  0.00    +0.000 A 
ATOM     15  H   UNL     1      50.441   6.995  19.879  0.00  0.00    +0.000 HD
ENDBRANCH   2   5
BRANCH   3  16
ATOM     16  C   UNL     1      47.085   7.070  13.297  0.00  0.00    +0.000 C 
BRANCH  16  17
ATOM     17  C   UNL     1      46.333   6.137  12.380  0.00  0.00    +0.000 A 
ATOM     18  C   UNL     1      46.004   4.842  12.800  0.00  0.00    +0.000 A 
ATOM     19  C   UNL     1      45.299   3.978  11.958  0.00  0.00    +0.000 A 
ATOM     20  C   UNL     1      44.932   4.382  10.668  0.00  0.00    +0.000 A 
ATOM     21  C   UNL     1      45.285   5.667  10.235  0.00  0.00    +0.000 A 
ATOM     22  C   UNL     1      45.988   6.532  11.079  0.00  0.00    +0.000 A 
BRANCH  20  23
ATOM     23  C   UNL     1      44.144   3.463   9.764  0.00  0.00    +0.000 C 
BRANCH  23  24
ATOM     24  O   UNL     1      44.825   2.216   9.672  0.00  0.00    +0.000 OA
BRANCH  24  25
ATOM     25  C   UNL     1      45.601   2.159   8.535  0.00  0.00    +0.000 A 
ATOM     26  N   UNL     1      45.560   3.251   7.761  0.00  0.00    +0.000 NA
ATOM     27  C   UNL     1      46.311   3.211   6.645  0.00  0.00    +0.000 A 
ATOM     28  C   UNL     1      47.097   2.139   6.295  0.00  0.00    +0.000 A 
ATOM     29  C   UNL     1      47.079   1.081   7.173  0.00  0.00    +0.000 A 
ATOM     30  N   UNL     1      46.340   1.061   8.297  0.00  0.00    +0.000 NA
ENDBRANCH  24  25
ENDBRANCH  23  24
ENDBRANCH  20  23
ENDBRANCH  16  17
ENDBRANCH   3  16
TORSDOF 6
ENDMDL
MODEL 7
REMARK VINA RESULT:    -6.955      3.818      8.578
REMARK INTER + INTRA:         -10.224
REMARK INTER:                  -9.369
REMARK INTRA:                  -0.855
REMARK UNBOUND:                -0.830
REMARK  Name = 
REMARK  6 active torsions:
REMARK  status: ('A' for Active; 'I' for Inactive)
REMARK    1  A    between atoms: C_2  and  C_19
REMARK    2  A    between atoms: N_3  and  C_4
REMARK    3  A    between atoms: C_4  and  C_5
REMARK    4  A    between atoms: C_8  and  C_9
REMARK    5  A    between atoms: C_9  and  O_10
REMARK    6  A    between atoms: O_10  and  C_11
REMARK                            x       y       z     vdW  Elec       q    Type
REMARK                         _______ _______ _______ _____ _____    ______ ____
ROOT
ATOM      1  O   UNL     1      49.174   6.617  14.062  0.00  0.00    +0.000 OA
ATOM      2  C   UNL     1      48.033   6.215  14.240  0.00  0.00    +0.000 C 
ATOM      3  N   UNL     1      47.551   5.722  15.435  0.00  0.00    +0.000 N 
ATOM      4  H   UNL     1      46.558   5.606  15.530  0.00  0.00    +0.000 HD
ENDROOT
BRANCH   2   5
ATOM      5  C   UNL     1      46.959   6.390  13.274  0.00  0.00    +0.000 A 
ATOM      6  C   UNL     1      46.760   7.573  12.580  0.00  0.00    +0.000 A 
ATOM      7  S   UNL     1      45.159   7.685  11.971  0.00  0.00    +0.000 S 
ATOM      8  C   UNL     1      44.778   6.114  12.517  0.00  0.00    +0.000 A 
ATOM      9  N   UNL     1      43.518   5.607  12.470  0.00  0.00    +0.000 NA
ATOM     10  C   UNL     1      43.426   4.381  12.876  0.00  0.00    +0.000 A 
ATOM     11  N   UNL     1      44.484   3.599  13.270  0.00  0.00    +0.000 N 
ATOM     12  C   UNL     1      45.778   4.061  13.313  0.00  0.00    +0.000 A 
ATOM     13  O   UNL     1      46.723   3.328  13.572  0.00  0.00    +0.000 OA
ATOM     14  C   UNL     1      45.896   5.472  13.004  0.00  0.00    +0.000 A 
ATOM     15  H   UNL     1      44.357   2.621  13.485  0.00  0.00    +0.000 HD
ENDBRANCH   2   5
BRANCH   3  16
ATOM     16  C   UNL     1      48.281   5.850  16.664  0.00  0.00    +0.000 C 
BRANCH  16  17
ATOM     17  C   UNL     1      49.102   4.608  16.906  0.00  0.00    +0.000 A 
ATOM     18  C   UNL     1      48.568   3.341  16.637  0.00  0.00    +0.000 A 
ATOM     19  C   UNL     1      49.330   2.188  16.849  0.00  0.00    +0.000 A 
ATOM     20  C   UNL     1      50.630   2.278  17.362  0.00  0.00    +0.000 A 
ATOM     21  C   UNL     1      51.156   3.542  17.659  0.00  0.00    +0.000 A 
ATOM     22  C   UNL     1      50.395   4.696  17.443  0.00  0.00    +0.000 A 
BRANCH  20  23
ATOM     23  C   UNL     1      51.468   1.037  17.567  0.00  0.00    +0.000 C 
BRANCH  23  24
ATOM     24  O   UNL     1      52.836   1.368  17.353  0.00  0.00    +0.000 OA
BRANCH  24  25
ATOM     25  C   UNL     1      53.638   0.253  17.465  0.00  0.00    +0.000 A 
ATOM     26  N   UNL     1      54.385  -0.023  16.388  0.00  0.00    +0.000 NA
ATOM     27  C   UNL     1      55.173  -1.110  16.481  0.00  0.00    +0.000 A 
ATOM     28  C   UNL     1      55.245  -1.904  17.601  0.00  0.00    +0.000 A 
ATOM     29  C   UNL     1      54.452  -1.515  18.653  0.00  0.00    +0.000 A 
ATOM     30  N   UNL     1      53.637  -0.446  18.614  0.00  0.00    +0.000 NA
ENDBRANCH  24  25
ENDBRANCH  23  24
ENDBRANCH  20  23
ENDBRANCH  16  17
ENDBRANCH   3  16
TORSDOF 6
ENDMDL
MODEL 8
REMARK VINA RESULT:    -6.942      2.859      4.024
REMARK INTER + INTRA:         -10.207
REMARK INTER:                  -9.529
REMARK INTRA:                  -0.678
REMARK UNBOUND:                -0.830
REMARK  Name = 
REMARK  6 active torsions:
REMARK  status: ('A' for Active; 'I' for Inactive)
REMARK    1  A    between atoms: C_2  and  C_19
REMARK    2  A    between atoms: N_3  and  C_4
REMARK    3  A    between atoms: C_4  and  C_5
REMARK    4  A    between atoms: C_8  and  C_9
REMARK    5  A    between atoms: C_9  and  O_10
REMARK    6  A    between atoms: O_10  and  C_11
REMARK                            x       y       z     vdW  Elec       q    Type
REMARK                         _______ _______ _______ _____ _____    ______ ____
ROOT
ATOM      1  O   UNL     1      49.759   6.650  14.704  0.00  0.00    +0.000 OA
ATOM      2  C   UNL     1      48.777   7.365  14.563  0.00  0.00    +0.000 C 
ATOM      3  N   UNL     1      47.508   6.909  14.269  0.00  0.00    +0.000 N 
ATOM      4  H   UNL     1      46.743   7.551  14.370  0.00  0.00    +0.000 HD
ENDROOT
BRANCH   2   5
ATOM      5  C   UNL     1      48.763   8.783  14.887  0.00  0.00    +0.000 A 
ATOM      6  C   UNL     1      48.704   9.774  13.919  0.00  0.00    +0.000 A 
ATOM      7  S   UNL     1      49.256  11.281  14.526  0.00  0.00    +0.000 S 
ATOM      8  C   UNL     1      49.447  10.646  16.098  0.00  0.00    +0.000 A 
ATOM      9  N   UNL     1      50.033  11.346  17.105  0.00  0.00    +0.000 NA
ATOM     10  C   UNL     1      50.043  10.728  18.242  0.00  0.00    +0.000 A 
ATOM     11  N   UNL     1      49.472   9.501  18.478  0.00  0.00    +0.000 N 
ATOM     12  C   UNL     1      48.848   8.767  17.497  0.00  0.00    +0.000 A 
ATOM     13  O   UNL     1      48.258   7.722  17.740  0.00  0.00    +0.000 OA
ATOM     14  C   UNL     1      48.947   9.365  16.181  0.00  0.00    +0.000 A 
ATOM     15  H   UNL     1      49.430   9.117  19.411  0.00  0.00    +0.000 HD
ENDBRANCH   2   5
BRANCH   3  16
ATOM     16  C   UNL     1      47.164   5.518  14.331  0.00  0.00    +0.000 C 
BRANCH  16  17
ATOM     17  C   UNL     1      46.401   5.121  13.091  0.00  0.00    +0.000 A 
ATOM     18  C   UNL     1      45.927   3.812  12.939  0.00  0.00    +0.000 A 
ATOM     19  C   UNL     1      45.211   3.443  11.796  0.00  0.00    +0.000 A 
ATOM     20  C   UNL     1      44.980   4.368  10.771  0.00  0.00    +0.000 A 
ATOM     21  C   UNL     1      45.479   5.671  10.908  0.00  0.00    +0.000 A 
ATOM     22  C   UNL     1      46.192   6.040  12.052  0.00  0.00    +0.000 A 
BRANCH  20  23
ATOM     23  C   UNL     1      44.182   3.984   9.547  0.00  0.00    +0.000 C 
BRANCH  23  24
ATOM     24  O   UNL     1      44.878   4.429   8.387  0.00  0.00    +0.000 OA
BRANCH  24  25
ATOM     25  C   UNL     1      45.745   3.461   7.928  0.00  0.00    +0.000 A 
ATOM     26  N   UNL     1      45.539   2.232   8.420  0.00  0.00    +0.000 NA
ATOM     27  C   UNL     1      46.377   1.275   7.983  0.00  0.00    +0.000 A 
ATOM     28  C   UNL     1      47.386   1.503   7.077  0.00  0.00    +0.000 A 
ATOM     29  C   UNL     1      47.493   2.796   6.624  0.00  0.00    +0.000 A 
ATOM     30  N   UNL     1      46.691   3.795   7.033  0.00  0.00    +0.000 NA
ENDBRANCH  24  25
ENDBRANCH  23  24
ENDBRANCH  20  23
ENDBRANCH  16  17
ENDBRANCH   3  16
TORSDOF 6
ENDMDL
MODEL 9
REMARK VINA RESULT:    -6.771      3.096      8.031
REMARK INTER + INTRA:          -9.976
REMARK INTER:                  -8.959
REMARK INTRA:                  -1.018
REMARK UNBOUND:                -0.830
REMARK  Name = 
REMARK  6 active torsions:
REMARK  status: ('A' for Active; 'I' for Inactive)
REMARK    1  A    between atoms: C_2  and  C_19
REMARK    2  A    between atoms: N_3  and  C_4
REMARK    3  A    between atoms: C_4  and  C_5
REMARK    4  A    between atoms: C_8  and  C_9
REMARK    5  A    between atoms: C_9  and  O_10
REMARK    6  A    between atoms: O_10  and  C_11
REMARK                            x       y       z     vdW  Elec       q    Type
REMARK                         _______ _______ _______ _____ _____    ______ ____
ROOT
ATOM      1  O   UNL     1      44.502   7.882  11.340  0.00  0.00    +0.000 OA
ATOM      2  C   UNL     1      45.469   7.135  11.283  0.00  0.00    +0.000 C 
ATOM      3  N   UNL     1      46.673   7.358  11.920  0.00  0.00    +0.000 N 
ATOM      4  H   UNL     1      47.325   6.596  11.973  0.00  0.00    +0.000 HD
ENDROOT
BRANCH   2   5
ATOM      5  C   UNL     1      45.421   5.801  10.705  0.00  0.00    +0.000 A 
ATOM      6  C   UNL     1      45.745   5.545   9.382  0.00  0.00    +0.000 A 
ATOM      7  S   UNL     1      45.078   4.057   8.846  0.00  0.00    +0.000 S 
ATOM      8  C   UNL     1      44.474   3.699  10.400  0.00  0.00    +0.000 A 
ATOM      9  N   UNL     1      43.657   2.642  10.644  0.00  0.00    +0.000 NA
ATOM     10  C   UNL     1      43.341   2.493  11.890  0.00  0.00    +0.000 A 
ATOM     11  N   UNL     1      43.812   3.269  12.921  0.00  0.00    +0.000 N 
ATOM     12  C   UNL     1      44.658   4.335  12.727  0.00  0.00    +0.000 A 
ATOM     13  O   UNL     1      45.147   4.957  13.660  0.00  0.00    +0.000 OA
ATOM     14  C   UNL     1      44.914   4.617  11.329  0.00  0.00    +0.000 A 
ATOM     15  H   UNL     1      43.603   3.041  13.882  0.00  0.00    +0.000 HD
ENDBRANCH   2   5
BRANCH   3  16
ATOM     16  C   UNL     1      46.833   8.382  12.912  0.00  0.00    +0.000 C 
BRANCH  16  17
ATOM     17  C   UNL     1      47.713   7.880  14.031  0.00  0.00    +0.000 A 
ATOM     18  C   UNL     1      47.987   6.513  14.159  0.00  0.00    +0.000 A 
ATOM     19  C   UNL     1      48.810   6.045  15.188  0.00  0.00    +0.000 A 
ATOM     20  C   UNL     1      49.352   6.933  16.126  0.00  0.00    +0.000 A 
ATOM     21  C   UNL     1      49.055   8.298  16.017  0.00  0.00    +0.000 A 
ATOM     22  C   UNL     1      48.235   8.766  14.986  0.00  0.00    +0.000 A 
BRANCH  20  23
ATOM     23  C   UNL     1      50.265   6.437  17.223  0.00  0.00    +0.000 C 
BRANCH  23  24
ATOM     24  O   UNL     1      49.613   5.380  17.919  0.00  0.00    +0.000 OA
BRANCH  24  25
ATOM     25  C   UNL     1      50.286   4.189  17.751  0.00  0.00    +0.000 A 
ATOM     26  N   UNL     1      49.579   3.212  17.166  0.00  0.00    +0.000 NA
ATOM     27  C   UNL     1      50.221   2.042  16.996  0.00  0.00    +0.000 A 
ATOM     28  C   UNL     1      51.525   1.828  17.374  0.00  0.00    +0.000 A 
ATOM     29  C   UNL     1      52.160   2.904  17.945  0.00  0.00    +0.000 A 
ATOM     30  N   UNL     1      51.567   4.094  18.150  0.00  0.00    +0.000 NA
ENDBRANCH  24  25
ENDBRANCH  23  24
ENDBRANCH  20  23
ENDBRANCH  16  17
ENDBRANCH   3  16
TORSDOF 6
ENDMDL
