MODEL 1
REMARK VINA RESULT:    -8.562      0.000      0.000
REMARK INTER + INTRA:         -12.227
REMARK INTER:                 -11.065
REMARK INTRA:                  -1.162
REMARK UNBOUND:                -1.162
REMARK  Name = 
REMARK  6 active torsions:
REMARK  status: ('A' for Active; 'I' for Inactive)
REMARK    1  A    between atoms: C_1  and  C_2
REMARK    2  A    between atoms: C_2  and  N_3
REMARK    3  A    between atoms: C_2  and  C_16
REMARK    4  A    between atoms: C_4  and  C_6
REMARK    5  A    between atoms: C_19  and  C_20
REMARK    6  A    between atoms: C_20  and  C_21
REMARK                            x       y       z     vdW  Elec       q    Type
REMARK                         _______ _______ _______ _____ _____    ______ ____
ROOT
ATOM      1  C   UNL     1      45.321   8.932  12.887  0.00  0.00    +0.000 C 
ATOM      2  C   UNL     1      46.439   7.913  12.641  0.00  0.00    +0.000 C 
ENDROOT
BRANCH   2   3
ATOM      3  C   UNL     1      45.926   6.778  11.761  0.00  0.00    +0.000 A 
ATOM      4  C   UNL     1      44.808   6.020  12.136  0.00  0.00    +0.000 A 
ATOM      5  C   UNL     1      44.298   5.031  11.284  0.00  0.00    +0.000 A 
ATOM      6  C   UNL     1      44.892   4.783  10.039  0.00  0.00    +0.000 A 
ATOM      7  C   UNL     1      46.032   5.512   9.682  0.00  0.00    +0.000 A 
ATOM      8  C   UNL     1      46.542   6.494  10.532  0.00  0.00    +0.000 A 
BRANCH   6   9
ATOM      9  C   UNL     1      44.308   3.765   9.084  0.00  0.00    +0.000 C 
BRANCH   9  10
ATOM     10  C   UNL     1      45.324   2.946   8.326  0.00  0.00    +0.000 A 
ATOM     11  C   UNL     1      45.935   3.435   7.167  0.00  0.00    +0.000 A 
ATOM     12  C   UNL     1      46.812   2.626   6.446  0.00  0.00    +0.000 A 
ATOM     13  C   UNL     1      47.059   1.346   6.912  0.00  0.00    +0.000 A 
ATOM     14  N   UNL     1      46.497   0.836   8.027  0.00  0.00    +0.000 NA
ATOM     15  C   UNL     1      45.646   1.643   8.702  0.00  0.00    +0.000 A 
ENDBRANCH   9  10
ENDBRANCH   6   9
ENDBRANCH   2   3
BRANCH   2  16
ATOM     16  N   UNL     1      46.962   7.350  13.878  0.00  0.00    +0.000 N 
ATOM     17  C   UNL     1      48.273   6.979  14.048  0.00  0.00    +0.000 C 
ATOM     18  O   UNL     1      49.124   7.123  13.177  0.00  0.00    +0.000 OA
ATOM     19  H   UNL     1      46.272   6.920  14.487  0.00  0.00    +0.000 HD
BRANCH  17  20
ATOM     20  C   UNL     1      48.629   6.457  15.372  0.00  0.00    +0.000 A 
ATOM     21  C   UNL     1      49.584   7.116  16.138  0.00  0.00    +0.000 A 
ATOM     22  S   UNL     1      49.880   6.373  17.645  0.00  0.00    +0.000 S 
ATOM     23  C   UNL     1      48.770   5.126  17.312  0.00  0.00    +0.000 A 
ATOM     24  N   UNL     1      48.570   4.110  18.191  0.00  0.00    +0.000 NA
ATOM     25  C   UNL     1      47.718   3.223  17.795  0.00  0.00    +0.000 A 
ATOM     26  N   UNL     1      47.038   3.270  16.605  0.00  0.00    +0.000 N 
ATOM     27  C   UNL     1      47.181   4.299  15.701  0.00  0.00    +0.000 A 
ATOM     28  O   UNL     1      46.512   4.345  14.678  0.00  0.00    +0.000 OA
ATOM     29  C   UNL     1      48.153   5.297  16.085  0.00  0.00    +0.000 A 
ATOM     30  H   UNL     1      46.363   2.557  16.367  0.00  0.00    +0.000 HD
ENDBRANCH  17  20
ENDBRANCH   2  16
TORSDOF 5
ENDMDL
MODEL 2
REMARK VINA RESULT:    -8.070      1.674      2.377
REMARK INTER + INTRA:         -11.591
REMARK INTER:                 -10.800
REMARK INTRA:                  -0.792
REMARK UNBOUND:                -1.162
REMARK  Name = 
REMARK  6 active torsions:
REMARK  status: ('A' for Active; 'I' for Inactive)
REMARK    1  A    between atoms: C_1  and  C_2
REMARK    2  A    between atoms: C_2  and  N_3
REMARK    3  A    between atoms: C_2  and  C_16
REMARK    4  A    between atoms: C_4  and  C_6
REMARK    5  A    between atoms: C_19  and  C_20
REMARK    6  A    between atoms: C_20  and  C_21
REMARK                            x       y       z     vdW  Elec       q    Type
REMARK                         _______ _______ _______ _____ _____    ______ ____
ROOT
ATOM      1  C   UNL     1      44.966   7.635  12.898  0.00  0.00    +0.000 C 
ATOM      2  C   UNL     1      46.084   6.596  12.755  0.00  0.00    +0.000 C 
ENDROOT
BRANCH   2   3
ATOM      3  C   UNL     1      45.697   5.555  11.711  0.00  0.00    +0.000 A 
ATOM      4  C   UNL     1      45.740   5.851  10.341  0.00  0.00    +0.000 A 
ATOM      5  C   UNL     1      45.459   4.863   9.388  0.00  0.00    +0.000 A 
ATOM      6  C   UNL     1      45.132   3.559   9.784  0.00  0.00    +0.000 A 
ATOM      7  C   UNL     1      45.049   3.273  11.151  0.00  0.00    +0.000 A 
ATOM      8  C   UNL     1      45.326   4.258  12.101  0.00  0.00    +0.000 A 
BRANCH   6   9
ATOM      9  C   UNL     1      44.893   2.470   8.762  0.00  0.00    +0.000 C 
BRANCH   9  10
ATOM     10  C   UNL     1      45.962   2.342   7.704  0.00  0.00    +0.000 A 
ATOM     11  C   UNL     1      46.027   3.231   6.625  0.00  0.00    +0.000 A 
ATOM     12  C   UNL     1      46.978   3.041   5.623  0.00  0.00    +0.000 A 
ATOM     13  C   UNL     1      47.843   1.967   5.732  0.00  0.00    +0.000 A 
ATOM     14  N   UNL     1      47.820   1.090   6.757  0.00  0.00    +0.000 NA
ATOM     15  C   UNL     1      46.882   1.296   7.711  0.00  0.00    +0.000 A 
ENDBRANCH   9  10
ENDBRANCH   6   9
ENDBRANCH   2   3
BRANCH   2  16
ATOM     16  N   UNL     1      46.379   5.917  14.010  0.00  0.00    +0.000 N 
ATOM     17  C   UNL     1      47.649   5.603  14.422  0.00  0.00    +0.000 C 
ATOM     18  O   UNL     1      48.650   5.901  13.779  0.00  0.00    +0.000 OA
ATOM     19  H   UNL     1      45.613   5.378  14.404  0.00  0.00    +0.000 HD
BRANCH  17  20
ATOM     20  C   UNL     1      47.760   4.946  15.730  0.00  0.00    +0.000 A 
ATOM     21  C   UNL     1      47.396   3.612  15.863  0.00  0.00    +0.000 A 
ATOM     22  S   UNL     1      47.582   3.008  17.448  0.00  0.00    +0.000 S 
ATOM     23  C   UNL     1      48.123   4.518  18.018  0.00  0.00    +0.000 A 
ATOM     24  N   UNL     1      48.421   4.708  19.330  0.00  0.00    +0.000 NA
ATOM     25  C   UNL     1      48.794   5.910  19.623  0.00  0.00    +0.000 A 
ATOM     26  N   UNL     1      48.910   6.935  18.719  0.00  0.00    +0.000 N 
ATOM     27  C   UNL     1      48.655   6.779  17.374  0.00  0.00    +0.000 A 
ATOM     28  O   UNL     1      48.830   7.694  16.583  0.00  0.00    +0.000 OA
ATOM     29  C   UNL     1      48.197   5.458  17.004  0.00  0.00    +0.000 A 
ATOM     30  H   UNL     1      49.235   7.846  19.009  0.00  0.00    +0.000 HD
ENDBRANCH  17  20
ENDBRANCH   2  16
TORSDOF 5
ENDMDL
MODEL 3
REMARK VINA RESULT:    -7.872      2.736      4.152
REMARK INTER + INTRA:         -11.335
REMARK INTER:                 -10.212
REMARK INTRA:                  -1.122
REMARK UNBOUND:                -1.162
REMARK  Name = 
REMARK  6 active torsions:
REMARK  status: ('A' for Active; 'I' for Inactive)
REMARK    1  A    between atoms: C_1  and  C_2
REMARK    2  A    between atoms: C_2  and  N_3
REMARK    3  A    between atoms: C_2  and  C_16
REMARK    4  A    between atoms: C_4  and  C_6
REMARK    5  A    between atoms: C_19  and  C_20
REMARK    6  A    between atoms: C_20  and  C_21
REMARK                            x       y       z     vdW  Elec       q    Type
REMARK                         _______ _______ _______ _____ _____    ______ ____
ROOT
ATOM      1  C   UNL     1      46.748   4.749  14.623  0.00  0.00    +0.000 C 
ATOM      2  C   UNL     1      46.291   5.774  13.580  0.00  0.00    +0.000 C 
ENDROOT
BRANCH   2   3
ATOM      3  C   UNL     1      45.767   5.059  12.340  0.00  0.00    +0.000 A 
ATOM      4  C   UNL     1      45.715   5.706  11.097  0.00  0.00    +0.000 A 
ATOM      5  C   UNL     1      45.306   5.016   9.949  0.00  0.00    +0.000 A 
ATOM      6  C   UNL     1      44.944   3.664  10.018  0.00  0.00    +0.000 A 
ATOM      7  C   UNL     1      44.956   3.028  11.265  0.00  0.00    +0.000 A 
ATOM      8  C   UNL     1      45.360   3.717  12.409  0.00  0.00    +0.000 A 
BRANCH   6   9
ATOM      9  C   UNL     1      44.565   2.892   8.773  0.00  0.00    +0.000 C 
BRANCH   9  10
ATOM     10  C   UNL     1      45.717   2.553   7.858  0.00  0.00    +0.000 A 
ATOM     11  C   UNL     1      46.067   3.387   6.790  0.00  0.00    +0.000 A 
ATOM     12  C   UNL     1      47.086   3.009   5.917  0.00  0.00    +0.000 A 
ATOM     13  C   UNL     1      47.732   1.806   6.141  0.00  0.00    +0.000 A 
ATOM     14  N   UNL     1      47.432   0.975   7.160  0.00  0.00    +0.000 NA
ATOM     15  C   UNL     1      46.434   1.366   7.988  0.00  0.00    +0.000 A 
ENDBRANCH   9  10
ENDBRANCH   6   9
ENDBRANCH   2   3
BRANCH   2  16
ATOM     16  N   UNL     1      47.360   6.681  13.184  0.00  0.00    +0.000 N 
ATOM     17  C   UNL     1      47.227   8.047  13.162  0.00  0.00    +0.000 C 
ATOM     18  O   UNL     1      46.200   8.622  13.509  0.00  0.00    +0.000 OA
ATOM     19  H   UNL     1      48.083   6.273  12.598  0.00  0.00    +0.000 HD
BRANCH  17  20
ATOM     20  C   UNL     1      48.419   8.806  12.764  0.00  0.00    +0.000 A 
ATOM     21  C   UNL     1      48.300   9.846  11.851  0.00  0.00    +0.000 A 
ATOM     22  S   UNL     1      49.781  10.616  11.497  0.00  0.00    +0.000 S 
ATOM     23  C   UNL     1      50.637   9.563  12.526  0.00  0.00    +0.000 A 
ATOM     24  N   UNL     1      51.987   9.650  12.654  0.00  0.00    +0.000 NA
ATOM     25  C   UNL     1      52.504   8.772  13.448  0.00  0.00    +0.000 A 
ATOM     26  N   UNL     1      51.790   7.825  14.137  0.00  0.00    +0.000 N 
ATOM     27  C   UNL     1      50.418   7.724  14.067  0.00  0.00    +0.000 A 
ATOM     28  O   UNL     1      49.804   6.911  14.743  0.00  0.00    +0.000 OA
ATOM     29  C   UNL     1      49.798   8.663  13.160  0.00  0.00    +0.000 A 
ATOM     30  H   UNL     1      52.253   7.183  14.766  0.00  0.00    +0.000 HD
ENDBRANCH  17  20
ENDBRANCH   2  16
TORSDOF 5
ENDMDL
MODEL 4
REMARK VINA RESULT:    -7.542      1.366      2.060
REMARK INTER + INTRA:         -10.909
REMARK INTER:                 -10.210
REMARK INTRA:                  -0.699
REMARK UNBOUND:                -1.162
REMARK  Name = 
REMARK  6 active torsions:
REMARK  status: ('A' for Active; 'I' for Inactive)
REMARK    1  A    between atoms: C_1  and  C_2
REMARK    2  A    between atoms: C_2  and  N_3
REMARK    3  A    between atoms: C_2  and  C_16
REMARK    4  A    between atoms: C_4  and  C_6
REMARK    5  A    between atoms: C_19  and  C_20
REMARK    6  A    between atoms: C_20  and  C_21
REMARK                            x       y       z     vdW  Elec       q    Type
REMARK                         _______ _______ _______ _____ _____    ______ ____
ROOT
ATOM      1  C   UNL     1      43.073   6.380  12.712  0.00  0.00    +0.000 C 
ATOM      2  C   UNL     1      44.500   6.350  12.155  0.00  0.00    +0.000 C 
ENDROOT
BRANCH   2   3
ATOM      3  C   UNL     1      44.664   5.172  11.203  0.00  0.00    +0.000 A 
ATOM      4  C   UNL     1      45.226   5.341   9.930  0.00  0.00    +0.000 A 
ATOM      5  C   UNL     1      45.444   4.238   9.093  0.00  0.00    +0.000 A 
ATOM      6  C   UNL     1      45.108   2.944   9.513  0.00  0.00    +0.000 A 
ATOM      7  C   UNL     1      44.510   2.779  10.767  0.00  0.00    +0.000 A 
ATOM      8  C   UNL     1      44.289   3.877  11.598  0.00  0.00    +0.000 A 
BRANCH   6   9
ATOM      9  C   UNL     1      45.401   1.741   8.644  0.00  0.00    +0.000 C 
BRANCH   9  10
ATOM     10  C   UNL     1      46.314   2.007   7.471  0.00  0.00    +0.000 A 
ATOM     11  C   UNL     1      45.978   2.944   6.487  0.00  0.00    +0.000 A 
ATOM     12  C   UNL     1      46.804   3.113   5.377  0.00  0.00    +0.000 A 
ATOM     13  C   UNL     1      47.949   2.341   5.284  0.00  0.00    +0.000 A 
ATOM     14  N   UNL     1      48.314   1.433   6.212  0.00  0.00    +0.000 NA
ATOM     15  C   UNL     1      47.490   1.286   7.276  0.00  0.00    +0.000 A 
ENDBRANCH   9  10
ENDBRANCH   6   9
ENDBRANCH   2   3
BRANCH   2  16
ATOM     16  N   UNL     1      45.507   6.252  13.204  0.00  0.00    +0.000 N 
ATOM     17  C   UNL     1      46.798   6.693  13.060  0.00  0.00    +0.000 C 
ATOM     18  O   UNL     1      47.204   7.242  12.041  0.00  0.00    +0.000 OA
ATOM     19  H   UNL     1      45.331   5.543  13.911  0.00  0.00    +0.000 HD
BRANCH  17  20
ATOM     20  C   UNL     1      47.667   6.540  14.232  0.00  0.00    +0.000 A 
ATOM     21  C   UNL     1      48.525   7.572  14.594  0.00  0.00    +0.000 A 
ATOM     22  S   UNL     1      49.465   7.225  15.975  0.00  0.00    +0.000 S 
ATOM     23  C   UNL     1      48.784   5.671  16.117  0.00  0.00    +0.000 A 
ATOM     24  N   UNL     1      49.190   4.813  17.088  0.00  0.00    +0.000 NA
ATOM     25  C   UNL     1      48.604   3.661  17.059  0.00  0.00    +0.000 A 
ATOM     26  N   UNL     1      47.639   3.298  16.155  0.00  0.00    +0.000 N 
ATOM     27  C   UNL     1      47.171   4.147  15.178  0.00  0.00    +0.000 A 
ATOM     28  O   UNL     1      46.264   3.816  14.428  0.00  0.00    +0.000 OA
ATOM     29  C   UNL     1      47.824   5.437  15.147  0.00  0.00    +0.000 A 
ATOM     30  H   UNL     1      47.200   2.389  16.205  0.00  0.00    +0.000 HD
ENDBRANCH  17  20
ENDBRANCH   2  16
TORSDOF 5
ENDMDL
MODEL 5
REMARK VINA RESULT:    -7.532      2.189      2.793
REMARK INTER + INTRA:         -10.896
REMARK INTER:                  -9.668
REMARK INTRA:                  -1.228
REMARK UNBOUND:                -1.162
REMARK  Name = 
REMARK  6 active torsions:
REMARK  status: ('A' for Active; 'I' for Inactive)
REMARK    1  A    between atoms: C_1  and  C_2
REMARK    2  A    between atoms: C_2  and  N_3
REMARK    3  A    between atoms: C_2  and  C_16
REMARK    4  A    between atoms: C_4  and  C_6
REMARK    5  A    between atoms: C_19  and  C_20
REMARK    6  A    between atoms: C_20  and  C_21
REMARK                            x       y       z     vdW  Elec       q    Type
REMARK                         _______ _______ _______ _____ _____    ______ ____
ROOT
ATOM      1  C   UNL     1      47.542   8.903  13.820  0.00  0.00    +0.000 C 
ATOM      2  C   UNL     1      47.902   7.413  13.825  0.00  0.00    +0.000 C 
ENDROOT
BRANCH   2   3
ATOM      3  C   UNL     1      46.924   6.638  12.950  0.00  0.00    +0.000 A 
ATOM      4  C   UNL     1      46.328   7.231  11.828  0.00  0.00    +0.000 A 
ATOM      5  C   UNL     1      45.493   6.486  10.985  0.00  0.00    +0.000 A 
ATOM      6  C   UNL     1      45.237   5.133  11.245  0.00  0.00    +0.000 A 
ATOM      7  C   UNL     1      45.798   4.551  12.387  0.00  0.00    +0.000 A 
ATOM      8  C   UNL     1      46.628   5.294  13.228  0.00  0.00    +0.000 A 
BRANCH   6   9
ATOM      9  C   UNL     1      44.391   4.303  10.305  0.00  0.00    +0.000 C 
BRANCH   9  10
ATOM     10  C   UNL     1      45.166   3.508   9.282  0.00  0.00    +0.000 A 
ATOM     11  C   UNL     1      45.760   4.128   8.177  0.00  0.00    +0.000 A 
ATOM     12  C   UNL     1      46.404   3.358   7.210  0.00  0.00    +0.000 A 
ATOM     13  C   UNL     1      46.441   1.985   7.379  0.00  0.00    +0.000 A 
ATOM     14  N   UNL     1      45.887   1.347   8.430  0.00  0.00    +0.000 NA
ATOM     15  C   UNL     1      45.264   2.120   9.350  0.00  0.00    +0.000 A 
ENDBRANCH   9  10
ENDBRANCH   6   9
ENDBRANCH   2   3
BRANCH   2  16
ATOM     16  N   UNL     1      47.889   6.841  15.165  0.00  0.00    +0.000 N 
ATOM     17  C   UNL     1      49.023   6.458  15.837  0.00  0.00    +0.000 C 
ATOM     18  O   UNL     1      50.150   6.599  15.375  0.00  0.00    +0.000 OA
ATOM     19  H   UNL     1      47.012   6.414  15.448  0.00  0.00    +0.000 HD
BRANCH  17  20
ATOM     20  C   UNL     1      48.823   5.929  17.191  0.00  0.00    +0.000 A 
ATOM     21  C   UNL     1      49.078   4.587  17.451  0.00  0.00    +0.000 A 
ATOM     22  S   UNL     1      48.790   4.139  19.072  0.00  0.00    +0.000 S 
ATOM     23  C   UNL     1      48.281   5.714  19.474  0.00  0.00    +0.000 A 
ATOM     24  N   UNL     1      47.846   6.013  20.725  0.00  0.00    +0.000 NA
ATOM     25  C   UNL     1      47.468   7.239  20.880  0.00  0.00    +0.000 A 
ATOM     26  N   UNL     1      47.501   8.196  19.897  0.00  0.00    +0.000 N 
ATOM     27  C   UNL     1      47.969   7.948  18.626  0.00  0.00    +0.000 A 
ATOM     28  O   UNL     1      48.047   8.838  17.791  0.00  0.00    +0.000 OA
ATOM     29  C   UNL     1      48.368   6.577  18.396  0.00  0.00    +0.000 A 
ATOM     30  H   UNL     1      47.217   9.146  20.091  0.00  0.00    +0.000 HD
ENDBRANCH  17  20
ENDBRANCH   2  16
TORSDOF 5
ENDMDL
MODEL 6
REMARK VINA RESULT:    -7.422      3.179      7.717
REMARK INTER + INTRA:         -10.754
REMARK INTER:                  -9.633
REMARK INTRA:                  -1.122
REMARK UNBOUND:                -1.162
REMARK  Name = 
REMARK  6 active torsions:
REMARK  status: ('A' for Active; 'I' for Inactive)
REMARK    1  A    between atoms: C_1  and  C_2
REMARK    2  A    between atoms: C_2  and  N_3
REMARK    3  A    between atoms: C_2  and  C_16
REMARK    4  A    between atoms: C_4  and  C_6
REMARK    5  A    between atoms: C_19  and  C_20
REMARK    6  A    between atoms: C_20  and  C_21
REMARK                            x       y       z     vdW  Elec       q    Type
REMARK                         _______ _______ _______ _____ _____    ______ ____
ROOT
ATOM      1  C   UNL     1      49.733   7.812  12.392  0.00  0.00    +0.000 C 
ATOM      2  C   UNL     1      48.451   7.413  13.131  0.00  0.00    +0.000 C 
ENDROOT
BRANCH   2   3
ATOM      3  C   UNL     1      48.797   6.807  14.486  0.00  0.00    +0.000 A 
ATOM      4  C   UNL     1      47.944   5.884  15.106  0.00  0.00    +0.000 A 
ATOM      5  C   UNL     1      48.308   5.274  16.314  0.00  0.00    +0.000 A 
ATOM      6  C   UNL     1      49.534   5.571  16.924  0.00  0.00    +0.000 A 
ATOM      7  C   UNL     1      50.368   6.523  16.326  0.00  0.00    +0.000 A 
ATOM      8  C   UNL     1      50.004   7.133  15.126  0.00  0.00    +0.000 A 
BRANCH   6   9
ATOM      9  C   UNL     1      49.967   4.869  18.192  0.00  0.00    +0.000 C 
BRANCH   9  10
ATOM     10  C   UNL     1      50.753   3.598  17.980  0.00  0.00    +0.000 A 
ATOM     11  C   UNL     1      52.114   3.523  18.300  0.00  0.00    +0.000 A 
ATOM     12  C   UNL     1      52.831   2.360  18.022  0.00  0.00    +0.000 A 
ATOM     13  C   UNL     1      52.163   1.299  17.436  0.00  0.00    +0.000 A 
ATOM     14  N   UNL     1      50.853   1.326  17.117  0.00  0.00    +0.000 NA
ATOM     15  C   UNL     1      50.184   2.470  17.393  0.00  0.00    +0.000 A 
ENDBRANCH   9  10
ENDBRANCH   6   9
ENDBRANCH   2   3
BRANCH   2  16
ATOM     16  N   UNL     1      47.648   6.457  12.379  0.00  0.00    +0.000 N 
ATOM     17  C   UNL     1      46.465   6.779  11.763  0.00  0.00    +0.000 C 
ATOM     18  O   UNL     1      45.999   7.913  11.767  0.00  0.00    +0.000 OA
ATOM     19  H   UNL     1      47.804   5.480  12.610  0.00  0.00    +0.000 HD
BRANCH  17  20
ATOM     20  C   UNL     1      45.806   5.695  11.024  0.00  0.00    +0.000 A 
ATOM     21  C   UNL     1      45.892   5.654   9.638  0.00  0.00    +0.000 A 
ATOM     22  S   UNL     1      45.067   4.334   8.941  0.00  0.00    +0.000 S 
ATOM     23  C   UNL     1      44.536   3.791  10.465  0.00  0.00    +0.000 A 
ATOM     24  N   UNL     1      43.731   2.703  10.582  0.00  0.00    +0.000 NA
ATOM     25  C   UNL     1      43.387   2.422  11.795  0.00  0.00    +0.000 A 
ATOM     26  N   UNL     1      43.789   3.123  12.903  0.00  0.00    +0.000 N 
ATOM     27  C   UNL     1      44.634   4.209  12.836  0.00  0.00    +0.000 A 
ATOM     28  O   UNL     1      45.026   4.774  13.847  0.00  0.00    +0.000 OA
ATOM     29  C   UNL     1      45.016   4.584  11.493  0.00  0.00    +0.000 A 
ATOM     30  H   UNL     1      43.506   2.834  13.829  0.00  0.00    +0.000 HD
ENDBRANCH  17  20
ENDBRANCH   2  16
TORSDOF 5
ENDMDL
MODEL 7
REMARK VINA RESULT:    -6.997      2.324      4.140
REMARK INTER + INTRA:         -10.205
REMARK INTER:                  -9.811
REMARK INTRA:                  -0.394
REMARK UNBOUND:                -1.162
REMARK  Name = 
REMARK  6 active torsions:
REMARK  status: ('A' for Active; 'I' for Inactive)
REMARK    1  A    between atoms: C_1  and  C_2
REMARK    2  A    between atoms: C_2  and  N_3
REMARK    3  A    between atoms: C_2  and  C_16
REMARK    4  A    between atoms: C_4  and  C_6
REMARK    5  A    between atoms: C_19  and  C_20
REMARK    6  A    between atoms: C_20  and  C_21
REMARK                            x       y       z     vdW  Elec       q    Type
REMARK                         _______ _______ _______ _____ _____    ______ ____
ROOT
ATOM      1  C   UNL     1      47.289   3.969  14.681  0.00  0.00    +0.000 C 
ATOM      2  C   UNL     1      46.439   5.150  14.201  0.00  0.00    +0.000 C 
ENDROOT
BRANCH   2   3
ATOM      3  C   UNL     1      45.903   4.872  12.801  0.00  0.00    +0.000 A 
ATOM      4  C   UNL     1      46.072   5.800  11.763  0.00  0.00    +0.000 A 
ATOM      5  C   UNL     1      45.646   5.501  10.462  0.00  0.00    +0.000 A 
ATOM      6  C   UNL     1      45.046   4.269  10.171  0.00  0.00    +0.000 A 
ATOM      7  C   UNL     1      44.840   3.359  11.214  0.00  0.00    +0.000 A 
ATOM      8  C   UNL     1      45.261   3.658  12.510  0.00  0.00    +0.000 A 
BRANCH   6   9
ATOM      9  C   UNL     1      44.643   3.910   8.757  0.00  0.00    +0.000 C 
BRANCH   9  10
ATOM     10  C   UNL     1      45.631   3.043   8.014  0.00  0.00    +0.000 A 
ATOM     11  C   UNL     1      45.820   1.699   8.355  0.00  0.00    +0.000 A 
ATOM     12  C   UNL     1      46.793   0.945   7.701  0.00  0.00    +0.000 A 
ATOM     13  C   UNL     1      47.548   1.557   6.716  0.00  0.00    +0.000 A 
ATOM     14  N   UNL     1      47.395   2.847   6.351  0.00  0.00    +0.000 NA
ATOM     15  C   UNL     1      46.447   3.555   7.008  0.00  0.00    +0.000 A 
ENDBRANCH   9  10
ENDBRANCH   6   9
ENDBRANCH   2   3
BRANCH   2  16
ATOM     16  N   UNL     1      47.184   6.402  14.180  0.00  0.00    +0.000 N 
ATOM     17  C   UNL     1      48.286   6.642  14.962  0.00  0.00    +0.000 C 
ATOM     18  O   UNL     1      48.757   5.804  15.723  0.00  0.00    +0.000 OA
ATOM     19  H   UNL     1      46.671   7.208  13.835  0.00  0.00    +0.000 HD
BRANCH  17  20
ATOM     20  C   UNL     1      48.929   7.950  14.787  0.00  0.00    +0.000 A 
ATOM     21  C   UNL     1      48.987   8.837  15.855  0.00  0.00    +0.000 A 
ATOM     22  S   UNL     1      49.763  10.309  15.478  0.00  0.00    +0.000 S 
ATOM     23  C   UNL     1      50.017   9.825  13.865  0.00  0.00    +0.000 A 
ATOM     24  N   UNL     1      50.607  10.656  12.968  0.00  0.00    +0.000 NA
ATOM     25  C   UNL     1      50.712  10.166  11.777  0.00  0.00    +0.000 A 
ATOM     26  N   UNL     1      50.292   8.914  11.408  0.00  0.00    +0.000 N 
ATOM     27  C   UNL     1      49.723   8.024  12.291  0.00  0.00    +0.000 A 
ATOM     28  O   UNL     1      49.419   6.891  11.947  0.00  0.00    +0.000 OA
ATOM     29  C   UNL     1      49.551   8.543  13.630  0.00  0.00    +0.000 A 
ATOM     30  H   UNL     1      50.429   8.580  10.464  0.00  0.00    +0.000 HD
ENDBRANCH  17  20
ENDBRANCH   2  16
TORSDOF 5
ENDMDL
MODEL 8
REMARK VINA RESULT:    -6.940      3.089      8.136
REMARK INTER + INTRA:         -10.132
REMARK INTER:                  -9.037
REMARK INTRA:                  -1.095
REMARK UNBOUND:                -1.162
REMARK  Name = 
REMARK  6 active torsions:
REMARK  status: ('A' for Active; 'I' for Inactive)
REMARK    1  A    between atoms: C_1  and  C_2
REMARK    2  A    between atoms: C_2  and  N_3
REMARK    3  A    between atoms: C_2  and  C_16
REMARK    4  A    between atoms: C_4  and  C_6
REMARK    5  A    between atoms: C_19  and  C_20
REMARK    6  A    between atoms: C_20  and  C_21
REMARK                            x       y       z     vdW  Elec       q    Type
REMARK                         _______ _______ _______ _____ _____    ______ ____
ROOT
ATOM      1  C   UNL     1      49.014   7.495  11.901  0.00  0.00    +0.000 C 
ATOM      2  C   UNL     1      47.878   7.145  12.869  0.00  0.00    +0.000 C 
ENDROOT
BRANCH   2   3
ATOM      3  C   UNL     1      48.453   6.746  14.224  0.00  0.00    +0.000 A 
ATOM      4  C   UNL     1      47.805   5.806  15.038  0.00  0.00    +0.000 A 
ATOM      5  C   UNL     1      48.382   5.388  16.245  0.00  0.00    +0.000 A 
ATOM      6  C   UNL     1      49.618   5.899  16.661  0.00  0.00    +0.000 A 
ATOM      7  C   UNL     1      50.246   6.867  15.869  0.00  0.00    +0.000 A 
ATOM      8  C   UNL     1      49.671   7.285  14.669  0.00  0.00    +0.000 A 
BRANCH   6   9
ATOM      9  C   UNL     1      50.281   5.405  17.928  0.00  0.00    +0.000 C 
BRANCH   9  10
ATOM     10  C   UNL     1      51.085   4.136  17.775  0.00  0.00    +0.000 A 
ATOM     11  C   UNL     1      50.467   2.911  17.501  0.00  0.00    +0.000 A 
ATOM     12  C   UNL     1      51.228   1.745  17.441  0.00  0.00    +0.000 A 
ATOM     13  C   UNL     1      52.593   1.838  17.651  0.00  0.00    +0.000 A 
ATOM     14  N   UNL     1      53.230   2.998  17.911  0.00  0.00    +0.000 NA
ATOM     15  C   UNL     1      52.464   4.113  17.969  0.00  0.00    +0.000 A 
ENDBRANCH   9  10
ENDBRANCH   6   9
ENDBRANCH   2   3
BRANCH   2  16
ATOM     16  N   UNL     1      47.039   6.061  12.376  0.00  0.00    +0.000 N 
ATOM     17  C   UNL     1      45.669   6.123  12.331  0.00  0.00    +0.000 C 
ATOM     18  O   UNL     1      45.036   7.116  12.673  0.00  0.00    +0.000 OA
ATOM     19  H   UNL     1      47.465   5.138  12.393  0.00  0.00    +0.000 HD
BRANCH  17  20
ATOM     20  C   UNL     1      44.987   4.947  11.776  0.00  0.00    +0.000 A 
ATOM     21  C   UNL     1      44.180   4.168  12.595  0.00  0.00    +0.000 A 
ATOM     22  S   UNL     1      43.470   2.841  11.791  0.00  0.00    +0.000 S 
ATOM     23  C   UNL     1      44.245   3.242  10.329  0.00  0.00    +0.000 A 
ATOM     24  N   UNL     1      44.097   2.471   9.221  0.00  0.00    +0.000 NA
ATOM     25  C   UNL     1      44.762   2.882   8.192  0.00  0.00    +0.000 A 
ATOM     26  N   UNL     1      45.550   4.005   8.170  0.00  0.00    +0.000 N 
ATOM     27  C   UNL     1      45.700   4.837   9.257  0.00  0.00    +0.000 A 
ATOM     28  O   UNL     1      46.357   5.865   9.186  0.00  0.00    +0.000 OA
ATOM     29  C   UNL     1      45.002   4.395  10.444  0.00  0.00    +0.000 A 
ATOM     30  H   UNL     1      46.023   4.288   7.323  0.00  0.00    +0.000 HD
ENDBRANCH  17  20
ENDBRANCH   2  16
TORSDOF 5
ENDMDL
MODEL 9
REMARK VINA RESULT:    -6.611      1.902      2.563
REMARK INTER + INTRA:          -9.706
REMARK INTER:                  -8.603
REMARK INTRA:                  -1.103
REMARK UNBOUND:                -1.162
REMARK  Name = 
REMARK  6 active torsions:
REMARK  status: ('A' for Active; 'I' for Inactive)
REMARK    1  A    between atoms: C_1  and  C_2
REMARK    2  A    between atoms: C_2  and  N_3
REMARK    3  A    between atoms: C_2  and  C_16
REMARK    4  A    between atoms: C_4  and  C_6
REMARK    5  A    between atoms: C_19  and  C_20
REMARK    6  A    between atoms: C_20  and  C_21
REMARK                            x       y       z     vdW  Elec       q    Type
REMARK                         _______ _______ _______ _____ _____    ______ ____
ROOT
ATOM      1  C   UNL     1      47.986   9.936  13.454  0.00  0.00    +0.000 C 
ATOM      2  C   UNL     1      48.158   8.443  13.751  0.00  0.00    +0.000 C 
ENDROOT
BRANCH   2   3
ATOM      3  C   UNL     1      47.152   7.631  12.942  0.00  0.00    +0.000 A 
ATOM      4  C   UNL     1      47.201   6.230  12.921  0.00  0.00    +0.000 A 
ATOM      5  C   UNL     1      46.225   5.492  12.238  0.00  0.00    +0.000 A 
ATOM      6  C   UNL     1      45.179   6.138  11.566  0.00  0.00    +0.000 A 
ATOM      7  C   UNL     1      45.152   7.537  11.553  0.00  0.00    +0.000 A 
ATOM      8  C   UNL     1      46.126   8.272  12.229  0.00  0.00    +0.000 A 
BRANCH   6   9
ATOM      9  C   UNL     1      44.084   5.348  10.883  0.00  0.00    +0.000 C 
BRANCH   9  10
ATOM     10  C   UNL     1      44.565   4.244   9.973  0.00  0.00    +0.000 A 
ATOM     11  C   UNL     1      45.327   4.523   8.833  0.00  0.00    +0.000 A 
ATOM     12  C   UNL     1      45.692   3.490   7.970  0.00  0.00    +0.000 A 
ATOM     13  C   UNL     1      45.288   2.202   8.277  0.00  0.00    +0.000 A 
ATOM     14  N   UNL     1      44.559   1.889   9.368  0.00  0.00    +0.000 NA
ATOM     15  C   UNL     1      44.215   2.913  10.183  0.00  0.00    +0.000 A 
ENDBRANCH   9  10
ENDBRANCH   6   9
ENDBRANCH   2   3
BRANCH   2  16
ATOM     16  N   UNL     1      47.986   8.131  15.164  0.00  0.00    +0.000 N 
ATOM     17  C   UNL     1      49.027   7.831  16.006  0.00  0.00    +0.000 C 
ATOM     18  O   UNL     1      50.199   7.834  15.643  0.00  0.00    +0.000 OA
ATOM     19  H   UNL     1      47.062   7.803  15.428  0.00  0.00    +0.000 HD
BRANCH  17  20
ATOM     20  C   UNL     1      48.671   7.572  17.406  0.00  0.00    +0.000 A 
ATOM     21  C   UNL     1      48.240   8.619  18.212  0.00  0.00    +0.000 A 
ATOM     22  S   UNL     1      47.873   8.144  19.809  0.00  0.00    +0.000 S 
ATOM     23  C   UNL     1      48.310   6.530  19.488  0.00  0.00    +0.000 A 
ATOM     24  N   UNL     1      48.271   5.585  20.463  0.00  0.00    +0.000 NA
ATOM     25  C   UNL     1      48.654   4.411  20.082  0.00  0.00    +0.000 A 
ATOM     26  N   UNL     1      49.059   4.096  18.810  0.00  0.00    +0.000 N 
ATOM     27  C   UNL     1      49.079   5.012  17.782  0.00  0.00    +0.000 A 
ATOM     28  O   UNL     1      49.382   4.685  16.643  0.00  0.00    +0.000 OA
ATOM     29  C   UNL     1      48.693   6.350  18.170  0.00  0.00    +0.000 A 
ATOM     30  H   UNL     1      49.320   3.149  18.570  0.00  0.00    +0.000 HD
ENDBRANCH  17  20
ENDBRANCH   2  16
TORSDOF 5
ENDMDL
