MODEL 1
REMARK VINA RESULT:    -7.942      0.000      0.000
REMARK INTER + INTRA:         -13.824
REMARK INTER:                 -12.353
REMARK INTRA:                  -1.471
REMARK UNBOUND:                -1.471
REMARK  Name = 
REMARK  10 active torsions:
REMARK  status: ('A' for Active; 'I' for Inactive)
REMARK    1  A    between atoms: N_1  and  C_2
REMARK    2  A    between atoms: C_2  and  C_3
REMARK    3  A    between atoms: C_3  and  C_4
REMARK    4  A    between atoms: C_4  and  N_5
REMARK    5  A    between atoms: C_4  and  C_27
REMARK    6  A    between atoms: N_5  and  C_6
REMARK    7  A    between atoms: C_6  and  C_7
REMARK    8  A    between atoms: C_10  and  C_11
REMARK    9  A    between atoms: C_11  and  N_12
REMARK   10  A    between atoms: C_13  and  C_15
REMARK                            x       y       z     vdW  Elec       q    Type
REMARK                         _______ _______ _______ _____ _____    ______ ____
ROOT
ATOM      1  C   UNL     1      46.855   4.441  14.099  0.00  0.00    +0.000 A 
ATOM      2  C   UNL     1      47.482   5.660  13.861  0.00  0.00    +0.000 A 
ATOM      3  C   UNL     1      48.207   6.259  14.870  0.00  0.00    +0.000 A 
ATOM      4  C   UNL     1      48.265   5.636  16.117  0.00  0.00    +0.000 A 
ATOM      5  C   UNL     1      47.581   4.433  16.271  0.00  0.00    +0.000 A 
ATOM      6  N   UNL     1      46.872   3.819  15.298  0.00  0.00    +0.000 NA
ENDROOT
BRANCH   1   7
ATOM      7  C   UNL     1      45.992   3.897  12.990  0.00  0.00    +0.000 C 
BRANCH   7   8
ATOM      8  N   UNL     1      45.659   4.737  11.851  0.00  0.00    +0.000 NA
ATOM      9  H   UNL     1      46.487   4.901  11.293  0.00  0.00    +0.000 HD
BRANCH   8  10
ATOM     10  C   UNL     1      44.514   4.309  11.006  0.00  0.00    +0.000 C 
BRANCH  10  11
ATOM     11  C   UNL     1      45.097   3.781   9.691  0.00  0.00    +0.000 A 
ATOM     12  C   UNL     1      45.195   2.407   9.481  0.00  0.00    +0.000 A 
ATOM     13  C   UNL     1      45.787   1.946   8.310  0.00  0.00    +0.000 A 
ATOM     14  C   UNL     1      46.283   2.862   7.391  0.00  0.00    +0.000 A 
ATOM     15  C   UNL     1      46.162   4.209   7.679  0.00  0.00    +0.000 A 
ATOM     16  N   UNL     1      45.587   4.687   8.802  0.00  0.00    +0.000 NA
ENDBRANCH  10  11
BRANCH  10  17
ATOM     17  C   UNL     1      43.332   5.288  10.704  0.00  0.00    +0.000 C 
BRANCH  17  18
ATOM     18  C   UNL     1      42.343   5.536  11.875  0.00  0.00    +0.000 C 
BRANCH  18  19
ATOM     19  N   UNL     1      42.820   5.611  13.261  0.00  0.00    +0.000 NA
ATOM     20  H   UNL     1      43.385   6.467  13.317  0.00  0.00    +0.000 HD
ATOM     21  H   UNL     1      43.507   4.870  13.400  0.00  0.00    +0.000 HD
ENDBRANCH  18  19
ENDBRANCH  17  18
ENDBRANCH  10  17
ENDBRANCH   8  10
ENDBRANCH   7   8
ENDBRANCH   1   7
BRANCH   4  22
ATOM     22  C   UNL     1      49.019   6.210  17.275  0.00  0.00    +0.000 C 
BRANCH  22  23
ATOM     23  N   UNL     1      50.034   5.319  17.780  0.00  0.00    +0.000 N 
ATOM     24  C   UNL     1      51.294   5.328  17.225  0.00  0.00    +0.000 C 
ATOM     25  O   UNL     1      51.616   6.074  16.324  0.00  0.00    +0.000 OA
ATOM     26  H   UNL     1      49.721   4.449  18.191  0.00  0.00    +0.000 HD
BRANCH  24  27
ATOM     27  C   UNL     1      52.243   4.388  17.840  0.00  0.00    +0.000 A 
ATOM     28  C   UNL     1      53.352   4.879  18.510  0.00  0.00    +0.000 A 
ATOM     29  S   UNL     1      54.360   3.650  19.131  0.00  0.00    +0.000 S 
ATOM     30  C   UNL     1      53.361   2.425  18.500  0.00  0.00    +0.000 A 
ATOM     31  N   UNL     1      53.681   1.114  18.639  0.00  0.00    +0.000 NA
ATOM     32  C   UNL     1      52.840   0.294  18.092  0.00  0.00    +0.000 A 
ATOM     33  N   UNL     1      51.698   0.677  17.430  0.00  0.00    +0.000 N 
ATOM     34  C   UNL     1      51.311   1.983  17.325  0.00  0.00    +0.000 A 
ATOM     35  O   UNL     1      50.212   2.295  16.827  0.00  0.00    +0.000 OA
ATOM     36  C   UNL     1      52.242   2.946  17.867  0.00  0.00    +0.000 A 
ATOM     37  H   UNL     1      51.058  -0.017  17.068  0.00  0.00    +0.000 HD
ENDBRANCH  24  27
ENDBRANCH  22  23
ENDBRANCH   4  22
TORSDOF 10
ENDMDL
MODEL 2
REMARK VINA RESULT:    -7.740      2.848      3.781
REMARK INTER + INTRA:         -13.510
REMARK INTER:                 -12.287
REMARK INTRA:                  -1.223
REMARK UNBOUND:                -1.471
REMARK  Name = 
REMARK  10 active torsions:
REMARK  status: ('A' for Active; 'I' for Inactive)
REMARK    1  A    between atoms: N_1  and  C_2
REMARK    2  A    between atoms: C_2  and  C_3
REMARK    3  A    between atoms: C_3  and  C_4
REMARK    4  A    between atoms: C_4  and  N_5
REMARK    5  A    between atoms: C_4  and  C_27
REMARK    6  A    between atoms: N_5  and  C_6
REMARK    7  A    between atoms: C_6  and  C_7
REMARK    8  A    between atoms: C_10  and  C_11
REMARK    9  A    between atoms: C_11  and  N_12
REMARK   10  A    between atoms: C_13  and  C_15
REMARK                            x       y       z     vdW  Elec       q    Type
REMARK                         _______ _______ _______ _____ _____    ______ ____
ROOT
ATOM      1  C   UNL     1      44.775   6.363  11.201  0.00  0.00    +0.000 A 
ATOM      2  C   UNL     1      44.602   7.726  11.417  0.00  0.00    +0.000 A 
ATOM      3  C   UNL     1      45.507   8.408  12.204  0.00  0.00    +0.000 A 
ATOM      4  C   UNL     1      46.558   7.700  12.788  0.00  0.00    +0.000 A 
ATOM      5  C   UNL     1      46.631   6.332  12.540  0.00  0.00    +0.000 A 
ATOM      6  N   UNL     1      45.766   5.641  11.766  0.00  0.00    +0.000 NA
ENDROOT
BRANCH   1   7
ATOM      7  C   UNL     1      43.692   5.661  10.422  0.00  0.00    +0.000 C 
BRANCH   7   8
ATOM      8  N   UNL     1      44.046   4.718   9.374  0.00  0.00    +0.000 NA
ATOM      9  H   UNL     1      44.508   5.205   8.617  0.00  0.00    +0.000 HD
BRANCH   8  10
ATOM     10  C   UNL     1      44.808   3.508   9.781  0.00  0.00    +0.000 C 
BRANCH  10  11
ATOM     11  C   UNL     1      45.593   3.035   8.553  0.00  0.00    +0.000 A 
ATOM     12  C   UNL     1      46.004   1.707   8.466  0.00  0.00    +0.000 A 
ATOM     13  C   UNL     1      46.772   1.310   7.376  0.00  0.00    +0.000 A 
ATOM     14  C   UNL     1      47.127   2.249   6.415  0.00  0.00    +0.000 A 
ATOM     15  C   UNL     1      46.692   3.552   6.581  0.00  0.00    +0.000 A 
ATOM     16  N   UNL     1      45.941   3.964   7.622  0.00  0.00    +0.000 NA
ENDBRANCH  10  11
BRANCH  10  17
ATOM     17  C   UNL     1      44.082   2.291  10.444  0.00  0.00    +0.000 C 
BRANCH  17  18
ATOM     18  C   UNL     1      43.414   2.569  11.819  0.00  0.00    +0.000 C 
BRANCH  18  19
ATOM     19  N   UNL     1      44.178   3.164  12.921  0.00  0.00    +0.000 NA
ATOM     20  H   UNL     1      44.483   2.377  13.507  0.00  0.00    +0.000 HD
ATOM     21  H   UNL     1      43.526   3.664  13.525  0.00  0.00    +0.000 HD
ENDBRANCH  18  19
ENDBRANCH  17  18
ENDBRANCH  10  17
ENDBRANCH   8  10
ENDBRANCH   7   8
ENDBRANCH   1   7
BRANCH   4  22
ATOM     22  C   UNL     1      47.585   8.348  13.663  0.00  0.00    +0.000 C 
BRANCH  22  23
ATOM     23  N   UNL     1      47.854   7.597  14.863  0.00  0.00    +0.000 N 
ATOM     24  C   UNL     1      49.088   7.014  15.046  0.00  0.00    +0.000 C 
ATOM     25  O   UNL     1      49.993   7.112  14.244  0.00  0.00    +0.000 OA
ATOM     26  H   UNL     1      47.066   7.151  15.315  0.00  0.00    +0.000 HD
BRANCH  24  27
ATOM     27  C   UNL     1      49.243   6.291  16.317  0.00  0.00    +0.000 A 
ATOM     28  C   UNL     1      50.175   6.734  17.243  0.00  0.00    +0.000 A 
ATOM     29  S   UNL     1      50.245   5.760  18.644  0.00  0.00    +0.000 S 
ATOM     30  C   UNL     1      49.053   4.703  18.044  0.00  0.00    +0.000 A 
ATOM     31  N   UNL     1      48.668   3.606  18.743  0.00  0.00    +0.000 NA
ATOM     32  C   UNL     1      47.768   2.883  18.156  0.00  0.00    +0.000 A 
ATOM     33  N   UNL     1      47.210   3.173  16.934  0.00  0.00    +0.000 N 
ATOM     34  C   UNL     1      47.526   4.301  16.231  0.00  0.00    +0.000 A 
ATOM     35  O   UNL     1      46.919   4.604  15.186  0.00  0.00    +0.000 OA
ATOM     36  C   UNL     1      48.569   5.117  16.811  0.00  0.00    +0.000 A 
ATOM     37  H   UNL     1      46.475   2.593  16.555  0.00  0.00    +0.000 HD
ENDBRANCH  24  27
ENDBRANCH  22  23
ENDBRANCH   4  22
TORSDOF 10
ENDMDL
MODEL 3
REMARK VINA RESULT:    -7.183      3.133      4.028
REMARK INTER + INTRA:         -12.643
REMARK INTER:                 -11.070
REMARK INTRA:                  -1.573
REMARK UNBOUND:                -1.471
REMARK  Name = 
REMARK  10 active torsions:
REMARK  status: ('A' for Active; 'I' for Inactive)
REMARK    1  A    between atoms: N_1  and  C_2
REMARK    2  A    between atoms: C_2  and  C_3
REMARK    3  A    between atoms: C_3  and  C_4
REMARK    4  A    between atoms: C_4  and  N_5
REMARK    5  A    between atoms: C_4  and  C_27
REMARK    6  A    between atoms: N_5  and  C_6
REMARK    7  A    between atoms: C_6  and  C_7
REMARK    8  A    between atoms: C_10  and  C_11
REMARK    9  A    between atoms: C_11  and  N_12
REMARK   10  A    between atoms: C_13  and  C_15
REMARK                            x       y       z     vdW  Elec       q    Type
REMARK                         _______ _______ _______ _____ _____    ______ ____
ROOT
ATOM      1  C   UNL     1      45.810   6.020  11.597  0.00  0.00    +0.000 A 
ATOM      2  C   UNL     1      46.765   6.940  11.178  0.00  0.00    +0.000 A 
ATOM      3  C   UNL     1      47.838   7.225  11.996  0.00  0.00    +0.000 A 
ATOM      4  C   UNL     1      47.920   6.599  13.240  0.00  0.00    +0.000 A 
ATOM      5  C   UNL     1      46.901   5.715  13.587  0.00  0.00    +0.000 A 
ATOM      6  N   UNL     1      45.845   5.411  12.802  0.00  0.00    +0.000 NA
ENDROOT
BRANCH   1   7
ATOM      7  C   UNL     1      44.609   5.838  10.704  0.00  0.00    +0.000 C 
BRANCH   7   8
ATOM      8  N   UNL     1      44.677   4.926   9.574  0.00  0.00    +0.000 NA
ATOM      9  H   UNL     1      45.272   5.316   8.854  0.00  0.00    +0.000 HD
BRANCH   8  10
ATOM     10  C   UNL     1      45.035   3.514   9.865  0.00  0.00    +0.000 C 
BRANCH  10  11
ATOM     11  C   UNL     1      45.817   2.989   8.656  0.00  0.00    +0.000 A 
ATOM     12  C   UNL     1      46.159   3.861   7.623  0.00  0.00    +0.000 A 
ATOM     13  C   UNL     1      46.811   3.354   6.504  0.00  0.00    +0.000 A 
ATOM     14  C   UNL     1      47.085   1.994   6.432  0.00  0.00    +0.000 A 
ATOM     15  C   UNL     1      46.699   1.192   7.490  0.00  0.00    +0.000 A 
ATOM     16  N   UNL     1      46.073   1.654   8.592  0.00  0.00    +0.000 NA
ENDBRANCH  10  11
BRANCH  10  17
ATOM     17  C   UNL     1      43.937   2.477  10.273  0.00  0.00    +0.000 C 
BRANCH  17  18
ATOM     18  C   UNL     1      43.353   2.639  11.704  0.00  0.00    +0.000 C 
BRANCH  18  19
ATOM     19  N   UNL     1      44.233   2.865  12.856  0.00  0.00    +0.000 NA
ATOM     20  H   UNL     1      43.622   3.183  13.617  0.00  0.00    +0.000 HD
ATOM     21  H   UNL     1      44.806   3.687  12.659  0.00  0.00    +0.000 HD
ENDBRANCH  18  19
ENDBRANCH  17  18
ENDBRANCH  10  17
ENDBRANCH   8  10
ENDBRANCH   7   8
ENDBRANCH   1   7
BRANCH   4  22
ATOM     22  C   UNL     1      49.041   6.847  14.200  0.00  0.00    +0.000 C 
BRANCH  22  23
ATOM     23  N   UNL     1      48.636   6.725  15.578  0.00  0.00    +0.000 N 
ATOM     24  C   UNL     1      49.118   7.610  16.516  0.00  0.00    +0.000 C 
ATOM     25  O   UNL     1      49.869   8.523  16.242  0.00  0.00    +0.000 OA
ATOM     26  H   UNL     1      48.388   5.800  15.906  0.00  0.00    +0.000 HD
BRANCH  24  27
ATOM     27  C   UNL     1      48.616   7.392  17.882  0.00  0.00    +0.000 A 
ATOM     28  C   UNL     1      47.968   8.423  18.543  0.00  0.00    +0.000 A 
ATOM     29  S   UNL     1      47.483   8.007  20.125  0.00  0.00    +0.000 S 
ATOM     30  C   UNL     1      48.147   6.445  19.985  0.00  0.00    +0.000 A 
ATOM     31  N   UNL     1      48.115   5.571  21.022  0.00  0.00    +0.000 NA
ATOM     32  C   UNL     1      48.675   4.428  20.779  0.00  0.00    +0.000 A 
ATOM     33  N   UNL     1      49.253   4.083  19.580  0.00  0.00    +0.000 N 
ATOM     34  C   UNL     1      49.249   4.914  18.496  0.00  0.00    +0.000 A 
ATOM     35  O   UNL     1      49.671   4.533  17.386  0.00  0.00    +0.000 OA
ATOM     36  C   UNL     1      48.688   6.226  18.726  0.00  0.00    +0.000 A 
ATOM     37  H   UNL     1      49.630   3.156  19.441  0.00  0.00    +0.000 HD
ENDBRANCH  24  27
ENDBRANCH  22  23
ENDBRANCH   4  22
TORSDOF 10
ENDMDL
MODEL 4
REMARK VINA RESULT:    -6.924      3.717      9.381
REMARK INTER + INTRA:         -12.241
REMARK INTER:                 -10.671
REMARK INTRA:                  -1.570
REMARK UNBOUND:                -1.471
REMARK  Name = 
REMARK  10 active torsions:
REMARK  status: ('A' for Active; 'I' for Inactive)
REMARK    1  A    between atoms: N_1  and  C_2
REMARK    2  A    between atoms: C_2  and  C_3
REMARK    3  A    between atoms: C_3  and  C_4
REMARK    4  A    between atoms: C_4  and  N_5
REMARK    5  A    between atoms: C_4  and  C_27
REMARK    6  A    between atoms: N_5  and  C_6
REMARK    7  A    between atoms: C_6  and  C_7
REMARK    8  A    between atoms: C_10  and  C_11
REMARK    9  A    between atoms: C_11  and  N_12
REMARK   10  A    between atoms: C_13  and  C_15
REMARK                            x       y       z     vdW  Elec       q    Type
REMARK                         _______ _______ _______ _____ _____    ______ ____
ROOT
ATOM      1  C   UNL     1      50.304   7.317  15.102  0.00  0.00    +0.000 A 
ATOM      2  C   UNL     1      50.733   8.056  14.004  0.00  0.00    +0.000 A 
ATOM      3  C   UNL     1      49.897   8.203  12.916  0.00  0.00    +0.000 A 
ATOM      4  C   UNL     1      48.650   7.577  12.937  0.00  0.00    +0.000 A 
ATOM      5  C   UNL     1      48.320   6.833  14.067  0.00  0.00    +0.000 A 
ATOM      6  N   UNL     1      49.114   6.681  15.149  0.00  0.00    +0.000 NA
ENDROOT
BRANCH   1   7
ATOM      7  C   UNL     1      51.306   7.106  16.208  0.00  0.00    +0.000 C 
BRANCH   7   8
ATOM      8  N   UNL     1      50.874   6.567  17.486  0.00  0.00    +0.000 NA
ATOM      9  H   UNL     1      49.893   6.771  17.630  0.00  0.00    +0.000 HD
BRANCH   8  10
ATOM     10  C   UNL     1      51.172   5.136  17.753  0.00  0.00    +0.000 C 
BRANCH  10  11
ATOM     11  C   UNL     1      49.870   4.357  17.539  0.00  0.00    +0.000 A 
ATOM     12  C   UNL     1      48.674   4.856  18.053  0.00  0.00    +0.000 A 
ATOM     13  C   UNL     1      47.514   4.104  17.907  0.00  0.00    +0.000 A 
ATOM     14  C   UNL     1      47.577   2.869  17.274  0.00  0.00    +0.000 A 
ATOM     15  C   UNL     1      48.804   2.436  16.806  0.00  0.00    +0.000 A 
ATOM     16  N   UNL     1      49.945   3.145  16.926  0.00  0.00    +0.000 NA
ENDBRANCH  10  11
BRANCH  10  17
ATOM     17  C   UNL     1      51.837   4.694  19.098  0.00  0.00    +0.000 C 
BRANCH  17  18
ATOM     18  C   UNL     1      52.896   3.562  18.990  0.00  0.00    +0.000 C 
BRANCH  18  19
ATOM     19  N   UNL     1      52.521   2.222  18.526  0.00  0.00    +0.000 NA
ATOM     20  H   UNL     1      52.012   2.362  17.645  0.00  0.00    +0.000 HD
ATOM     21  H   UNL     1      51.803   1.859  19.153  0.00  0.00    +0.000 HD
ENDBRANCH  18  19
ENDBRANCH  17  18
ENDBRANCH  10  17
ENDBRANCH   8  10
ENDBRANCH   7   8
ENDBRANCH   1   7
BRANCH   4  22
ATOM     22  C   UNL     1      47.677   7.671  11.804  0.00  0.00    +0.000 C 
BRANCH  22  23
ATOM     23  N   UNL     1      46.921   6.459  11.613  0.00  0.00    +0.000 N 
ATOM     24  C   UNL     1      45.548   6.483  11.715  0.00  0.00    +0.000 C 
ATOM     25  O   UNL     1      44.918   7.494  11.945  0.00  0.00    +0.000 OA
ATOM     26  H   UNL     1      47.382   5.587  11.839  0.00  0.00    +0.000 HD
BRANCH  24  27
ATOM     27  C   UNL     1      44.893   5.187  11.480  0.00  0.00    +0.000 A 
ATOM     28  C   UNL     1      44.132   4.616  12.487  0.00  0.00    +0.000 A 
ATOM     29  S   UNL     1      43.473   3.102  12.056  0.00  0.00    +0.000 S 
ATOM     30  C   UNL     1      44.207   3.150  10.520  0.00  0.00    +0.000 A 
ATOM     31  N   UNL     1      44.081   2.120   9.647  0.00  0.00    +0.000 NA
ATOM     32  C   UNL     1      44.708   2.287   8.525  0.00  0.00    +0.000 A 
ATOM     33  N   UNL     1      45.440   3.404   8.200  0.00  0.00    +0.000 N 
ATOM     34  C   UNL     1      45.537   4.486   9.029  0.00  0.00    +0.000 A 
ATOM     35  O   UNL     1      46.104   5.533   8.662  0.00  0.00    +0.000 OA
ATOM     36  C   UNL     1      44.905   4.333  10.319  0.00  0.00    +0.000 A 
ATOM     37  H   UNL     1      45.865   3.491   7.288  0.00  0.00    +0.000 HD
ENDBRANCH  24  27
ENDBRANCH  22  23
ENDBRANCH   4  22
TORSDOF 10
ENDMDL
MODEL 5
REMARK VINA RESULT:    -6.873      3.109      9.883
REMARK INTER + INTRA:         -12.162
REMARK INTER:                 -10.504
REMARK INTRA:                  -1.658
REMARK UNBOUND:                -1.471
REMARK  Name = 
REMARK  10 active torsions:
REMARK  status: ('A' for Active; 'I' for Inactive)
REMARK    1  A    between atoms: N_1  and  C_2
REMARK    2  A    between atoms: C_2  and  C_3
REMARK    3  A    between atoms: C_3  and  C_4
REMARK    4  A    between atoms: C_4  and  N_5
REMARK    5  A    between atoms: C_4  and  C_27
REMARK    6  A    between atoms: N_5  and  C_6
REMARK    7  A    between atoms: C_6  and  C_7
REMARK    8  A    between atoms: C_10  and  C_11
REMARK    9  A    between atoms: C_11  and  N_12
REMARK   10  A    between atoms: C_13  and  C_15
REMARK                            x       y       z     vdW  Elec       q    Type
REMARK                         _______ _______ _______ _____ _____    ______ ____
ROOT
ATOM      1  C   UNL     1      51.010   2.307  17.405  0.00  0.00    +0.000 A 
ATOM      2  C   UNL     1      49.653   2.140  17.145  0.00  0.00    +0.000 A 
ATOM      3  C   UNL     1      48.845   3.252  17.018  0.00  0.00    +0.000 A 
ATOM      4  C   UNL     1      49.410   4.516  17.183  0.00  0.00    +0.000 A 
ATOM      5  C   UNL     1      50.771   4.583  17.471  0.00  0.00    +0.000 A 
ATOM      6  N   UNL     1      51.587   3.514  17.592  0.00  0.00    +0.000 NA
ENDROOT
BRANCH   1   7
ATOM      7  C   UNL     1      51.811   1.053  17.640  0.00  0.00    +0.000 C 
BRANCH   7   8
ATOM      8  N   UNL     1      52.992   1.094  18.487  0.00  0.00    +0.000 NA
ATOM      9  H   UNL     1      52.934   0.370  19.192  0.00  0.00    +0.000 HD
BRANCH   8  10
ATOM     10  C   UNL     1      54.314   1.081  17.808  0.00  0.00    +0.000 C 
BRANCH  10  11
ATOM     11  C   UNL     1      54.638  -0.381  17.482  0.00  0.00    +0.000 A 
ATOM     12  C   UNL     1      54.978  -0.739  16.178  0.00  0.00    +0.000 A 
ATOM     13  C   UNL     1      55.206  -2.080  15.887  0.00  0.00    +0.000 A 
ATOM     14  C   UNL     1      55.068  -3.028  16.892  0.00  0.00    +0.000 A 
ATOM     15  C   UNL     1      54.712  -2.595  18.157  0.00  0.00    +0.000 A 
ATOM     16  N   UNL     1      54.493  -1.303  18.472  0.00  0.00    +0.000 NA
ENDBRANCH  10  11
BRANCH  10  17
ATOM     17  C   UNL     1      55.558   1.764  18.464  0.00  0.00    +0.000 C 
BRANCH  17  18
ATOM     18  C   UNL     1      55.530   1.875  20.014  0.00  0.00    +0.000 C 
BRANCH  18  19
ATOM     19  N   UNL     1      55.050   0.761  20.840  0.00  0.00    +0.000 NA
ATOM     20  H   UNL     1      55.458   0.907  21.771  0.00  0.00    +0.000 HD
ATOM     21  H   UNL     1      55.506  -0.092  20.517  0.00  0.00    +0.000 HD
ENDBRANCH  18  19
ENDBRANCH  17  18
ENDBRANCH  10  17
ENDBRANCH   8  10
ENDBRANCH   7   8
ENDBRANCH   1   7
BRANCH   4  22
ATOM     22  C   UNL     1      48.616   5.780  17.071  0.00  0.00    +0.000 C 
BRANCH  22  23
ATOM     23  N   UNL     1      47.733   5.787  15.931  0.00  0.00    +0.000 N 
ATOM     24  C   UNL     1      48.191   6.232  14.712  0.00  0.00    +0.000 C 
ATOM     25  O   UNL     1      49.329   6.612  14.529  0.00  0.00    +0.000 OA
ATOM     26  H   UNL     1      46.744   5.892  16.115  0.00  0.00    +0.000 HD
BRANCH  24  27
ATOM     27  C   UNL     1      47.201   6.173  13.625  0.00  0.00    +0.000 A 
ATOM     28  C   UNL     1      46.821   7.342  12.985  0.00  0.00    +0.000 A 
ATOM     29  S   UNL     1      45.643   7.093  11.776  0.00  0.00    +0.000 S 
ATOM     30  C   UNL     1      45.584   5.421  12.089  0.00  0.00    +0.000 A 
ATOM     31  N   UNL     1      44.729   4.609  11.419  0.00  0.00    +0.000 NA
ATOM     32  C   UNL     1      44.780   3.364  11.775  0.00  0.00    +0.000 A 
ATOM     33  N   UNL     1      45.625   2.862  12.736  0.00  0.00    +0.000 N 
ATOM     34  C   UNL     1      46.543   3.638  13.386  0.00  0.00    +0.000 A 
ATOM     35  O   UNL     1      47.379   3.139  14.163  0.00  0.00    +0.000 OA
ATOM     36  C   UNL     1      46.492   5.048  13.070  0.00  0.00    +0.000 A 
ATOM     37  H   UNL     1      45.649   1.871  12.932  0.00  0.00    +0.000 HD
ENDBRANCH  24  27
ENDBRANCH  22  23
ENDBRANCH   4  22
TORSDOF 10
ENDMDL
MODEL 6
REMARK VINA RESULT:    -6.743      3.860      8.841
REMARK INTER + INTRA:         -11.959
REMARK INTER:                 -10.562
REMARK INTRA:                  -1.397
REMARK UNBOUND:                -1.471
REMARK  Name = 
REMARK  10 active torsions:
REMARK  status: ('A' for Active; 'I' for Inactive)
REMARK    1  A    between atoms: N_1  and  C_2
REMARK    2  A    between atoms: C_2  and  C_3
REMARK    3  A    between atoms: C_3  and  C_4
REMARK    4  A    between atoms: C_4  and  N_5
REMARK    5  A    between atoms: C_4  and  C_27
REMARK    6  A    between atoms: N_5  and  C_6
REMARK    7  A    between atoms: C_6  and  C_7
REMARK    8  A    between atoms: C_10  and  C_11
REMARK    9  A    between atoms: C_11  and  N_12
REMARK   10  A    between atoms: C_13  and  C_15
REMARK                            x       y       z     vdW  Elec       q    Type
REMARK                         _______ _______ _______ _____ _____    ______ ____
ROOT
ATOM      1  C   UNL     1      49.932   6.769  15.895  0.00  0.00    +0.000 A 
ATOM      2  C   UNL     1      50.705   7.611  15.101  0.00  0.00    +0.000 A 
ATOM      3  C   UNL     1      50.233   7.997  13.863  0.00  0.00    +0.000 A 
ATOM      4  C   UNL     1      49.002   7.506  13.429  0.00  0.00    +0.000 A 
ATOM      5  C   UNL     1      48.313   6.645  14.281  0.00  0.00    +0.000 A 
ATOM      6  N   UNL     1      48.746   6.258  15.501  0.00  0.00    +0.000 NA
ENDROOT
BRANCH   1   7
ATOM      7  C   UNL     1      50.554   6.300  17.186  0.00  0.00    +0.000 C 
BRANCH   7   8
ATOM      8  N   UNL     1      49.802   6.389  18.427  0.00  0.00    +0.000 NA
ATOM      9  H   UNL     1      48.873   6.744  18.241  0.00  0.00    +0.000 HD
BRANCH   8  10
ATOM     10  C   UNL     1      49.754   5.171  19.277  0.00  0.00    +0.000 C 
BRANCH  10  11
ATOM     11  C   UNL     1      49.633   3.968  18.336  0.00  0.00    +0.000 A 
ATOM     12  C   UNL     1      50.766   3.221  18.020  0.00  0.00    +0.000 A 
ATOM     13  C   UNL     1      50.650   2.173  17.113  0.00  0.00    +0.000 A 
ATOM     14  C   UNL     1      49.417   1.911  16.529  0.00  0.00    +0.000 A 
ATOM     15  C   UNL     1      48.343   2.708  16.882  0.00  0.00    +0.000 A 
ATOM     16  N   UNL     1      48.422   3.726  17.764  0.00  0.00    +0.000 NA
ENDBRANCH  10  11
BRANCH  10  17
ATOM     17  C   UNL     1      48.708   5.043  20.434  0.00  0.00    +0.000 C 
BRANCH  17  18
ATOM     18  C   UNL     1      47.390   5.844  20.245  0.00  0.00    +0.000 C 
BRANCH  18  19
ATOM     19  N   UNL     1      46.641   5.775  18.985  0.00  0.00    +0.000 NA
ATOM     20  H   UNL     1      46.679   6.720  18.585  0.00  0.00    +0.000 HD
ATOM     21  H   UNL     1      45.653   5.658  19.211  0.00  0.00    +0.000 HD
ENDBRANCH  18  19
ENDBRANCH  17  18
ENDBRANCH  10  17
ENDBRANCH   8  10
ENDBRANCH   7   8
ENDBRANCH   1   7
BRANCH   4  22
ATOM     22  C   UNL     1      48.410   7.861  12.102  0.00  0.00    +0.000 C 
BRANCH  22  23
ATOM     23  N   UNL     1      47.691   6.767  11.498  0.00  0.00    +0.000 N 
ATOM     24  C   UNL     1      46.319   6.825  11.387  0.00  0.00    +0.000 C 
ATOM     25  O   UNL     1      45.664   7.776  11.760  0.00  0.00    +0.000 OA
ATOM     26  H   UNL     1      48.105   5.847  11.570  0.00  0.00    +0.000 HD
BRANCH  24  27
ATOM     27  C   UNL     1      45.706   5.657  10.737  0.00  0.00    +0.000 A 
ATOM     28  C   UNL     1      45.807   5.510   9.363  0.00  0.00    +0.000 A 
ATOM     29  S   UNL     1      45.011   4.120   8.775  0.00  0.00    +0.000 S 
ATOM     30  C   UNL     1      44.484   3.686  10.335  0.00  0.00    +0.000 A 
ATOM     31  N   UNL     1      43.702   2.597  10.536  0.00  0.00    +0.000 NA
ATOM     32  C   UNL     1      43.361   2.400  11.771  0.00  0.00    +0.000 A 
ATOM     33  N   UNL     1      43.749   3.195  12.822  0.00  0.00    +0.000 N 
ATOM     34  C   UNL     1      44.587   4.263  12.666  0.00  0.00    +0.000 A 
ATOM     35  O   UNL     1      45.022   4.895  13.649  0.00  0.00    +0.000 OA
ATOM     36  C   UNL     1      44.954   4.565  11.301  0.00  0.00    +0.000 A 
ATOM     37  H   UNL     1      43.488   2.958  13.768  0.00  0.00    +0.000 HD
ENDBRANCH  24  27
ENDBRANCH  22  23
ENDBRANCH   4  22
TORSDOF 10
ENDMDL
MODEL 7
REMARK VINA RESULT:    -6.707      2.832      3.202
REMARK INTER + INTRA:         -11.903
REMARK INTER:                 -10.683
REMARK INTRA:                  -1.220
REMARK UNBOUND:                -1.471
REMARK  Name = 
REMARK  10 active torsions:
REMARK  status: ('A' for Active; 'I' for Inactive)
REMARK    1  A    between atoms: N_1  and  C_2
REMARK    2  A    between atoms: C_2  and  C_3
REMARK    3  A    between atoms: C_3  and  C_4
REMARK    4  A    between atoms: C_4  and  N_5
REMARK    5  A    between atoms: C_4  and  C_27
REMARK    6  A    between atoms: N_5  and  C_6
REMARK    7  A    between atoms: C_6  and  C_7
REMARK    8  A    between atoms: C_10  and  C_11
REMARK    9  A    between atoms: C_11  and  N_12
REMARK   10  A    between atoms: C_13  and  C_15
REMARK                            x       y       z     vdW  Elec       q    Type
REMARK                         _______ _______ _______ _____ _____    ______ ____
ROOT
ATOM      1  C   UNL     1      46.338   7.417  12.264  0.00  0.00    +0.000 A 
ATOM      2  C   UNL     1      47.455   6.683  11.879  0.00  0.00    +0.000 A 
ATOM      3  C   UNL     1      48.661   6.901  12.513  0.00  0.00    +0.000 A 
ATOM      4  C   UNL     1      48.732   7.878  13.506  0.00  0.00    +0.000 A 
ATOM      5  C   UNL     1      47.568   8.583  13.802  0.00  0.00    +0.000 A 
ATOM      6  N   UNL     1      46.373   8.384  13.205  0.00  0.00    +0.000 NA
ENDROOT
BRANCH   1   7
ATOM      7  C   UNL     1      45.081   7.206  11.458  0.00  0.00    +0.000 C 
BRANCH   7   8
ATOM      8  N   UNL     1      45.081   6.269  10.346  0.00  0.00    +0.000 NA
ATOM      9  H   UNL     1      45.942   6.361   9.821  0.00  0.00    +0.000 HD
BRANCH   8  10
ATOM     10  C   UNL     1      44.788   4.847  10.659  0.00  0.00    +0.000 C 
BRANCH  10  11
ATOM     11  C   UNL     1      45.294   4.012   9.478  0.00  0.00    +0.000 A 
ATOM     12  C   UNL     1      45.243   2.620   9.544  0.00  0.00    +0.000 A 
ATOM     13  C   UNL     1      45.767   1.878   8.491  0.00  0.00    +0.000 A 
ATOM     14  C   UNL     1      46.345   2.537   7.414  0.00  0.00    +0.000 A 
ATOM     15  C   UNL     1      46.372   3.920   7.430  0.00  0.00    +0.000 A 
ATOM     16  N   UNL     1      45.866   4.667   8.432  0.00  0.00    +0.000 NA
ENDBRANCH  10  11
BRANCH  10  17
ATOM     17  C   UNL     1      43.341   4.393  11.044  0.00  0.00    +0.000 C 
BRANCH  17  18
ATOM     18  C   UNL     1      43.065   4.231  12.564  0.00  0.00    +0.000 C 
BRANCH  18  19
ATOM     19  N   UNL     1      42.663   5.381  13.383  0.00  0.00    +0.000 NA
ATOM     20  H   UNL     1      41.870   5.811  12.892  0.00  0.00    +0.000 HD
ATOM     21  H   UNL     1      43.392   6.090  13.312  0.00  0.00    +0.000 HD
ENDBRANCH  18  19
ENDBRANCH  17  18
ENDBRANCH  10  17
ENDBRANCH   8  10
ENDBRANCH   7   8
ENDBRANCH   1   7
BRANCH   4  22
ATOM     22  C   UNL     1      49.994   8.192  14.246  0.00  0.00    +0.000 C 
BRANCH  22  23
ATOM     23  N   UNL     1      49.959   7.764  15.621  0.00  0.00    +0.000 N 
ATOM     24  C   UNL     1      51.090   7.239  16.205  0.00  0.00    +0.000 C 
ATOM     25  O   UNL     1      52.148   7.129  15.621  0.00  0.00    +0.000 OA
ATOM     26  H   UNL     1      49.069   7.450  15.985  0.00  0.00    +0.000 HD
BRANCH  24  27
ATOM     27  C   UNL     1      50.932   6.856  17.617  0.00  0.00    +0.000 A 
ATOM     28  C   UNL     1      51.714   7.471  18.582  0.00  0.00    +0.000 A 
ATOM     29  S   UNL     1      51.422   6.884  20.157  0.00  0.00    +0.000 S 
ATOM     30  C   UNL     1      50.262   5.772  19.596  0.00  0.00    +0.000 A 
ATOM     31  N   UNL     1      49.645   4.910  20.442  0.00  0.00    +0.000 NA
ATOM     32  C   UNL     1      48.801   4.109  19.873  0.00  0.00    +0.000 A 
ATOM     33  N   UNL     1      48.514   4.107  18.528  0.00  0.00    +0.000 N 
ATOM     34  C   UNL     1      49.068   5.001  17.657  0.00  0.00    +0.000 A 
ATOM     35  O   UNL     1      48.701   5.059  16.467  0.00  0.00    +0.000 OA
ATOM     36  C   UNL     1      50.062   5.883  18.227  0.00  0.00    +0.000 A 
ATOM     37  H   UNL     1      47.808   3.488  18.156  0.00  0.00    +0.000 HD
ENDBRANCH  24  27
ENDBRANCH  22  23
ENDBRANCH   4  22
TORSDOF 10
ENDMDL
MODEL 8
REMARK VINA RESULT:    -6.655      3.033      9.714
REMARK INTER + INTRA:         -11.823
REMARK INTER:                 -10.420
REMARK INTRA:                  -1.403
REMARK UNBOUND:                -1.471
REMARK  Name = 
REMARK  10 active torsions:
REMARK  status: ('A' for Active; 'I' for Inactive)
REMARK    1  A    between atoms: N_1  and  C_2
REMARK    2  A    between atoms: C_2  and  C_3
REMARK    3  A    between atoms: C_3  and  C_4
REMARK    4  A    between atoms: C_4  and  N_5
REMARK    5  A    between atoms: C_4  and  C_27
REMARK    6  A    between atoms: N_5  and  C_6
REMARK    7  A    between atoms: C_6  and  C_7
REMARK    8  A    between atoms: C_10  and  C_11
REMARK    9  A    between atoms: C_11  and  N_12
REMARK   10  A    between atoms: C_13  and  C_15
REMARK                            x       y       z     vdW  Elec       q    Type
REMARK                         _______ _______ _______ _____ _____    ______ ____
ROOT
ATOM      1  C   UNL     1      51.265   2.204  17.406  0.00  0.00    +0.000 A 
ATOM      2  C   UNL     1      49.933   1.948  17.095  0.00  0.00    +0.000 A 
ATOM      3  C   UNL     1      49.033   2.993  17.056  0.00  0.00    +0.000 A 
ATOM      4  C   UNL     1      49.480   4.278  17.360  0.00  0.00    +0.000 A 
ATOM      5  C   UNL     1      50.825   4.433  17.690  0.00  0.00    +0.000 A 
ATOM      6  N   UNL     1      51.730   3.431  17.727  0.00  0.00    +0.000 NA
ENDROOT
BRANCH   1   7
ATOM      7  C   UNL     1      52.169   1.006  17.539  0.00  0.00    +0.000 C 
BRANCH   7   8
ATOM      8  N   UNL     1      53.255   1.019  18.505  0.00  0.00    +0.000 NA
ATOM      9  H   UNL     1      53.173   0.221  19.123  0.00  0.00    +0.000 HD
BRANCH   8  10
ATOM     10  C   UNL     1      54.635   1.149  17.972  0.00  0.00    +0.000 C 
BRANCH  10  11
ATOM     11  C   UNL     1      55.022   2.628  18.076  0.00  0.00    +0.000 A 
ATOM     12  C   UNL     1      55.004   3.261  19.317  0.00  0.00    +0.000 A 
ATOM     13  C   UNL     1      55.294   4.619  19.384  0.00  0.00    +0.000 A 
ATOM     14  C   UNL     1      55.571   5.315  18.214  0.00  0.00    +0.000 A 
ATOM     15  C   UNL     1      55.553   4.619  17.019  0.00  0.00    +0.000 A 
ATOM     16  N   UNL     1      55.284   3.301  16.923  0.00  0.00    +0.000 NA
ENDBRANCH  10  11
BRANCH  10  17
ATOM     17  C   UNL     1      54.998   0.608  16.549  0.00  0.00    +0.000 C 
BRANCH  17  18
ATOM     18  C   UNL     1      55.110  -0.936  16.421  0.00  0.00    +0.000 C 
BRANCH  18  19
ATOM     19  N   UNL     1      54.194  -1.689  15.556  0.00  0.00    +0.000 NA
ATOM     20  H   UNL     1      54.495  -2.669  15.615  0.00  0.00    +0.000 HD
ATOM     21  H   UNL     1      54.397  -1.441  14.588  0.00  0.00    +0.000 HD
ENDBRANCH  18  19
ENDBRANCH  17  18
ENDBRANCH  10  17
ENDBRANCH   8  10
ENDBRANCH   7   8
ENDBRANCH   1   7
BRANCH   4  22
ATOM     22  C   UNL     1      48.580   5.474  17.351  0.00  0.00    +0.000 C 
BRANCH  22  23
ATOM     23  N   UNL     1      47.777   5.561  16.157  0.00  0.00    +0.000 N 
ATOM     24  C   UNL     1      48.298   6.134  15.019  0.00  0.00    +0.000 C 
ATOM     25  O   UNL     1      49.431   6.565  14.953  0.00  0.00    +0.000 OA
ATOM     26  H   UNL     1      46.774   5.616  16.279  0.00  0.00    +0.000 HD
BRANCH  24  27
ATOM     27  C   UNL     1      47.387   6.146  13.865  0.00  0.00    +0.000 A 
ATOM     28  C   UNL     1      47.103   7.347  13.233  0.00  0.00    +0.000 A 
ATOM     29  S   UNL     1      46.004   7.181  11.938  0.00  0.00    +0.000 S 
ATOM     30  C   UNL     1      45.853   5.505  12.198  0.00  0.00    +0.000 A 
ATOM     31  N   UNL     1      45.014   4.749  11.448  0.00  0.00    +0.000 NA
ATOM     32  C   UNL     1      44.986   3.495  11.771  0.00  0.00    +0.000 A 
ATOM     33  N   UNL     1      45.738   2.932  12.774  0.00  0.00    +0.000 N 
ATOM     34  C   UNL     1      46.640   3.650  13.508  0.00  0.00    +0.000 A 
ATOM     35  O   UNL     1      47.396   3.094  14.328  0.00  0.00    +0.000 OA
ATOM     36  C   UNL     1      46.671   5.067  13.230  0.00  0.00    +0.000 A 
ATOM     37  H   UNL     1      45.706   1.936  12.943  0.00  0.00    +0.000 HD
ENDBRANCH  24  27
ENDBRANCH  22  23
ENDBRANCH   4  22
TORSDOF 10
ENDMDL
MODEL 9
REMARK VINA RESULT:    -6.619      3.686      9.460
REMARK INTER + INTRA:         -11.767
REMARK INTER:                 -10.715
REMARK INTRA:                  -1.051
REMARK UNBOUND:                -1.471
REMARK  Name = 
REMARK  10 active torsions:
REMARK  status: ('A' for Active; 'I' for Inactive)
REMARK    1  A    between atoms: N_1  and  C_2
REMARK    2  A    between atoms: C_2  and  C_3
REMARK    3  A    between atoms: C_3  and  C_4
REMARK    4  A    between atoms: C_4  and  N_5
REMARK    5  A    between atoms: C_4  and  C_27
REMARK    6  A    between atoms: N_5  and  C_6
REMARK    7  A    between atoms: C_6  and  C_7
REMARK    8  A    between atoms: C_10  and  C_11
REMARK    9  A    between atoms: C_11  and  N_12
REMARK   10  A    between atoms: C_13  and  C_15
REMARK                            x       y       z     vdW  Elec       q    Type
REMARK                         _______ _______ _______ _____ _____    ______ ____
ROOT
ATOM      1  C   UNL     1      50.309   7.272  15.371  0.00  0.00    +0.000 A 
ATOM      2  C   UNL     1      50.730   8.177  14.402  0.00  0.00    +0.000 A 
ATOM      3  C   UNL     1      49.991   8.326  13.246  0.00  0.00    +0.000 A 
ATOM      4  C   UNL     1      48.853   7.539  13.069  0.00  0.00    +0.000 A 
ATOM      5  C   UNL     1      48.526   6.639  14.081  0.00  0.00    +0.000 A 
ATOM      6  N   UNL     1      49.225   6.479  15.226  0.00  0.00    +0.000 NA
ENDROOT
BRANCH   1   7
ATOM      7  C   UNL     1      51.219   7.081  16.557  0.00  0.00    +0.000 C 
BRANCH   7   8
ATOM      8  N   UNL     1      51.787   5.771  16.832  0.00  0.00    +0.000 NA
ATOM      9  H   UNL     1      52.787   5.853  16.966  0.00  0.00    +0.000 HD
BRANCH   8  10
ATOM     10  C   UNL     1      51.160   4.976  17.919  0.00  0.00    +0.000 C 
BRANCH  10  11
ATOM     11  C   UNL     1      51.697   3.546  17.800  0.00  0.00    +0.000 A 
ATOM     12  C   UNL     1      50.835   2.511  17.442  0.00  0.00    +0.000 A 
ATOM     13  C   UNL     1      51.325   1.211  17.402  0.00  0.00    +0.000 A 
ATOM     14  C   UNL     1      52.651   0.971  17.739  0.00  0.00    +0.000 A 
ATOM     15  C   UNL     1      53.439   2.049  18.099  0.00  0.00    +0.000 A 
ATOM     16  N   UNL     1      52.996   3.322  18.139  0.00  0.00    +0.000 NA
ENDBRANCH  10  11
BRANCH  10  17
ATOM     17  C   UNL     1      49.605   4.943  18.092  0.00  0.00    +0.000 C 
BRANCH  17  18
ATOM     18  C   UNL     1      49.085   5.018  19.554  0.00  0.00    +0.000 C 
BRANCH  18  19
ATOM     19  N   UNL     1      48.644   3.809  20.260  0.00  0.00    +0.000 NA
ATOM     20  H   UNL     1      49.320   3.667  21.020  0.00  0.00    +0.000 HD
ATOM     21  H   UNL     1      48.810   3.009  19.649  0.00  0.00    +0.000 HD
ENDBRANCH  18  19
ENDBRANCH  17  18
ENDBRANCH  10  17
ENDBRANCH   8  10
ENDBRANCH   7   8
ENDBRANCH   1   7
BRANCH   4  22
ATOM     22  C   UNL     1      47.990   7.623  11.849  0.00  0.00    +0.000 C 
BRANCH  22  23
ATOM     23  N   UNL     1      47.142   6.470  11.682  0.00  0.00    +0.000 N 
ATOM     24  C   UNL     1      45.774   6.609  11.749  0.00  0.00    +0.000 C 
ATOM     25  O   UNL     1      45.224   7.676  11.927  0.00  0.00    +0.000 OA
ATOM     26  H   UNL     1      47.524   5.573  11.952  0.00  0.00    +0.000 HD
BRANCH  24  27
ATOM     27  C   UNL     1      45.018   5.363  11.545  0.00  0.00    +0.000 A 
ATOM     28  C   UNL     1      44.223   4.873  12.569  0.00  0.00    +0.000 A 
ATOM     29  S   UNL     1      43.447   3.405  12.172  0.00  0.00    +0.000 S 
ATOM     30  C   UNL     1      44.171   3.366  10.632  0.00  0.00    +0.000 A 
ATOM     31  N   UNL     1      43.960   2.332   9.780  0.00  0.00    +0.000 NA
ATOM     32  C   UNL     1      44.590   2.426   8.652  0.00  0.00    +0.000 A 
ATOM     33  N   UNL     1      45.403   3.477   8.300  0.00  0.00    +0.000 N 
ATOM     34  C   UNL     1      45.589   4.565   9.105  0.00  0.00    +0.000 A 
ATOM     35  O   UNL     1      46.233   5.558   8.714  0.00  0.00    +0.000 OA
ATOM     36  C   UNL     1      44.956   4.488  10.402  0.00  0.00    +0.000 A 
ATOM     37  H   UNL     1      45.827   3.513   7.384  0.00  0.00    +0.000 HD
ENDBRANCH  24  27
ENDBRANCH  22  23
ENDBRANCH   4  22
TORSDOF 10
ENDMDL
