MODEL 1
REMARK VINA RESULT:    -8.905      0.000      0.000
REMARK INTER + INTRA:         -11.713
REMARK INTER:                 -11.508
REMARK INTRA:                  -0.205
REMARK UNBOUND:                -0.205
REMARK  Name = 
REMARK  6 active torsions:
REMARK  status: ('A' for Active; 'I' for Inactive)
REMARK    1  A    between atoms: C_1  and  C_2
REMARK    2  A    between atoms: C_2  and  N_3
REMARK    3  A    between atoms: C_2  and  C_16
REMARK    4  A    between atoms: C_4  and  C_6
REMARK    5  A    between atoms: C_19  and  C_20
REMARK    6  A    between atoms: C_20  and  N_21
REMARK                            x       y       z     vdW  Elec       q    Type
REMARK                         _______ _______ _______ _____ _____    ______ ____
ROOT
ATOM      1  C   UNL     1      47.455   8.690  12.230  0.00  0.00    +0.000 C 
ATOM      2  C   UNL     1      46.503   7.887  13.127  0.00  0.00    +0.000 C 
ENDROOT
BRANCH   2   3
ATOM      3  C   UNL     1      45.884   6.694  12.402  0.00  0.00    +0.000 A 
ATOM      4  C   UNL     1      46.153   6.482  11.040  0.00  0.00    +0.000 A 
ATOM      5  C   UNL     1      45.600   5.388  10.357  0.00  0.00    +0.000 A 
ATOM      6  C   UNL     1      44.752   4.485  11.015  0.00  0.00    +0.000 A 
ATOM      7  C   UNL     1      44.470   4.702  12.367  0.00  0.00    +0.000 A 
ATOM      8  C   UNL     1      45.013   5.800  13.045  0.00  0.00    +0.000 A 
BRANCH   6   9
ATOM      9  C   UNL     1      44.171   3.294  10.294  0.00  0.00    +0.000 C 
BRANCH   9  10
ATOM     10  N   UNL     1      45.155   2.669   9.435  0.00  0.00    +0.000 N 
ATOM     11  C   UNL     1      45.287   3.086   8.135  0.00  0.00    +0.000 C 
ATOM     12  O   UNL     1      44.567   3.946   7.635  0.00  0.00    +0.000 OA
ATOM     13  N   UNL     1      46.310   2.485   7.455  0.00  0.00    +0.000 N 
ATOM     14  C   UNL     1      46.667   2.850   6.113  0.00  0.00    +0.000 C 
ATOM     15  C   UNL     1      48.007   2.166   5.968  0.00  0.00    +0.000 C 
ATOM     16  O   UNL     1      47.963   1.018   6.838  0.00  0.00    +0.000 OA
ATOM     17  C   UNL     1      46.845   1.181   7.720  0.00  0.00    +0.000 C 
ATOM     18  H   UNL     1      46.035   2.468   9.884  0.00  0.00    +0.000 HD
ENDBRANCH   9  10
ENDBRANCH   6   9
ENDBRANCH   2   3
BRANCH   2  19
ATOM     19  N   UNL     1      47.148   7.433  14.349  0.00  0.00    +0.000 N 
ATOM     20  C   UNL     1      48.243   6.610  14.369  0.00  0.00    +0.000 C 
ATOM     21  O   UNL     1      48.727   6.134  13.344  0.00  0.00    +0.000 OA
ATOM     22  H   UNL     1      46.734   7.743  15.222  0.00  0.00    +0.000 HD
BRANCH  20  23
ATOM     23  C   UNL     1      48.863   6.363  15.681  0.00  0.00    +0.000 A 
ATOM     24  C   UNL     1      49.915   7.165  16.106  0.00  0.00    +0.000 A 
ATOM     25  S   UNL     1      50.490   6.777  17.664  0.00  0.00    +0.000 S 
ATOM     26  C   UNL     1      49.394   5.485  17.805  0.00  0.00    +0.000 A 
ATOM     27  N   UNL     1      49.384   4.696  18.913  0.00  0.00    +0.000 NA
ATOM     28  C   UNL     1      48.527   3.732  18.875  0.00  0.00    +0.000 A 
ATOM     29  N   UNL     1      47.669   3.492  17.833  0.00  0.00    +0.000 N 
ATOM     30  C   UNL     1      47.607   4.293  16.715  0.00  0.00    +0.000 A 
ATOM     31  O   UNL     1      46.769   4.101  15.846  0.00  0.00    +0.000 OA
ATOM     32  C   UNL     1      48.578   5.371  16.692  0.00  0.00    +0.000 A 
ATOM     33  H   UNL     1      47.003   2.738  17.874  0.00  0.00    +0.000 HD
ENDBRANCH  20  23
ENDBRANCH   2  19
TORSDOF 5
ENDMDL
MODEL 2
REMARK VINA RESULT:    -7.724      1.589      2.467
REMARK INTER + INTRA:         -10.186
REMARK INTER:                  -9.943
REMARK INTRA:                  -0.243
REMARK UNBOUND:                -0.205
REMARK  Name = 
REMARK  6 active torsions:
REMARK  status: ('A' for Active; 'I' for Inactive)
REMARK    1  A    between atoms: C_1  and  C_2
REMARK    2  A    between atoms: C_2  and  N_3
REMARK    3  A    between atoms: C_2  and  C_16
REMARK    4  A    between atoms: C_4  and  C_6
REMARK    5  A    between atoms: C_19  and  C_20
REMARK    6  A    between atoms: C_20  and  N_21
REMARK                            x       y       z     vdW  Elec       q    Type
REMARK                         _______ _______ _______ _____ _____    ______ ____
ROOT
ATOM      1  C   UNL     1      47.712   8.763  12.239  0.00  0.00    +0.000 C 
ATOM      2  C   UNL     1      46.665   8.029  13.087  0.00  0.00    +0.000 C 
ENDROOT
BRANCH   2   3
ATOM      3  C   UNL     1      46.070   6.822  12.366  0.00  0.00    +0.000 A 
ATOM      4  C   UNL     1      45.336   5.864  13.085  0.00  0.00    +0.000 A 
ATOM      5  C   UNL     1      44.775   4.752  12.440  0.00  0.00    +0.000 A 
ATOM      6  C   UNL     1      44.946   4.559  11.061  0.00  0.00    +0.000 A 
ATOM      7  C   UNL     1      45.689   5.503  10.345  0.00  0.00    +0.000 A 
ATOM      8  C   UNL     1      46.257   6.607  10.991  0.00  0.00    +0.000 A 
BRANCH   6   9
ATOM      9  C   UNL     1      44.327   3.378  10.356  0.00  0.00    +0.000 C 
BRANCH   9  10
ATOM     10  N   UNL     1      45.268   2.753   9.451  0.00  0.00    +0.000 N 
ATOM     11  C   UNL     1      45.320   3.155   8.139  0.00  0.00    +0.000 C 
ATOM     12  O   UNL     1      44.561   3.999   7.671  0.00  0.00    +0.000 OA
ATOM     13  N   UNL     1      46.311   2.558   7.409  0.00  0.00    +0.000 N 
ATOM     14  C   UNL     1      46.586   2.909   6.045  0.00  0.00    +0.000 C 
ATOM     15  C   UNL     1      47.924   2.241   5.833  0.00  0.00    +0.000 C 
ATOM     16  O   UNL     1      47.946   1.104   6.717  0.00  0.00    +0.000 OA
ATOM     17  C   UNL     1      46.878   1.265   7.660  0.00  0.00    +0.000 C 
ATOM     18  H   UNL     1      46.175   2.570   9.851  0.00  0.00    +0.000 HD
ENDBRANCH   9  10
ENDBRANCH   6   9
ENDBRANCH   2   3
BRANCH   2  19
ATOM     19  N   UNL     1      47.193   7.614  14.377  0.00  0.00    +0.000 N 
ATOM     20  C   UNL     1      48.293   6.811  14.525  0.00  0.00    +0.000 C 
ATOM     21  O   UNL     1      48.883   6.321  13.564  0.00  0.00    +0.000 OA
ATOM     22  H   UNL     1      46.690   7.936  15.198  0.00  0.00    +0.000 HD
BRANCH  20  23
ATOM     23  C   UNL     1      48.784   6.604  15.896  0.00  0.00    +0.000 A 
ATOM     24  C   UNL     1      48.766   5.330  16.448  0.00  0.00    +0.000 A 
ATOM     25  S   UNL     1      49.409   5.253  18.026  0.00  0.00    +0.000 S 
ATOM     26  C   UNL     1      49.682   6.930  18.054  0.00  0.00    +0.000 A 
ATOM     27  N   UNL     1      50.197   7.536  19.157  0.00  0.00    +0.000 NA
ATOM     28  C   UNL     1      50.320   8.817  19.056  0.00  0.00    +0.000 A 
ATOM     29  N   UNL     1      49.985   9.547  17.946  0.00  0.00    +0.000 N 
ATOM     30  C   UNL     1      49.509   8.973  16.788  0.00  0.00    +0.000 A 
ATOM     31  O   UNL     1      49.304   9.645  15.789  0.00  0.00    +0.000 OA
ATOM     32  C   UNL     1      49.317   7.537  16.864  0.00  0.00    +0.000 A 
ATOM     33  H   UNL     1      50.130  10.543  17.918  0.00  0.00    +0.000 HD
ENDBRANCH  20  23
ENDBRANCH   2  19
TORSDOF 5
ENDMDL
MODEL 3
REMARK VINA RESULT:    -7.333      4.563      7.489
REMARK INTER + INTRA:          -9.681
REMARK INTER:                  -8.714
REMARK INTRA:                  -0.967
REMARK UNBOUND:                -0.205
REMARK  Name = 
REMARK  6 active torsions:
REMARK  status: ('A' for Active; 'I' for Inactive)
REMARK    1  A    between atoms: C_1  and  C_2
REMARK    2  A    between atoms: C_2  and  N_3
REMARK    3  A    between atoms: C_2  and  C_16
REMARK    4  A    between atoms: C_4  and  C_6
REMARK    5  A    between atoms: C_19  and  C_20
REMARK    6  A    between atoms: C_20  and  N_21
REMARK                            x       y       z     vdW  Elec       q    Type
REMARK                         _______ _______ _______ _____ _____    ______ ____
ROOT
ATOM      1  C   UNL     1      46.550   8.902  13.686  0.00  0.00    +0.000 C 
ATOM      2  C   UNL     1      46.769   8.343  12.275  0.00  0.00    +0.000 C 
ENDROOT
BRANCH   2   3
ATOM      3  C   UNL     1      48.242   8.333  11.872  0.00  0.00    +0.000 A 
ATOM      4  C   UNL     1      48.896   9.537  11.564  0.00  0.00    +0.000 A 
ATOM      5  C   UNL     1      50.250   9.550  11.200  0.00  0.00    +0.000 A 
ATOM      6  C   UNL     1      50.984   8.357  11.119  0.00  0.00    +0.000 A 
ATOM      7  C   UNL     1      50.332   7.155  11.411  0.00  0.00    +0.000 A 
ATOM      8  C   UNL     1      48.977   7.142  11.764  0.00  0.00    +0.000 A 
BRANCH   6   9
ATOM      9  C   UNL     1      52.446   8.364  10.750  0.00  0.00    +0.000 C 
BRANCH   9  10
ATOM     10  N   UNL     1      52.680   7.652   9.511  0.00  0.00    +0.000 N 
ATOM     11  C   UNL     1      53.631   6.663   9.464  0.00  0.00    +0.000 C 
ATOM     12  O   UNL     1      54.343   6.378  10.422  0.00  0.00    +0.000 OA
ATOM     13  N   UNL     1      53.692   6.002   8.267  0.00  0.00    +0.000 N 
ATOM     14  C   UNL     1      54.558   4.878   8.048  0.00  0.00    +0.000 C 
ATOM     15  C   UNL     1      54.012   4.336   6.748  0.00  0.00    +0.000 C 
ATOM     16  O   UNL     1      53.451   5.464   6.050  0.00  0.00    +0.000 OA
ATOM     17  C   UNL     1      53.326   6.540   6.990  0.00  0.00    +0.000 C 
ATOM     18  H   UNL     1      51.845   7.431   8.992  0.00  0.00    +0.000 HD
ENDBRANCH   9  10
ENDBRANCH   6   9
ENDBRANCH   2   3
BRANCH   2  19
ATOM     19  N   UNL     1      46.212   7.009  12.117  0.00  0.00    +0.000 N 
ATOM     20  C   UNL     1      44.951   6.764  11.639  0.00  0.00    +0.000 C 
ATOM     21  O   UNL     1      44.164   7.668  11.366  0.00  0.00    +0.000 OA
ATOM     22  H   UNL     1      46.802   6.235  12.402  0.00  0.00    +0.000 HD
BRANCH  20  23
ATOM     23  C   UNL     1      44.594   5.357  11.404  0.00  0.00    +0.000 A 
ATOM     24  C   UNL     1      43.850   4.669  12.354  0.00  0.00    +0.000 A 
ATOM     25  S   UNL     1      43.482   3.063  11.910  0.00  0.00    +0.000 S 
ATOM     26  C   UNL     1      44.353   3.209  10.458  0.00  0.00    +0.000 A 
ATOM     27  N   UNL     1      44.468   2.156   9.604  0.00  0.00    +0.000 NA
ATOM     28  C   UNL     1      45.184   2.392   8.557  0.00  0.00    +0.000 A 
ATOM     29  N   UNL     1      45.787   3.591   8.279  0.00  0.00    +0.000 N 
ATOM     30  C   UNL     1      45.657   4.700   9.086  0.00  0.00    +0.000 A 
ATOM     31  O   UNL     1      46.135   5.776   8.762  0.00  0.00    +0.000 OA
ATOM     32  C   UNL     1      44.890   4.475  10.297  0.00  0.00    +0.000 A 
ATOM     33  H   UNL     1      46.312   3.722   7.430  0.00  0.00    +0.000 HD
ENDBRANCH  20  23
ENDBRANCH   2  19
TORSDOF 5
ENDMDL
MODEL 4
REMARK VINA RESULT:    -7.269      1.900      2.452
REMARK INTER + INTRA:          -9.599
REMARK INTER:                  -8.521
REMARK INTRA:                  -1.078
REMARK UNBOUND:                -0.205
REMARK  Name = 
REMARK  6 active torsions:
REMARK  status: ('A' for Active; 'I' for Inactive)
REMARK    1  A    between atoms: C_1  and  C_2
REMARK    2  A    between atoms: C_2  and  N_3
REMARK    3  A    between atoms: C_2  and  C_16
REMARK    4  A    between atoms: C_4  and  C_6
REMARK    5  A    between atoms: C_19  and  C_20
REMARK    6  A    between atoms: C_20  and  N_21
REMARK                            x       y       z     vdW  Elec       q    Type
REMARK                         _______ _______ _______ _____ _____    ______ ____
ROOT
ATOM      1  C   UNL     1      48.784  10.027  13.774  0.00  0.00    +0.000 C 
ATOM      2  C   UNL     1      48.092   8.874  14.513  0.00  0.00    +0.000 C 
ENDROOT
BRANCH   2   3
ATOM      3  C   UNL     1      47.113   8.114  13.622  0.00  0.00    +0.000 A 
ATOM      4  C   UNL     1      47.314   6.749  13.359  0.00  0.00    +0.000 A 
ATOM      5  C   UNL     1      46.422   6.031  12.549  0.00  0.00    +0.000 A 
ATOM      6  C   UNL     1      45.312   6.661  11.968  0.00  0.00    +0.000 A 
ATOM      7  C   UNL     1      45.117   8.024  12.215  0.00  0.00    +0.000 A 
ATOM      8  C   UNL     1      46.014   8.743  13.015  0.00  0.00    +0.000 A 
BRANCH   6   9
ATOM      9  C   UNL     1      44.336   5.891  11.114  0.00  0.00    +0.000 C 
BRANCH   9  10
ATOM     10  N   UNL     1      44.964   5.407   9.903  0.00  0.00    +0.000 N 
ATOM     11  C   UNL     1      45.126   4.058   9.712  0.00  0.00    +0.000 C 
ATOM     12  O   UNL     1      44.806   3.223  10.553  0.00  0.00    +0.000 OA
ATOM     13  N   UNL     1      45.646   3.724   8.491  0.00  0.00    +0.000 N 
ATOM     14  C   UNL     1      45.807   2.362   8.066  0.00  0.00    +0.000 C 
ATOM     15  C   UNL     1      46.079   2.545   6.591  0.00  0.00    +0.000 C 
ATOM     16  O   UNL     1      46.703   3.836   6.458  0.00  0.00    +0.000 OA
ATOM     17  C   UNL     1      46.500   4.547   7.686  0.00  0.00    +0.000 C 
ATOM     18  H   UNL     1      44.695   5.902   9.066  0.00  0.00    +0.000 HD
ENDBRANCH   9  10
ENDBRANCH   6   9
ENDBRANCH   2   3
BRANCH   2  19
ATOM     19  N   UNL     1      49.045   7.942  15.095  0.00  0.00    +0.000 N 
ATOM     20  C   UNL     1      49.086   7.633  16.429  0.00  0.00    +0.000 C 
ATOM     21  O   UNL     1      48.355   8.178  17.254  0.00  0.00    +0.000 OA
ATOM     22  H   UNL     1      49.718   7.525  14.460  0.00  0.00    +0.000 HD
BRANCH  20  23
ATOM     23  C   UNL     1      50.012   6.564  16.834  0.00  0.00    +0.000 A 
ATOM     24  C   UNL     1      51.340   6.870  17.105  0.00  0.00    +0.000 A 
ATOM     25  S   UNL     1      52.269   5.529  17.602  0.00  0.00    +0.000 S 
ATOM     26  C   UNL     1      50.946   4.478  17.418  0.00  0.00    +0.000 A 
ATOM     27  N   UNL     1      51.075   3.145  17.655  0.00  0.00    +0.000 NA
ATOM     28  C   UNL     1      50.004   2.457  17.444  0.00  0.00    +0.000 A 
ATOM     29  N   UNL     1      48.809   2.984  17.028  0.00  0.00    +0.000 N 
ATOM     30  C   UNL     1      48.615   4.332  16.825  0.00  0.00    +0.000 A 
ATOM     31  O   UNL     1      47.513   4.775  16.539  0.00  0.00    +0.000 OA
ATOM     32  C   UNL     1      49.802   5.145  17.014  0.00  0.00    +0.000 A 
ATOM     33  H   UNL     1      47.999   2.398  16.906  0.00  0.00    +0.000 HD
ENDBRANCH  20  23
ENDBRANCH   2  19
TORSDOF 5
ENDMDL
MODEL 5
REMARK VINA RESULT:    -7.185      4.783      7.230
REMARK INTER + INTRA:          -9.490
REMARK INTER:                  -8.561
REMARK INTRA:                  -0.929
REMARK UNBOUND:                -0.205
REMARK  Name = 
REMARK  6 active torsions:
REMARK  status: ('A' for Active; 'I' for Inactive)
REMARK    1  A    between atoms: C_1  and  C_2
REMARK    2  A    between atoms: C_2  and  N_3
REMARK    3  A    between atoms: C_2  and  C_16
REMARK    4  A    between atoms: C_4  and  C_6
REMARK    5  A    between atoms: C_19  and  C_20
REMARK    6  A    between atoms: C_20  and  N_21
REMARK                            x       y       z     vdW  Elec       q    Type
REMARK                         _______ _______ _______ _____ _____    ______ ____
ROOT
ATOM      1  C   UNL     1      48.564   6.689  15.058  0.00  0.00    +0.000 C 
ATOM      2  C   UNL     1      48.250   7.249  13.664  0.00  0.00    +0.000 C 
ENDROOT
BRANCH   2   3
ATOM      3  C   UNL     1      49.510   7.608  12.881  0.00  0.00    +0.000 A 
ATOM      4  C   UNL     1      50.623   8.148  13.547  0.00  0.00    +0.000 A 
ATOM      5  C   UNL     1      51.793   8.478  12.848  0.00  0.00    +0.000 A 
ATOM      6  C   UNL     1      51.877   8.291  11.460  0.00  0.00    +0.000 A 
ATOM      7  C   UNL     1      50.765   7.768  10.791  0.00  0.00    +0.000 A 
ATOM      8  C   UNL     1      49.594   7.449  11.489  0.00  0.00    +0.000 A 
BRANCH   6   9
ATOM      9  C   UNL     1      53.139   8.623  10.704  0.00  0.00    +0.000 C 
BRANCH   9  10
ATOM     10  N   UNL     1      53.212   7.892   9.456  0.00  0.00    +0.000 N 
ATOM     11  C   UNL     1      53.940   6.731   9.388  0.00  0.00    +0.000 C 
ATOM     12  O   UNL     1      54.587   6.295  10.336  0.00  0.00    +0.000 OA
ATOM     13  N   UNL     1      53.855   6.086   8.185  0.00  0.00    +0.000 N 
ATOM     14  C   UNL     1      54.471   4.812   7.945  0.00  0.00    +0.000 C 
ATOM     15  C   UNL     1      53.815   4.408   6.645  0.00  0.00    +0.000 C 
ATOM     16  O   UNL     1      53.491   5.636   5.964  0.00  0.00    +0.000 OA
ATOM     17  C   UNL     1      53.596   6.702   6.916  0.00  0.00    +0.000 C 
ATOM     18  H   UNL     1      52.345   7.853   8.943  0.00  0.00    +0.000 HD
ENDBRANCH   9  10
ENDBRANCH   6   9
ENDBRANCH   2   3
BRANCH   2  19
ATOM     19  N   UNL     1      47.430   6.341  12.878  0.00  0.00    +0.000 N 
ATOM     20  C   UNL     1      46.419   6.753  12.050  0.00  0.00    +0.000 C 
ATOM     21  O   UNL     1      46.083   7.932  11.961  0.00  0.00    +0.000 OA
ATOM     22  H   UNL     1      47.625   5.350  12.979  0.00  0.00    +0.000 HD
BRANCH  20  23
ATOM     23  C   UNL     1      45.784   5.722  11.214  0.00  0.00    +0.000 A 
ATOM     24  C   UNL     1      45.921   5.776   9.833  0.00  0.00    +0.000 A 
ATOM     25  S   UNL     1      45.163   4.485   9.015  0.00  0.00    +0.000 S 
ATOM     26  C   UNL     1      44.573   3.839  10.472  0.00  0.00    +0.000 A 
ATOM     27  N   UNL     1      43.797   2.722  10.476  0.00  0.00    +0.000 NA
ATOM     28  C   UNL     1      43.388   2.359  11.645  0.00  0.00    +0.000 A 
ATOM     29  N   UNL     1      43.695   3.005  12.814  0.00  0.00    +0.000 N 
ATOM     30  C   UNL     1      44.519   4.108  12.866  0.00  0.00    +0.000 A 
ATOM     31  O   UNL     1      44.842   4.605  13.934  0.00  0.00    +0.000 OA
ATOM     32  C   UNL     1      44.975   4.578  11.571  0.00  0.00    +0.000 A 
ATOM     33  H   UNL     1      43.368   2.657  13.700  0.00  0.00    +0.000 HD
ENDBRANCH  20  23
ENDBRANCH   2  19
TORSDOF 5
ENDMDL
MODEL 6
REMARK VINA RESULT:    -6.589      4.189      8.637
REMARK INTER + INTRA:          -8.720
REMARK INTER:                  -7.839
REMARK INTRA:                  -0.881
REMARK UNBOUND:                -0.205
REMARK  Name = 
REMARK  6 active torsions:
REMARK  status: ('A' for Active; 'I' for Inactive)
REMARK    1  A    between atoms: C_1  and  C_2
REMARK    2  A    between atoms: C_2  and  N_3
REMARK    3  A    between atoms: C_2  and  C_16
REMARK    4  A    between atoms: C_4  and  C_6
REMARK    5  A    between atoms: C_19  and  C_20
REMARK    6  A    between atoms: C_20  and  N_21
REMARK                            x       y       z     vdW  Elec       q    Type
REMARK                         _______ _______ _______ _____ _____    ______ ____
ROOT
ATOM      1  C   UNL     1      46.471   3.662  13.256  0.00  0.00    +0.000 C 
ATOM      2  C   UNL     1      46.423   4.822  14.258  0.00  0.00    +0.000 C 
ENDROOT
BRANCH   2   3
ATOM      3  C   UNL     1      47.409   4.641  15.410  0.00  0.00    +0.000 A 
ATOM      4  C   UNL     1      48.269   5.691  15.772  0.00  0.00    +0.000 A 
ATOM      5  C   UNL     1      49.177   5.548  16.831  0.00  0.00    +0.000 A 
ATOM      6  C   UNL     1      49.261   4.345  17.547  0.00  0.00    +0.000 A 
ATOM      7  C   UNL     1      48.417   3.292  17.180  0.00  0.00    +0.000 A 
ATOM      8  C   UNL     1      47.518   3.432  16.115  0.00  0.00    +0.000 A 
BRANCH   6   9
ATOM      9  C   UNL     1      50.219   4.190  18.702  0.00  0.00    +0.000 C 
BRANCH   9  10
ATOM     10  N   UNL     1      51.118   3.075  18.494  0.00  0.00    +0.000 N 
ATOM     11  C   UNL     1      52.377   3.300  17.995  0.00  0.00    +0.000 C 
ATOM     12  O   UNL     1      52.773   4.413  17.663  0.00  0.00    +0.000 OA
ATOM     13  N   UNL     1      53.162   2.180  17.932  0.00  0.00    +0.000 N 
ATOM     14  C   UNL     1      54.538   2.223  17.524  0.00  0.00    +0.000 C 
ATOM     15  C   UNL     1      55.011   0.850  17.942  0.00  0.00    +0.000 C 
ATOM     16  O   UNL     1      53.854  -0.006  17.878  0.00  0.00    +0.000 OA
ATOM     17  C   UNL     1      52.695   0.832  17.789  0.00  0.00    +0.000 C 
ATOM     18  H   UNL     1      51.092   2.376  19.220  0.00  0.00    +0.000 HD
ENDBRANCH   9  10
ENDBRANCH   6   9
ENDBRANCH   2   3
BRANCH   2  19
ATOM     19  N   UNL     1      46.649   6.110  13.622  0.00  0.00    +0.000 N 
ATOM     20  C   UNL     1      45.694   6.781  12.903  0.00  0.00    +0.000 C 
ATOM     21  O   UNL     1      44.582   6.305  12.685  0.00  0.00    +0.000 OA
ATOM     22  H   UNL     1      47.580   6.505  13.713  0.00  0.00    +0.000 HD
BRANCH  20  23
ATOM     23  C   UNL     1      46.037   8.137  12.448  0.00  0.00    +0.000 A 
ATOM     24  C   UNL     1      45.036   9.091  12.317  0.00  0.00    +0.000 A 
ATOM     25  S   UNL     1      45.605  10.622  11.823  0.00  0.00    +0.000 S 
ATOM     26  C   UNL     1      47.202  10.051  11.709  0.00  0.00    +0.000 A 
ATOM     27  N   UNL     1      48.207  10.867  11.294  0.00  0.00    +0.000 NA
ATOM     28  C   UNL     1      49.363  10.297  11.219  0.00  0.00    +0.000 A 
ATOM     29  N   UNL     1      49.607   8.986  11.534  0.00  0.00    +0.000 N 
ATOM     30  C   UNL     1      48.633   8.135  12.007  0.00  0.00    +0.000 A 
ATOM     31  O   UNL     1      48.905   6.998  12.360  0.00  0.00    +0.000 OA
ATOM     32  C   UNL     1      47.306   8.719  12.073  0.00  0.00    +0.000 A 
ATOM     33  H   UNL     1      50.538   8.605  11.481  0.00  0.00    +0.000 HD
ENDBRANCH  20  23
ENDBRANCH   2  19
TORSDOF 5
ENDMDL
MODEL 7
REMARK VINA RESULT:    -6.427      4.082      8.731
REMARK INTER + INTRA:          -8.511
REMARK INTER:                  -8.280
REMARK INTRA:                  -0.230
REMARK UNBOUND:                -0.205
REMARK  Name = 
REMARK  6 active torsions:
REMARK  status: ('A' for Active; 'I' for Inactive)
REMARK    1  A    between atoms: C_1  and  C_2
REMARK    2  A    between atoms: C_2  and  N_3
REMARK    3  A    between atoms: C_2  and  C_16
REMARK    4  A    between atoms: C_4  and  C_6
REMARK    5  A    between atoms: C_19  and  C_20
REMARK    6  A    between atoms: C_20  and  N_21
REMARK                            x       y       z     vdW  Elec       q    Type
REMARK                         _______ _______ _______ _____ _____    ______ ____
ROOT
ATOM      1  C   UNL     1      46.664   3.486  13.274  0.00  0.00    +0.000 C 
ATOM      2  C   UNL     1      46.400   4.450  14.437  0.00  0.00    +0.000 C 
ENDROOT
BRANCH   2   3
ATOM      3  C   UNL     1      47.455   4.342  15.536  0.00  0.00    +0.000 A 
ATOM      4  C   UNL     1      48.018   5.505  16.087  0.00  0.00    +0.000 A 
ATOM      5  C   UNL     1      48.983   5.428  17.102  0.00  0.00    +0.000 A 
ATOM      6  C   UNL     1      49.423   4.186  17.583  0.00  0.00    +0.000 A 
ATOM      7  C   UNL     1      48.875   3.026  17.026  0.00  0.00    +0.000 A 
ATOM      8  C   UNL     1      47.920   3.104  16.005  0.00  0.00    +0.000 A 
BRANCH   6   9
ATOM      9  C   UNL     1      50.443   4.095  18.690  0.00  0.00    +0.000 C 
BRANCH   9  10
ATOM     10  N   UNL     1      51.334   2.971  18.493  0.00  0.00    +0.000 N 
ATOM     11  C   UNL     1      52.599   3.183  18.003  0.00  0.00    +0.000 C 
ATOM     12  O   UNL     1      53.007   4.291  17.669  0.00  0.00    +0.000 OA
ATOM     13  N   UNL     1      53.374   2.056  17.950  0.00  0.00    +0.000 N 
ATOM     14  C   UNL     1      54.753   2.085  17.553  0.00  0.00    +0.000 C 
ATOM     15  C   UNL     1      55.211   0.710  17.980  0.00  0.00    +0.000 C 
ATOM     16  O   UNL     1      54.048  -0.137  17.910  0.00  0.00    +0.000 OA
ATOM     17  C   UNL     1      52.896   0.712  17.810  0.00  0.00    +0.000 C 
ATOM     18  H   UNL     1      51.297   2.275  19.221  0.00  0.00    +0.000 HD
ENDBRANCH   9  10
ENDBRANCH   6   9
ENDBRANCH   2   3
BRANCH   2  19
ATOM     19  N   UNL     1      46.296   5.832  13.996  0.00  0.00    +0.000 N 
ATOM     20  C   UNL     1      47.219   6.443  13.189  0.00  0.00    +0.000 C 
ATOM     21  O   UNL     1      48.252   5.882  12.829  0.00  0.00    +0.000 OA
ATOM     22  H   UNL     1      45.495   6.356  14.332  0.00  0.00    +0.000 HD
BRANCH  20  23
ATOM     23  C   UNL     1      46.893   7.797  12.715  0.00  0.00    +0.000 A 
ATOM     24  C   UNL     1      47.787   8.837  12.934  0.00  0.00    +0.000 A 
ATOM     25  S   UNL     1      47.280  10.330  12.284  0.00  0.00    +0.000 S 
ATOM     26  C   UNL     1      45.819   9.656  11.737  0.00  0.00    +0.000 A 
ATOM     27  N   UNL     1      44.888  10.424  11.109  0.00  0.00    +0.000 NA
ATOM     28  C   UNL     1      43.811   9.794  10.777  0.00  0.00    +0.000 A 
ATOM     29  N   UNL     1      43.585   8.462  11.006  0.00  0.00    +0.000 N 
ATOM     30  C   UNL     1      44.517   7.634  11.591  0.00  0.00    +0.000 A 
ATOM     31  O   UNL     1      44.315   6.434  11.700  0.00  0.00    +0.000 OA
ATOM     32  C   UNL     1      45.732   8.303  12.017  0.00  0.00    +0.000 A 
ATOM     33  H   UNL     1      42.733   8.022  10.699  0.00  0.00    +0.000 HD
ENDBRANCH  20  23
ENDBRANCH   2  19
TORSDOF 5
ENDMDL
MODEL 8
REMARK VINA RESULT:    -6.423      4.765      7.146
REMARK INTER + INTRA:          -8.505
REMARK INTER:                  -8.368
REMARK INTRA:                  -0.137
REMARK UNBOUND:                -0.205
REMARK  Name = 
REMARK  6 active torsions:
REMARK  status: ('A' for Active; 'I' for Inactive)
REMARK    1  A    between atoms: C_1  and  C_2
REMARK    2  A    between atoms: C_2  and  N_3
REMARK    3  A    between atoms: C_2  and  C_16
REMARK    4  A    between atoms: C_4  and  C_6
REMARK    5  A    between atoms: C_19  and  C_20
REMARK    6  A    between atoms: C_20  and  N_21
REMARK                            x       y       z     vdW  Elec       q    Type
REMARK                         _______ _______ _______ _____ _____    ______ ____
ROOT
ATOM      1  C   UNL     1      48.719   7.032  15.729  0.00  0.00    +0.000 C 
ATOM      2  C   UNL     1      48.331   8.092  14.690  0.00  0.00    +0.000 C 
ENDROOT
BRANCH   2   3
ATOM      3  C   UNL     1      49.497   8.474  13.782  0.00  0.00    +0.000 A 
ATOM      4  C   UNL     1      49.266   9.227  12.619  0.00  0.00    +0.000 A 
ATOM      5  C   UNL     1      50.324   9.595  11.775  0.00  0.00    +0.000 A 
ATOM      6  C   UNL     1      51.641   9.207  12.063  0.00  0.00    +0.000 A 
ATOM      7  C   UNL     1      51.873   8.445  13.213  0.00  0.00    +0.000 A 
ATOM      8  C   UNL     1      50.815   8.069  14.049  0.00  0.00    +0.000 A 
BRANCH   6   9
ATOM      9  C   UNL     1      52.788   9.617  11.173  0.00  0.00    +0.000 C 
BRANCH   9  10
ATOM     10  N   UNL     1      52.862   8.783   9.992  0.00  0.00    +0.000 N 
ATOM     11  C   UNL     1      52.825   9.360   8.748  0.00  0.00    +0.000 C 
ATOM     12  O   UNL     1      52.680  10.567   8.577  0.00  0.00    +0.000 OA
ATOM     13  N   UNL     1      52.997   8.477   7.716  0.00  0.00    +0.000 N 
ATOM     14  C   UNL     1      53.080   8.896   6.346  0.00  0.00    +0.000 C 
ATOM     15  C   UNL     1      53.591   7.638   5.684  0.00  0.00    +0.000 C 
ATOM     16  O   UNL     1      53.113   6.543   6.488  0.00  0.00    +0.000 OA
ATOM     17  C   UNL     1      52.664   7.083   7.738  0.00  0.00    +0.000 C 
ATOM     18  H   UNL     1      53.514   8.018  10.062  0.00  0.00    +0.000 HD
ENDBRANCH   9  10
ENDBRANCH   6   9
ENDBRANCH   2   3
BRANCH   2  19
ATOM     19  N   UNL     1      47.197   7.679  13.879  0.00  0.00    +0.000 N 
ATOM     20  C   UNL     1      47.151   6.501  13.181  0.00  0.00    +0.000 C 
ATOM     21  O   UNL     1      48.105   5.727  13.134  0.00  0.00    +0.000 OA
ATOM     22  H   UNL     1      46.416   8.325  13.829  0.00  0.00    +0.000 HD
BRANCH  20  23
ATOM     23  C   UNL     1      45.875   6.166  12.529  0.00  0.00    +0.000 A 
ATOM     24  C   UNL     1      45.121   7.171  11.938  0.00  0.00    +0.000 A 
ATOM     25  S   UNL     1      43.694   6.611  11.188  0.00  0.00    +0.000 S 
ATOM     26  C   UNL     1      44.003   5.012  11.676  0.00  0.00    +0.000 A 
ATOM     27  N   UNL     1      43.129   4.012  11.382  0.00  0.00    +0.000 NA
ATOM     28  C   UNL     1      43.467   2.854  11.841  0.00  0.00    +0.000 A 
ATOM     29  N   UNL     1      44.607   2.603  12.559  0.00  0.00    +0.000 N 
ATOM     30  C   UNL     1      45.545   3.572  12.838  0.00  0.00    +0.000 A 
ATOM     31  O   UNL     1      46.592   3.293  13.404  0.00  0.00    +0.000 OA
ATOM     32  C   UNL     1      45.193   4.901  12.374  0.00  0.00    +0.000 A 
ATOM     33  H   UNL     1      44.829   1.671  12.868  0.00  0.00    +0.000 HD
ENDBRANCH  20  23
ENDBRANCH   2  19
TORSDOF 5
ENDMDL
MODEL 9
REMARK VINA RESULT:    -6.293      4.578      7.072
REMARK INTER + INTRA:          -8.337
REMARK INTER:                  -8.015
REMARK INTRA:                  -0.321
REMARK UNBOUND:                -0.205
REMARK  Name = 
REMARK  6 active torsions:
REMARK  status: ('A' for Active; 'I' for Inactive)
REMARK    1  A    between atoms: C_1  and  C_2
REMARK    2  A    between atoms: C_2  and  N_3
REMARK    3  A    between atoms: C_2  and  C_16
REMARK    4  A    between atoms: C_4  and  C_6
REMARK    5  A    between atoms: C_19  and  C_20
REMARK    6  A    between atoms: C_20  and  N_21
REMARK                            x       y       z     vdW  Elec       q    Type
REMARK                         _______ _______ _______ _____ _____    ______ ____
ROOT
ATOM      1  C   UNL     1      48.705   8.315  15.926  0.00  0.00    +0.000 C 
ATOM      2  C   UNL     1      48.276   8.734  14.515  0.00  0.00    +0.000 C 
ENDROOT
BRANCH   2   3
ATOM      3  C   UNL     1      49.455   8.835  13.550  0.00  0.00    +0.000 A 
ATOM      4  C   UNL     1      49.240   9.205  12.213  0.00  0.00    +0.000 A 
ATOM      5  C   UNL     1      50.311   9.311  11.313  0.00  0.00    +0.000 A 
ATOM      6  C   UNL     1      51.623   9.034  11.722  0.00  0.00    +0.000 A 
ATOM      7  C   UNL     1      51.839   8.650  13.049  0.00  0.00    +0.000 A 
ATOM      8  C   UNL     1      50.768   8.534  13.944  0.00  0.00    +0.000 A 
BRANCH   6   9
ATOM      9  C   UNL     1      52.783   9.167  10.766  0.00  0.00    +0.000 C 
BRANCH   9  10
ATOM     10  N   UNL     1      52.675   8.223   9.673  0.00  0.00    +0.000 N 
ATOM     11  C   UNL     1      53.722   7.381   9.395  0.00  0.00    +0.000 C 
ATOM     12  O   UNL     1      54.787   7.420  10.005  0.00  0.00    +0.000 OA
ATOM     13  N   UNL     1      53.463   6.475   8.403  0.00  0.00    +0.000 N 
ATOM     14  C   UNL     1      54.398   5.452   8.028  0.00  0.00    +0.000 C 
ATOM     15  C   UNL     1      53.528   4.558   7.175  0.00  0.00    +0.000 C 
ATOM     16  O   UNL     1      52.520   5.413   6.601  0.00  0.00    +0.000 OA
ATOM     17  C   UNL     1      52.536   6.651   7.324  0.00  0.00    +0.000 C 
ATOM     18  H   UNL     1      51.772   7.783   9.589  0.00  0.00    +0.000 HD
ENDBRANCH   9  10
ENDBRANCH   6   9
ENDBRANCH   2   3
BRANCH   2  19
ATOM     19  N   UNL     1      47.267   7.845  13.959  0.00  0.00    +0.000 N 
ATOM     20  C   UNL     1      47.519   6.555  13.575  0.00  0.00    +0.000 C 
ATOM     21  O   UNL     1      48.647   6.068  13.609  0.00  0.00    +0.000 OA
ATOM     22  H   UNL     1      46.336   8.233  13.843  0.00  0.00    +0.000 HD
BRANCH  20  23
ATOM     23  C   UNL     1      46.360   5.744  13.171  0.00  0.00    +0.000 A 
ATOM     24  C   UNL     1      46.329   4.389  13.474  0.00  0.00    +0.000 A 
ATOM     25  S   UNL     1      44.899   3.604  12.976  0.00  0.00    +0.000 S 
ATOM     26  C   UNL     1      44.293   5.033  12.284  0.00  0.00    +0.000 A 
ATOM     27  N   UNL     1      43.093   5.044  11.644  0.00  0.00    +0.000 NA
ATOM     28  C   UNL     1      42.769   6.185  11.134  0.00  0.00    +0.000 A 
ATOM     29  N   UNL     1      43.531   7.320  11.217  0.00  0.00    +0.000 N 
ATOM     30  C   UNL     1      44.727   7.371  11.897  0.00  0.00    +0.000 A 
ATOM     31  O   UNL     1      45.337   8.422  12.025  0.00  0.00    +0.000 OA
ATOM     32  C   UNL     1      45.155   6.103  12.458  0.00  0.00    +0.000 A 
ATOM     33  H   UNL     1      43.211   8.189  10.821  0.00  0.00    +0.000 HD
ENDBRANCH  20  23
ENDBRANCH   2  19
TORSDOF 5
ENDMDL
