MODEL 1
REMARK VINA RESULT:    -8.877      0.000      0.000
REMARK INTER + INTRA:         -13.673
REMARK INTER:                 -12.510
REMARK INTRA:                  -1.164
REMARK UNBOUND:                -1.164
REMARK  Name = 
REMARK  8 active torsions:
REMARK  status: ('A' for Active; 'I' for Inactive)
REMARK    1  A    between atoms: C_1  and  C_2
REMARK    2  A    between atoms: C_5  and  O_6
REMARK    3  A    between atoms: O_6  and  C_7
REMARK    4  A    between atoms: C_11  and  C_12
REMARK    5  A    between atoms: C_12  and  C_13
REMARK    6  A    between atoms: C_13  and  N_14
REMARK    7  A    between atoms: N_14  and  C_15
REMARK    8  A    between atoms: C_18  and  C_19
REMARK                            x       y       z     vdW  Elec       q    Type
REMARK                         _______ _______ _______ _____ _____    ______ ____
ROOT
ATOM      1  C   UNL     1      43.112   4.921  11.007  0.00  0.00    +0.000 C 
ENDROOT
BRANCH   1   2
ATOM      2  N   UNL     1      43.638   3.573  10.811  0.00  0.00    +0.000 N 
ATOM      3  H   UNL     1      43.027   2.809  11.084  0.00  0.00    +0.000 HD
BRANCH   2   4
ATOM      4  C   UNL     1      44.468   3.311   9.720  0.00  0.00    +0.000 A 
ATOM      5  C   UNL     1      45.125   4.316   8.995  0.00  0.00    +0.000 A 
ATOM      6  C   UNL     1      46.046   4.011   7.985  0.00  0.00    +0.000 A 
ATOM      7  C   UNL     1      46.347   2.683   7.685  0.00  0.00    +0.000 A 
ATOM      8  C   UNL     1      45.709   1.676   8.404  0.00  0.00    +0.000 A 
ATOM      9  F   UNL     1      45.965   0.380   8.163  0.00  0.00    +0.000 F 
ATOM     10  C   UNL     1      44.787   1.983   9.411  0.00  0.00    +0.000 A 
BRANCH   7  11
ATOM     11  C   UNL     1      47.348   2.419   6.612  0.00  0.00    +0.000 C 
ATOM     12  N   UNL     1      47.233   3.102   5.438  0.00  0.00    +0.000 N 
ATOM     13  O   UNL     1      48.250   1.611   6.774  0.00  0.00    +0.000 OA
ATOM     14  H   UNL     1      46.504   3.780   5.258  0.00  0.00    +0.000 HD
ATOM     15  H   UNL     1      47.917   2.918   4.715  0.00  0.00    +0.000 HD
ENDBRANCH   7  11
ENDBRANCH   2   4
ENDBRANCH   1   2
BRANCH   1  16
ATOM     16  C   UNL     1      43.276   5.399  12.455  0.00  0.00    +0.000 C 
BRANCH  16  21
ATOM     17  C   UNL     1      46.826   4.836  13.669  0.00  0.00    +0.000 A 
ATOM     18  C   UNL     1      47.530   5.755  12.893  0.00  0.00    +0.000 A 
ATOM     19  C   UNL     1      46.843   6.669  12.097  0.00  0.00    +0.000 A 
ATOM     20  C   UNL     1      45.452   6.619  12.022  0.00  0.00    +0.000 A 
ATOM     21  C   UNL     1      44.744   5.632  12.721  0.00  0.00    +0.000 A 
ATOM     22  C   UNL     1      45.440   4.757  13.568  0.00  0.00    +0.000 A 
BRANCH  17  23
ATOM     23  O   UNL     1      47.580   4.047  14.494  0.00  0.00    +0.000 OA
BRANCH  23  28
ATOM     24  C   UNL     1      49.092   6.296  16.223  0.00  0.00    +0.000 C 
ATOM     25  C   UNL     1      48.361   5.089  16.776  0.00  0.00    +0.000 C 
ATOM     26  N   UNL     1      49.261   3.915  16.917  0.00  0.00    +0.000 NA
ATOM     27  C   UNL     1      48.080   3.037  16.748  0.00  0.00    +0.000 C 
ATOM     28  C   UNL     1      47.406   4.176  15.929  0.00  0.00    +0.000 C 
ATOM     29  H   UNL     1      49.747   3.838  17.808  0.00  0.00    +0.000 HD
ENDBRANCH  23  28
ENDBRANCH  17  23
ENDBRANCH  16  21
ENDBRANCH   1  16
TORSDOF 7
ENDMDL
MODEL 2
REMARK VINA RESULT:    -7.667      2.623      3.768
REMARK INTER + INTRA:         -11.968
REMARK INTER:                 -10.916
REMARK INTRA:                  -1.052
REMARK UNBOUND:                -1.164
REMARK  Name = 
REMARK  8 active torsions:
REMARK  status: ('A' for Active; 'I' for Inactive)
REMARK    1  A    between atoms: C_1  and  C_2
REMARK    2  A    between atoms: C_5  and  O_6
REMARK    3  A    between atoms: O_6  and  C_7
REMARK    4  A    between atoms: C_11  and  C_12
REMARK    5  A    between atoms: C_12  and  C_13
REMARK    6  A    between atoms: C_13  and  N_14
REMARK    7  A    between atoms: N_14  and  C_15
REMARK    8  A    between atoms: C_18  and  C_19
REMARK                            x       y       z     vdW  Elec       q    Type
REMARK                         _______ _______ _______ _____ _____    ______ ____
ROOT
ATOM      1  C   UNL     1      44.131   3.648  11.965  0.00  0.00    +0.000 C 
ENDROOT
BRANCH   1   2
ATOM      2  N   UNL     1      43.589   3.356  10.641  0.00  0.00    +0.000 N 
ATOM      3  H   UNL     1      42.719   3.820  10.401  0.00  0.00    +0.000 HD
BRANCH   2   4
ATOM      4  C   UNL     1      44.463   3.139   9.573  0.00  0.00    +0.000 A 
ATOM      5  C   UNL     1      45.081   4.178   8.863  0.00  0.00    +0.000 A 
ATOM      6  C   UNL     1      46.045   3.923   7.880  0.00  0.00    +0.000 A 
ATOM      7  C   UNL     1      46.429   2.614   7.592  0.00  0.00    +0.000 A 
ATOM      8  C   UNL     1      45.828   1.574   8.297  0.00  0.00    +0.000 A 
ATOM      9  F   UNL     1      46.162   0.294   8.066  0.00  0.00    +0.000 F 
ATOM     10  C   UNL     1      44.864   1.830   9.277  0.00  0.00    +0.000 A 
BRANCH   7  11
ATOM     11  C   UNL     1      47.472   2.404   6.547  0.00  0.00    +0.000 C 
ATOM     12  N   UNL     1      47.343   3.067   5.363  0.00  0.00    +0.000 N 
ATOM     13  O   UNL     1      48.419   1.658   6.741  0.00  0.00    +0.000 OA
ATOM     14  H   UNL     1      46.577   3.696   5.157  0.00  0.00    +0.000 HD
ATOM     15  H   UNL     1      48.055   2.921   4.659  0.00  0.00    +0.000 HD
ENDBRANCH   7  11
ENDBRANCH   2   4
ENDBRANCH   1   2
BRANCH   1  16
ATOM     16  C   UNL     1      44.212   5.155  12.235  0.00  0.00    +0.000 C 
BRANCH  16  21
ATOM     17  C   UNL     1      47.542   6.973  12.176  0.00  0.00    +0.000 A 
ATOM     18  C   UNL     1      48.124   6.516  13.358  0.00  0.00    +0.000 A 
ATOM     19  C   UNL     1      47.514   5.500  14.091  0.00  0.00    +0.000 A 
ATOM     20  C   UNL     1      46.285   4.986  13.679  0.00  0.00    +0.000 A 
ATOM     21  C   UNL     1      45.646   5.512  12.548  0.00  0.00    +0.000 A 
ATOM     22  C   UNL     1      46.297   6.491  11.782  0.00  0.00    +0.000 A 
BRANCH  17  23
ATOM     23  O   UNL     1      48.262   7.900  11.473  0.00  0.00    +0.000 OA
BRANCH  23  28
ATOM     24  C   UNL     1      46.515  10.582  11.769  0.00  0.00    +0.000 C 
ATOM     25  C   UNL     1      47.997  10.448  12.056  0.00  0.00    +0.000 C 
ATOM     26  N   UNL     1      48.821  10.731  10.852  0.00  0.00    +0.000 NA
ATOM     27  C   UNL     1      49.867   9.841  11.405  0.00  0.00    +0.000 C 
ATOM     28  C   UNL     1      48.749   9.076  12.171  0.00  0.00    +0.000 C 
ATOM     29  H   UNL     1      49.089  11.704  10.722  0.00  0.00    +0.000 HD
ENDBRANCH  23  28
ENDBRANCH  17  23
ENDBRANCH  16  21
ENDBRANCH   1  16
TORSDOF 7
ENDMDL
MODEL 3
REMARK VINA RESULT:    -7.464      2.647      3.505
REMARK INTER + INTRA:         -11.682
REMARK INTER:                 -10.842
REMARK INTRA:                  -0.841
REMARK UNBOUND:                -1.164
REMARK  Name = 
REMARK  8 active torsions:
REMARK  status: ('A' for Active; 'I' for Inactive)
REMARK    1  A    between atoms: C_1  and  C_2
REMARK    2  A    between atoms: C_5  and  O_6
REMARK    3  A    between atoms: O_6  and  C_7
REMARK    4  A    between atoms: C_11  and  C_12
REMARK    5  A    between atoms: C_12  and  C_13
REMARK    6  A    between atoms: C_13  and  N_14
REMARK    7  A    between atoms: N_14  and  C_15
REMARK    8  A    between atoms: C_18  and  C_19
REMARK                            x       y       z     vdW  Elec       q    Type
REMARK                         _______ _______ _______ _____ _____    ______ ____
ROOT
ATOM      1  C   UNL     1      43.966   5.508  11.259  0.00  0.00    +0.000 C 
ENDROOT
BRANCH   1   2
ATOM      2  N   UNL     1      43.727   4.196  10.666  0.00  0.00    +0.000 N 
ATOM      3  H   UNL     1      42.758   3.895  10.618  0.00  0.00    +0.000 HD
BRANCH   2   4
ATOM      4  C   UNL     1      44.539   3.756   9.618  0.00  0.00    +0.000 A 
ATOM      5  C   UNL     1      45.324   4.620   8.841  0.00  0.00    +0.000 A 
ATOM      6  C   UNL     1      46.219   4.134   7.880  0.00  0.00    +0.000 A 
ATOM      7  C   UNL     1      46.364   2.761   7.683  0.00  0.00    +0.000 A 
ATOM      8  C   UNL     1      45.596   1.893   8.456  0.00  0.00    +0.000 A 
ATOM      9  F   UNL     1      45.698   0.561   8.315  0.00  0.00    +0.000 F 
ATOM     10  C   UNL     1      44.701   2.381   9.414  0.00  0.00    +0.000 A 
BRANCH   7  11
ATOM     11  C   UNL     1      47.344   2.300   6.659  0.00  0.00    +0.000 C 
ATOM     12  N   UNL     1      47.344   2.914   5.442  0.00  0.00    +0.000 N 
ATOM     13  O   UNL     1      48.130   1.396   6.898  0.00  0.00    +0.000 OA
ATOM     14  H   UNL     1      46.713   3.667   5.198  0.00  0.00    +0.000 HD
ATOM     15  H   UNL     1      48.013   2.597   4.752  0.00  0.00    +0.000 HD
ENDBRANCH   7  11
ENDBRANCH   2   4
ENDBRANCH   1   2
BRANCH   1  16
ATOM     16  C   UNL     1      44.819   5.419  12.530  0.00  0.00    +0.000 C 
BRANCH  16  21
ATOM     17  C   UNL     1      48.047   7.363  12.083  0.00  0.00    +0.000 A 
ATOM     18  C   UNL     1      47.578   8.676  12.080  0.00  0.00    +0.000 A 
ATOM     19  C   UNL     1      46.245   8.943  12.384  0.00  0.00    +0.000 A 
ATOM     20  C   UNL     1      45.362   7.891  12.625  0.00  0.00    +0.000 A 
ATOM     21  C   UNL     1      45.804   6.565  12.529  0.00  0.00    +0.000 A 
ATOM     22  C   UNL     1      47.161   6.308  12.283  0.00  0.00    +0.000 A 
BRANCH  17  23
ATOM     23  O   UNL     1      49.390   7.207  11.872  0.00  0.00    +0.000 OA
BRANCH  23  28
ATOM     24  C   UNL     1      52.036   7.255  10.047  0.00  0.00    +0.000 C 
ATOM     25  C   UNL     1      51.633   8.307  11.061  0.00  0.00    +0.000 C 
ATOM     26  N   UNL     1      52.178   8.012  12.411  0.00  0.00    +0.000 NA
ATOM     27  C   UNL     1      51.035   8.752  12.992  0.00  0.00    +0.000 C 
ATOM     28  C   UNL     1      50.212   8.393  11.721  0.00  0.00    +0.000 C 
ATOM     29  H   UNL     1      53.101   8.396  12.606  0.00  0.00    +0.000 HD
ENDBRANCH  23  28
ENDBRANCH  17  23
ENDBRANCH  16  21
ENDBRANCH   1  16
TORSDOF 7
ENDMDL
MODEL 4
REMARK VINA RESULT:    -6.741      3.024      4.845
REMARK INTER + INTRA:         -10.664
REMARK INTER:                  -9.537
REMARK INTRA:                  -1.127
REMARK UNBOUND:                -1.164
REMARK  Name = 
REMARK  8 active torsions:
REMARK  status: ('A' for Active; 'I' for Inactive)
REMARK    1  A    between atoms: C_1  and  C_2
REMARK    2  A    between atoms: C_5  and  O_6
REMARK    3  A    between atoms: O_6  and  C_7
REMARK    4  A    between atoms: C_11  and  C_12
REMARK    5  A    between atoms: C_12  and  C_13
REMARK    6  A    between atoms: C_13  and  N_14
REMARK    7  A    between atoms: N_14  and  C_15
REMARK    8  A    between atoms: C_18  and  C_19
REMARK                            x       y       z     vdW  Elec       q    Type
REMARK                         _______ _______ _______ _____ _____    ______ ____
ROOT
ATOM      1  C   UNL     1      47.727   8.138  12.936  0.00  0.00    +0.000 C 
ENDROOT
BRANCH   1   2
ATOM      2  N   UNL     1      46.309   7.919  13.208  0.00  0.00    +0.000 N 
ATOM      3  H   UNL     1      45.721   8.747  13.212  0.00  0.00    +0.000 HD
BRANCH   2   4
ATOM      4  C   UNL     1      45.693   6.753  12.751  0.00  0.00    +0.000 A 
ATOM      5  C   UNL     1      44.671   6.750  11.791  0.00  0.00    +0.000 A 
ATOM      6  C   UNL     1      44.160   5.557  11.265  0.00  0.00    +0.000 A 
ATOM      7  C   UNL     1      44.675   4.328  11.678  0.00  0.00    +0.000 A 
ATOM      8  C   UNL     1      45.697   4.318  12.624  0.00  0.00    +0.000 A 
ATOM      9  F   UNL     1      46.236   3.166  13.053  0.00  0.00    +0.000 F 
ATOM     10  C   UNL     1      46.204   5.512  13.150  0.00  0.00    +0.000 A 
BRANCH   7  11
ATOM     11  C   UNL     1      44.105   3.091  11.071  0.00  0.00    +0.000 C 
ATOM     12  N   UNL     1      44.831   2.447  10.113  0.00  0.00    +0.000 N 
ATOM     13  O   UNL     1      43.016   2.661  11.419  0.00  0.00    +0.000 OA
ATOM     14  H   UNL     1      45.737   2.765   9.794  0.00  0.00    +0.000 HD
ATOM     15  H   UNL     1      44.438   1.608   9.707  0.00  0.00    +0.000 HD
ENDBRANCH   7  11
ENDBRANCH   2   4
ENDBRANCH   1   2
BRANCH   1  16
ATOM     16  C   UNL     1      48.372   9.080  13.959  0.00  0.00    +0.000 C 
BRANCH  16  21
ATOM     17  C   UNL     1      49.236   6.416  16.520  0.00  0.00    +0.000 A 
ATOM     18  C   UNL     1      49.112   7.131  17.710  0.00  0.00    +0.000 A 
ATOM     19  C   UNL     1      48.594   8.424  17.699  0.00  0.00    +0.000 A 
ATOM     20  C   UNL     1      48.262   9.030  16.489  0.00  0.00    +0.000 A 
ATOM     21  C   UNL     1      48.479   8.355  15.280  0.00  0.00    +0.000 A 
ATOM     22  C   UNL     1      48.943   7.031  15.305  0.00  0.00    +0.000 A 
BRANCH  17  23
ATOM     23  O   UNL     1      49.659   5.120  16.640  0.00  0.00    +0.000 OA
BRANCH  23  28
ATOM     24  C   UNL     1      50.471   2.038  17.052  0.00  0.00    +0.000 C 
ATOM     25  C   UNL     1      49.068   2.606  17.115  0.00  0.00    +0.000 C 
ATOM     26  N   UNL     1      48.404   2.589  15.786  0.00  0.00    +0.000 NA
ATOM     27  C   UNL     1      47.589   3.746  16.221  0.00  0.00    +0.000 C 
ATOM     28  C   UNL     1      48.743   4.139  17.190  0.00  0.00    +0.000 C 
ATOM     29  H   UNL     1      47.887   1.741  15.563  0.00  0.00    +0.000 HD
ENDBRANCH  23  28
ENDBRANCH  17  23
ENDBRANCH  16  21
ENDBRANCH   1  16
TORSDOF 7
ENDMDL
MODEL 5
REMARK VINA RESULT:    -6.510      3.119      4.643
REMARK INTER + INTRA:         -10.338
REMARK INTER:                  -9.353
REMARK INTRA:                  -0.985
REMARK UNBOUND:                -1.164
REMARK  Name = 
REMARK  8 active torsions:
REMARK  status: ('A' for Active; 'I' for Inactive)
REMARK    1  A    between atoms: C_1  and  C_2
REMARK    2  A    between atoms: C_5  and  O_6
REMARK    3  A    between atoms: O_6  and  C_7
REMARK    4  A    between atoms: C_11  and  C_12
REMARK    5  A    between atoms: C_12  and  C_13
REMARK    6  A    between atoms: C_13  and  N_14
REMARK    7  A    between atoms: N_14  and  C_15
REMARK    8  A    between atoms: C_18  and  C_19
REMARK                            x       y       z     vdW  Elec       q    Type
REMARK                         _______ _______ _______ _____ _____    ______ ____
ROOT
ATOM      1  C   UNL     1      46.566   8.776  12.546  0.00  0.00    +0.000 C 
ENDROOT
BRANCH   1   2
ATOM      2  N   UNL     1      45.624   7.903  13.240  0.00  0.00    +0.000 N 
ATOM      3  H   UNL     1      44.869   8.365  13.738  0.00  0.00    +0.000 HD
BRANCH   2   4
ATOM      4  C   UNL     1      45.301   6.662  12.687  0.00  0.00    +0.000 A 
ATOM      5  C   UNL     1      45.709   5.443  13.247  0.00  0.00    +0.000 A 
ATOM      6  C   UNL     1      45.267   4.215  12.738  0.00  0.00    +0.000 A 
ATOM      7  C   UNL     1      44.385   4.178  11.658  0.00  0.00    +0.000 A 
ATOM      8  C   UNL     1      43.966   5.382  11.099  0.00  0.00    +0.000 A 
ATOM      9  F   UNL     1      43.113   5.408  10.063  0.00  0.00    +0.000 F 
ATOM     10  C   UNL     1      44.411   6.608  11.608  0.00  0.00    +0.000 A 
BRANCH   7  11
ATOM     11  C   UNL     1      43.934   2.844  11.169  0.00  0.00    +0.000 C 
ATOM     12  N   UNL     1      44.602   2.279  10.124  0.00  0.00    +0.000 N 
ATOM     13  O   UNL     1      42.990   2.267  11.688  0.00  0.00    +0.000 OA
ATOM     14  H   UNL     1      45.389   2.718   9.664  0.00  0.00    +0.000 HD
ATOM     15  H   UNL     1      44.291   1.373   9.798  0.00  0.00    +0.000 HD
ENDBRANCH   7  11
ENDBRANCH   2   4
ENDBRANCH   1   2
BRANCH   1  16
ATOM     16  C   UNL     1      48.016   8.305  12.712  0.00  0.00    +0.000 C 
BRANCH  16  21
ATOM     17  C   UNL     1      49.198   6.626  15.904  0.00  0.00    +0.000 A 
ATOM     18  C   UNL     1      49.189   7.698  16.795  0.00  0.00    +0.000 A 
ATOM     19  C   UNL     1      48.649   8.923  16.411  0.00  0.00    +0.000 A 
ATOM     20  C   UNL     1      48.178   9.099  15.111  0.00  0.00    +0.000 A 
ATOM     21  C   UNL     1      48.277   8.057  14.179  0.00  0.00    +0.000 A 
ATOM     22  C   UNL     1      48.766   6.809  14.593  0.00  0.00    +0.000 A 
BRANCH  17  23
ATOM     23  O   UNL     1      49.656   5.437  16.401  0.00  0.00    +0.000 OA
BRANCH  23  28
ATOM     24  C   UNL     1      50.408   2.452  17.327  0.00  0.00    +0.000 C 
ATOM     25  C   UNL     1      49.021   3.063  17.331  0.00  0.00    +0.000 C 
ATOM     26  N   UNL     1      48.312   2.833  16.046  0.00  0.00    +0.000 NA
ATOM     27  C   UNL     1      47.540   4.072  16.293  0.00  0.00    +0.000 C 
ATOM     28  C   UNL     1      48.735   4.594  17.143  0.00  0.00    +0.000 C 
ATOM     29  H   UNL     1      47.768   1.974  15.992  0.00  0.00    +0.000 HD
ENDBRANCH  23  28
ENDBRANCH  17  23
ENDBRANCH  16  21
ENDBRANCH   1  16
TORSDOF 7
ENDMDL
MODEL 6
REMARK VINA RESULT:    -6.297      3.062      7.656
REMARK INTER + INTRA:         -10.037
REMARK INTER:                  -8.926
REMARK INTRA:                  -1.111
REMARK UNBOUND:                -1.164
REMARK  Name = 
REMARK  8 active torsions:
REMARK  status: ('A' for Active; 'I' for Inactive)
REMARK    1  A    between atoms: C_1  and  C_2
REMARK    2  A    between atoms: C_5  and  O_6
REMARK    3  A    between atoms: O_6  and  C_7
REMARK    4  A    between atoms: C_11  and  C_12
REMARK    5  A    between atoms: C_12  and  C_13
REMARK    6  A    between atoms: C_13  and  N_14
REMARK    7  A    between atoms: N_14  and  C_15
REMARK    8  A    between atoms: C_18  and  C_19
REMARK                            x       y       z     vdW  Elec       q    Type
REMARK                         _______ _______ _______ _____ _____    ______ ____
ROOT
ATOM      1  C   UNL     1      49.785   7.641  13.153  0.00  0.00    +0.000 C 
ENDROOT
BRANCH   1   2
ATOM      2  N   UNL     1      49.287   7.835  14.511  0.00  0.00    +0.000 N 
ATOM      3  H   UNL     1      48.720   8.662  14.667  0.00  0.00    +0.000 HD
BRANCH   2   4
ATOM      4  C   UNL     1      48.942   6.723  15.282  0.00  0.00    +0.000 A 
ATOM      5  C   UNL     1      49.450   6.492  16.568  0.00  0.00    +0.000 A 
ATOM      6  C   UNL     1      48.990   5.434  17.361  0.00  0.00    +0.000 A 
ATOM      7  C   UNL     1      47.991   4.583  16.889  0.00  0.00    +0.000 A 
ATOM      8  C   UNL     1      47.472   4.807  15.617  0.00  0.00    +0.000 A 
ATOM      9  F   UNL     1      46.505   4.024  15.112  0.00  0.00    +0.000 F 
ATOM     10  C   UNL     1      47.935   5.864  14.825  0.00  0.00    +0.000 A 
BRANCH   7  11
ATOM     11  C   UNL     1      47.528   3.483  17.783  0.00  0.00    +0.000 C 
ATOM     12  N   UNL     1      48.257   3.209  18.902  0.00  0.00    +0.000 N 
ATOM     13  O   UNL     1      46.522   2.840  17.525  0.00  0.00    +0.000 OA
ATOM     14  H   UNL     1      49.096   3.715  19.157  0.00  0.00    +0.000 HD
ATOM     15  H   UNL     1      47.936   2.463  19.505  0.00  0.00    +0.000 HD
ENDBRANCH   7  11
ENDBRANCH   2   4
ENDBRANCH   1   2
BRANCH   1  16
ATOM     16  C   UNL     1      49.138   8.613  12.158  0.00  0.00    +0.000 C 
BRANCH  16  21
ATOM     17  C   UNL     1      46.054   6.489  11.544  0.00  0.00    +0.000 A 
ATOM     18  C   UNL     1      45.050   7.313  12.048  0.00  0.00    +0.000 A 
ATOM     19  C   UNL     1      45.345   8.618  12.437  0.00  0.00    +0.000 A 
ATOM     20  C   UNL     1      46.659   9.079  12.386  0.00  0.00    +0.000 A 
ATOM     21  C   UNL     1      47.690   8.222  11.976  0.00  0.00    +0.000 A 
ATOM     22  C   UNL     1      47.374   6.931  11.528  0.00  0.00    +0.000 A 
BRANCH  17  23
ATOM     23  O   UNL     1      45.652   5.260  11.094  0.00  0.00    +0.000 OA
BRANCH  23  28
ATOM     24  C   UNL     1      43.356   3.970  12.936  0.00  0.00    +0.000 C 
ATOM     25  C   UNL     1      43.265   4.221  11.445  0.00  0.00    +0.000 C 
ATOM     26  N   UNL     1      43.740   3.055  10.657  0.00  0.00    +0.000 NA
ATOM     27  C   UNL     1      44.105   3.987   9.567  0.00  0.00    +0.000 C 
ATOM     28  C   UNL     1      44.283   5.102  10.638  0.00  0.00    +0.000 C 
ATOM     29  H   UNL     1      43.032   2.360  10.430  0.00  0.00    +0.000 HD
ENDBRANCH  23  28
ENDBRANCH  17  23
ENDBRANCH  16  21
ENDBRANCH   1  16
TORSDOF 7
ENDMDL
MODEL 7
REMARK VINA RESULT:    -6.050      3.293      8.762
REMARK INTER + INTRA:          -9.689
REMARK INTER:                  -9.007
REMARK INTRA:                  -0.682
REMARK UNBOUND:                -1.164
REMARK  Name = 
REMARK  8 active torsions:
REMARK  status: ('A' for Active; 'I' for Inactive)
REMARK    1  A    between atoms: C_1  and  C_2
REMARK    2  A    between atoms: C_5  and  O_6
REMARK    3  A    between atoms: O_6  and  C_7
REMARK    4  A    between atoms: C_11  and  C_12
REMARK    5  A    between atoms: C_12  and  C_13
REMARK    6  A    between atoms: C_13  and  N_14
REMARK    7  A    between atoms: N_14  and  C_15
REMARK    8  A    between atoms: C_18  and  C_19
REMARK                            x       y       z     vdW  Elec       q    Type
REMARK                         _______ _______ _______ _____ _____    ______ ____
ROOT
ATOM      1  C   UNL     1      47.122   4.821  13.909  0.00  0.00    +0.000 C 
ENDROOT
BRANCH   1   2
ATOM      2  N   UNL     1      46.739   4.095  15.116  0.00  0.00    +0.000 N 
ATOM      3  H   UNL     1      46.352   3.167  14.976  0.00  0.00    +0.000 HD
BRANCH   2   4
ATOM      4  C   UNL     1      47.486   4.260  16.284  0.00  0.00    +0.000 A 
ATOM      5  C   UNL     1      47.574   3.281  17.284  0.00  0.00    +0.000 A 
ATOM      6  C   UNL     1      48.429   3.428  18.383  0.00  0.00    +0.000 A 
ATOM      7  C   UNL     1      49.235   4.560  18.501  0.00  0.00    +0.000 A 
ATOM      8  C   UNL     1      49.164   5.535  17.510  0.00  0.00    +0.000 A 
ATOM      9  F   UNL     1      49.921   6.642  17.567  0.00  0.00    +0.000 F 
ATOM     10  C   UNL     1      48.307   5.387  16.413  0.00  0.00    +0.000 A 
BRANCH   7  11
ATOM     11  C   UNL     1      50.138   4.655  19.684  0.00  0.00    +0.000 C 
ATOM     12  N   UNL     1      51.396   4.138  19.581  0.00  0.00    +0.000 N 
ATOM     13  O   UNL     1      49.767   5.182  20.722  0.00  0.00    +0.000 OA
ATOM     14  H   UNL     1      51.747   3.693  18.742  0.00  0.00    +0.000 HD
ATOM     15  H   UNL     1      52.003   4.207  20.386  0.00  0.00    +0.000 HD
ENDBRANCH   7  11
ENDBRANCH   2   4
ENDBRANCH   1   2
BRANCH   1  16
ATOM     16  C   UNL     1      46.037   5.808  13.461  0.00  0.00    +0.000 C 
BRANCH  16  21
ATOM     17  C   UNL     1      44.811   3.361  10.832  0.00  0.00    +0.000 A 
ATOM     18  C   UNL     1      43.429   3.478  10.973  0.00  0.00    +0.000 A 
ATOM     19  C   UNL     1      42.891   4.461  11.801  0.00  0.00    +0.000 A 
ATOM     20  C   UNL     1      43.736   5.286  12.542  0.00  0.00    +0.000 A 
ATOM     21  C   UNL     1      45.124   5.107  12.481  0.00  0.00    +0.000 A 
ATOM     22  C   UNL     1      45.658   4.156  11.599  0.00  0.00    +0.000 A 
BRANCH  17  23
ATOM     23  O   UNL     1      45.244   2.435   9.922  0.00  0.00    +0.000 OA
BRANCH  23  28
ATOM     24  C   UNL     1      46.937   0.991   7.603  0.00  0.00    +0.000 C 
ATOM     25  C   UNL     1      46.020   2.185   7.425  0.00  0.00    +0.000 C 
ATOM     26  N   UNL     1      46.745   3.470   7.601  0.00  0.00    +0.000 NA
ATOM     27  C   UNL     1      45.470   4.086   8.033  0.00  0.00    +0.000 C 
ATOM     28  C   UNL     1      45.003   2.681   8.512  0.00  0.00    +0.000 C 
ATOM     29  H   UNL     1      47.163   3.857   6.758  0.00  0.00    +0.000 HD
ENDBRANCH  23  28
ENDBRANCH  17  23
ENDBRANCH  16  21
ENDBRANCH   1  16
TORSDOF 7
ENDMDL
