MODEL 1
REMARK VINA RESULT:    -7.888      0.000      0.000
REMARK INTER + INTRA:         -10.206
REMARK INTER:                  -9.733
REMARK INTRA:                  -0.473
REMARK UNBOUND:                -0.473
REMARK  Name = 
REMARK  6 active torsions:
REMARK  status: ('A' for Active; 'I' for Inactive)
REMARK    1  A    between atoms: C_1  and  C_2
REMARK    2  A    between atoms: C_9  and  C_10
REMARK    3  A    between atoms: C_10  and  O_11
REMARK    4  A    between atoms: O_11  and  C_12
REMARK    5  A    between atoms: C_15  and  C_16
REMARK    6  A    between atoms: C_23  and  C_24
REMARK                            x       y       z     vdW  Elec       q    Type
REMARK                         _______ _______ _______ _____ _____    ______ ____
ROOT
ATOM      1  C   UNL     1      47.750   9.551  11.736  0.00  0.00    +0.000 C 
ATOM      2  C   UNL     1      49.091   8.934  12.110  0.00  0.00    +0.000 C 
ATOM      3  C   UNL     1      49.155   7.412  11.885  0.00  0.00    +0.000 C 
ATOM      4  N   UNL     1      48.652   6.643  13.024  0.00  0.00    +0.000 N 
ATOM      5  C   UNL     1      47.501   5.887  12.914  0.00  0.00    +0.000 A 
ATOM      6  C   UNL     1      47.346   4.769  13.715  0.00  0.00    +0.000 A 
ATOM      7  C   UNL     1      46.203   4.025  13.556  0.00  0.00    +0.000 A 
ATOM      8  N   UNL     1      45.241   4.335  12.676  0.00  0.00    +0.000 NA
ATOM      9  C   UNL     1      45.459   5.429  11.921  0.00  0.00    +0.000 A 
ATOM     10  N   UNL     1      46.567   6.206  11.997  0.00  0.00    +0.000 NA
ATOM     11  C   UNL     1      49.136   7.077  14.338  0.00  0.00    +0.000 C 
ATOM     12  C   UNL     1      48.997   8.602  14.519  0.00  0.00    +0.000 C 
ATOM     13  C   UNL     1      47.583   9.045  14.887  0.00  0.00    +0.000 C 
ATOM     14  O   UNL     1      49.533   9.346  13.415  0.00  0.00    +0.000 OA
ENDROOT
BRANCH   9  15
ATOM     15  C   UNL     1      44.416   5.761  10.870  0.00  0.00    +0.000 C 
BRANCH  15  16
ATOM     16  O   UNL     1      43.913   4.574  10.236  0.00  0.00    +0.000 OA
BRANCH  16  17
ATOM     17  C   UNL     1      44.769   3.917   9.396  0.00  0.00    +0.000 A 
ATOM     18  C   UNL     1      45.600   4.497   8.442  0.00  0.00    +0.000 A 
ATOM     19  C   UNL     1      46.421   3.688   7.653  0.00  0.00    +0.000 A 
ATOM     20  C   UNL     1      46.387   2.312   7.844  0.00  0.00    +0.000 A 
ATOM     21  N   UNL     1      45.590   1.703   8.762  0.00  0.00    +0.000 NA
ATOM     22  C   UNL     1      44.807   2.526   9.510  0.00  0.00    +0.000 A 
BRANCH  20  23
ATOM     23  C   UNL     1      47.266   1.428   7.010  0.00  0.00    +0.000 C 
ATOM     24  N   UNL     1      48.294   2.056   6.362  0.00  0.00    +0.000 N 
ATOM     25  O   UNL     1      47.088   0.219   6.916  0.00  0.00    +0.000 OA
ATOM     26  H   UNL     1      48.414   3.056   6.462  0.00  0.00    +0.000 HD
ATOM     27  H   UNL     1      48.920   1.517   5.781  0.00  0.00    +0.000 HD
ENDBRANCH  20  23
ENDBRANCH  16  17
ENDBRANCH  15  16
ENDBRANCH   9  15
TORSDOF 4
ENDMDL
MODEL 2
REMARK VINA RESULT:    -7.003      1.558      2.772
REMARK INTER + INTRA:          -9.113
REMARK INTER:                  -8.641
REMARK INTRA:                  -0.472
REMARK UNBOUND:                -0.473
REMARK  Name = 
REMARK  6 active torsions:
REMARK  status: ('A' for Active; 'I' for Inactive)
REMARK    1  A    between atoms: C_1  and  C_2
REMARK    2  A    between atoms: C_9  and  C_10
REMARK    3  A    between atoms: C_10  and  O_11
REMARK    4  A    between atoms: O_11  and  C_12
REMARK    5  A    between atoms: C_15  and  C_16
REMARK    6  A    between atoms: C_23  and  C_24
REMARK                            x       y       z     vdW  Elec       q    Type
REMARK                         _______ _______ _______ _____ _____    ______ ____
ROOT
ATOM      1  C   UNL     1      49.163   6.648  13.505  0.00  0.00    +0.000 C 
ATOM      2  C   UNL     1      48.989   7.949  14.280  0.00  0.00    +0.000 C 
ATOM      3  C   UNL     1      47.518   8.354  14.485  0.00  0.00    +0.000 C 
ATOM      4  N   UNL     1      46.975   9.123  13.365  0.00  0.00    +0.000 N 
ATOM      5  C   UNL     1      45.972   8.603  12.569  0.00  0.00    +0.000 A 
ATOM      6  C   UNL     1      45.095   9.466  11.936  0.00  0.00    +0.000 A 
ATOM      7  C   UNL     1      44.092   8.911  11.179  0.00  0.00    +0.000 A 
ATOM      8  N   UNL     1      43.934   7.589  11.023  0.00  0.00    +0.000 NA
ATOM      9  C   UNL     1      44.816   6.806  11.675  0.00  0.00    +0.000 A 
ATOM     10  N   UNL     1      45.819   7.270  12.460  0.00  0.00    +0.000 NA
ATOM     11  C   UNL     1      47.834  10.204  12.870  0.00  0.00    +0.000 C 
ATOM     12  C   UNL     1      49.279   9.720  12.637  0.00  0.00    +0.000 C 
ATOM     13  C   UNL     1      49.463   8.965  11.324  0.00  0.00    +0.000 C 
ATOM     14  O   UNL     1      49.815   9.005  13.760  0.00  0.00    +0.000 OA
ENDROOT
BRANCH   9  15
ATOM     15  C   UNL     1      44.615   5.306  11.570  0.00  0.00    +0.000 C 
BRANCH  15  16
ATOM     16  O   UNL     1      44.063   4.938  10.296  0.00  0.00    +0.000 OA
BRANCH  16  17
ATOM     17  C   UNL     1      44.804   4.079   9.531  0.00  0.00    +0.000 A 
ATOM     18  C   UNL     1      44.812   2.689   9.620  0.00  0.00    +0.000 A 
ATOM     19  C   UNL     1      45.628   1.944   8.767  0.00  0.00    +0.000 A 
ATOM     20  C   UNL     1      46.419   2.616   7.842  0.00  0.00    +0.000 A 
ATOM     21  N   UNL     1      46.444   3.970   7.721  0.00  0.00    +0.000 NA
ATOM     22  C   UNL     1      45.634   4.659   8.570  0.00  0.00    +0.000 A 
BRANCH  20  23
ATOM     23  C   UNL     1      47.298   1.832   6.913  0.00  0.00    +0.000 C 
ATOM     24  N   UNL     1      48.367   2.509   6.395  0.00  0.00    +0.000 N 
ATOM     25  O   UNL     1      47.084   0.657   6.637  0.00  0.00    +0.000 OA
ATOM     26  H   UNL     1      48.515   3.479   6.645  0.00  0.00    +0.000 HD
ATOM     27  H   UNL     1      48.995   2.039   5.760  0.00  0.00    +0.000 HD
ENDBRANCH  20  23
ENDBRANCH  16  17
ENDBRANCH  15  16
ENDBRANCH   9  15
TORSDOF 4
ENDMDL
MODEL 3
REMARK VINA RESULT:    -6.990      4.470      8.007
REMARK INTER + INTRA:          -9.097
REMARK INTER:                  -8.702
REMARK INTRA:                  -0.394
REMARK UNBOUND:                -0.473
REMARK  Name = 
REMARK  6 active torsions:
REMARK  status: ('A' for Active; 'I' for Inactive)
REMARK    1  A    between atoms: C_1  and  C_2
REMARK    2  A    between atoms: C_9  and  C_10
REMARK    3  A    between atoms: C_10  and  O_11
REMARK    4  A    between atoms: O_11  and  C_12
REMARK    5  A    between atoms: C_15  and  C_16
REMARK    6  A    between atoms: C_23  and  C_24
REMARK                            x       y       z     vdW  Elec       q    Type
REMARK                         _______ _______ _______ _____ _____    ______ ____
ROOT
ATOM      1  C   UNL     1      43.461   2.550  12.521  0.00  0.00    +0.000 C 
ATOM      2  C   UNL     1      43.882   3.026  11.137  0.00  0.00    +0.000 C 
ATOM      3  C   UNL     1      45.364   3.436  11.049  0.00  0.00    +0.000 C 
ATOM      4  N   UNL     1      45.596   4.828  11.435  0.00  0.00    +0.000 N 
ATOM      5  C   UNL     1      46.322   5.137  12.570  0.00  0.00    +0.000 A 
ATOM      6  C   UNL     1      47.013   6.334  12.627  0.00  0.00    +0.000 A 
ATOM      7  C   UNL     1      47.748   6.591  13.758  0.00  0.00    +0.000 A 
ATOM      8  N   UNL     1      47.817   5.749  14.798  0.00  0.00    +0.000 NA
ATOM      9  C   UNL     1      47.129   4.597  14.673  0.00  0.00    +0.000 A 
ATOM     10  N   UNL     1      46.398   4.254  13.584  0.00  0.00    +0.000 NA
ATOM     11  C   UNL     1      44.667   5.804  10.857  0.00  0.00    +0.000 C 
ATOM     12  C   UNL     1      43.200   5.359  11.023  0.00  0.00    +0.000 C 
ATOM     13  C   UNL     1      42.634   5.635  12.414  0.00  0.00    +0.000 C 
ATOM     14  O   UNL     1      42.977   4.006  10.601  0.00  0.00    +0.000 OA
ENDROOT
BRANCH   9  15
ATOM     15  C   UNL     1      47.247   3.597  15.808  0.00  0.00    +0.000 C 
BRANCH  15  16
ATOM     16  O   UNL     1      48.016   4.129  16.898  0.00  0.00    +0.000 OA
BRANCH  16  17
ATOM     17  C   UNL     1      49.226   3.538  17.142  0.00  0.00    +0.000 A 
ATOM     18  C   UNL     1      50.351   4.151  17.686  0.00  0.00    +0.000 A 
ATOM     19  C   UNL     1      51.521   3.411  17.873  0.00  0.00    +0.000 A 
ATOM     20  C   UNL     1      51.531   2.071  17.506  0.00  0.00    +0.000 A 
ATOM     21  N   UNL     1      50.457   1.433  16.970  0.00  0.00    +0.000 NA
ATOM     22  C   UNL     1      49.337   2.187  16.805  0.00  0.00    +0.000 A 
BRANCH  20  23
ATOM     23  C   UNL     1      52.777   1.260  17.705  0.00  0.00    +0.000 C 
ATOM     24  N   UNL     1      52.590  -0.010  18.175  0.00  0.00    +0.000 N 
ATOM     25  O   UNL     1      53.895   1.696  17.456  0.00  0.00    +0.000 OA
ATOM     26  H   UNL     1      51.652  -0.340  18.369  0.00  0.00    +0.000 HD
ATOM     27  H   UNL     1      53.389  -0.606  18.334  0.00  0.00    +0.000 HD
ENDBRANCH  20  23
ENDBRANCH  16  17
ENDBRANCH  15  16
ENDBRANCH   9  15
TORSDOF 4
ENDMDL
MODEL 4
REMARK VINA RESULT:    -6.936      3.248      5.460
REMARK INTER + INTRA:          -9.030
REMARK INTER:                  -8.485
REMARK INTRA:                  -0.545
REMARK UNBOUND:                -0.473
REMARK  Name = 
REMARK  6 active torsions:
REMARK  status: ('A' for Active; 'I' for Inactive)
REMARK    1  A    between atoms: C_1  and  C_2
REMARK    2  A    between atoms: C_9  and  C_10
REMARK    3  A    between atoms: C_10  and  O_11
REMARK    4  A    between atoms: O_11  and  C_12
REMARK    5  A    between atoms: C_15  and  C_16
REMARK    6  A    between atoms: C_23  and  C_24
REMARK                            x       y       z     vdW  Elec       q    Type
REMARK                         _______ _______ _______ _____ _____    ______ ____
ROOT
ATOM      1  C   UNL     1      47.902   2.868  16.193  0.00  0.00    +0.000 C 
ATOM      2  C   UNL     1      47.651   3.482  17.564  0.00  0.00    +0.000 C 
ATOM      3  C   UNL     1      47.400   5.001  17.524  0.00  0.00    +0.000 C 
ATOM      4  N   UNL     1      48.635   5.785  17.564  0.00  0.00    +0.000 N 
ATOM      5  C   UNL     1      49.024   6.547  16.478  0.00  0.00    +0.000 A 
ATOM      6  C   UNL     1      49.799   7.675  16.686  0.00  0.00    +0.000 A 
ATOM      7  C   UNL     1      50.140   8.423  15.586  0.00  0.00    +0.000 A 
ATOM      8  N   UNL     1      49.768   8.109  14.338  0.00  0.00    +0.000 NA
ATOM      9  C   UNL     1      49.006   7.004  14.208  0.00  0.00    +0.000 A 
ATOM     10  N   UNL     1      48.606   6.222  15.240  0.00  0.00    +0.000 NA
ATOM     11  C   UNL     1      49.616   5.364  18.568  0.00  0.00    +0.000 C 
ATOM     12  C   UNL     1      49.859   3.842  18.522  0.00  0.00    +0.000 C 
ATOM     13  C   UNL     1      50.808   3.412  17.406  0.00  0.00    +0.000 C 
ATOM     14  O   UNL     1      48.641   3.083  18.527  0.00  0.00    +0.000 OA
ENDROOT
BRANCH   9  15
ATOM     15  C   UNL     1      48.515   6.666  12.813  0.00  0.00    +0.000 C 
BRANCH  15  16
ATOM     16  O   UNL     1      47.119   6.966  12.661  0.00  0.00    +0.000 OA
BRANCH  16  17
ATOM     17  C   UNL     1      46.332   5.976  12.136  0.00  0.00    +0.000 A 
ATOM     18  C   UNL     1      45.767   5.956  10.864  0.00  0.00    +0.000 A 
ATOM     19  C   UNL     1      44.981   4.870  10.472  0.00  0.00    +0.000 A 
ATOM     20  C   UNL     1      44.780   3.830  11.372  0.00  0.00    +0.000 A 
ATOM     21  N   UNL     1      45.310   3.809  12.624  0.00  0.00    +0.000 NA
ATOM     22  C   UNL     1      46.070   4.885  12.966  0.00  0.00    +0.000 A 
BRANCH  20  23
ATOM     23  C   UNL     1      43.943   2.654  10.966  0.00  0.00    +0.000 C 
ATOM     24  N   UNL     1      44.341   2.006   9.830  0.00  0.00    +0.000 N 
ATOM     25  O   UNL     1      42.968   2.284  11.610  0.00  0.00    +0.000 OA
ATOM     26  H   UNL     1      45.153   2.337   9.322  0.00  0.00    +0.000 HD
ATOM     27  H   UNL     1      43.817   1.208   9.501  0.00  0.00    +0.000 HD
ENDBRANCH  20  23
ENDBRANCH  16  17
ENDBRANCH  15  16
ENDBRANCH   9  15
TORSDOF 4
ENDMDL
MODEL 5
REMARK VINA RESULT:    -6.920      3.564      8.146
REMARK INTER + INTRA:          -9.011
REMARK INTER:                  -8.468
REMARK INTRA:                  -0.542
REMARK UNBOUND:                -0.473
REMARK  Name = 
REMARK  6 active torsions:
REMARK  status: ('A' for Active; 'I' for Inactive)
REMARK    1  A    between atoms: C_1  and  C_2
REMARK    2  A    between atoms: C_9  and  C_10
REMARK    3  A    between atoms: C_10  and  O_11
REMARK    4  A    between atoms: O_11  and  C_12
REMARK    5  A    between atoms: C_15  and  C_16
REMARK    6  A    between atoms: C_23  and  C_24
REMARK                            x       y       z     vdW  Elec       q    Type
REMARK                         _______ _______ _______ _____ _____    ______ ____
ROOT
ATOM      1  C   UNL     1      45.365   3.250  12.172  0.00  0.00    +0.000 C 
ATOM      2  C   UNL     1      44.677   3.763  10.913  0.00  0.00    +0.000 C 
ATOM      3  C   UNL     1      45.262   5.086  10.386  0.00  0.00    +0.000 C 
ATOM      4  N   UNL     1      44.666   6.266  11.013  0.00  0.00    +0.000 N 
ATOM      5  C   UNL     1      45.418   7.091  11.827  0.00  0.00    +0.000 A 
ATOM      6  C   UNL     1      45.076   8.428  11.937  0.00  0.00    +0.000 A 
ATOM      7  C   UNL     1      45.866   9.223  12.730  0.00  0.00    +0.000 A 
ATOM      8  N   UNL     1      46.932   8.765  13.401  0.00  0.00    +0.000 NA
ATOM      9  C   UNL     1      47.215   7.458  13.242  0.00  0.00    +0.000 A 
ATOM     10  N   UNL     1      46.504   6.608  12.461  0.00  0.00    +0.000 NA
ATOM     11  C   UNL     1      43.203   6.252  11.113  0.00  0.00    +0.000 C 
ATOM     12  C   UNL     1      42.686   4.922  11.695  0.00  0.00    +0.000 C 
ATOM     13  C   UNL     1      42.796   4.839  13.215  0.00  0.00    +0.000 C 
ATOM     14  O   UNL     1      43.246   3.773  11.043  0.00  0.00    +0.000 OA
ENDROOT
BRANCH   9  15
ATOM     15  C   UNL     1      48.458   6.932  13.935  0.00  0.00    +0.000 C 
BRANCH  15  16
ATOM     16  O   UNL     1      48.291   5.566  14.347  0.00  0.00    +0.000 OA
BRANCH  16  17
ATOM     17  C   UNL     1      48.177   5.339  15.692  0.00  0.00    +0.000 A 
ATOM     18  C   UNL     1      47.428   4.336  16.301  0.00  0.00    +0.000 A 
ATOM     19  C   UNL     1      47.409   4.234  17.693  0.00  0.00    +0.000 A 
ATOM     20  C   UNL     1      48.146   5.146  18.441  0.00  0.00    +0.000 A 
ATOM     21  N   UNL     1      48.889   6.141  17.889  0.00  0.00    +0.000 NA
ATOM     22  C   UNL     1      48.881   6.206  16.530  0.00  0.00    +0.000 A 
BRANCH  20  23
ATOM     23  C   UNL     1      48.142   5.047  19.938  0.00  0.00    +0.000 C 
ATOM     24  N   UNL     1      48.533   3.843  20.454  0.00  0.00    +0.000 N 
ATOM     25  O   UNL     1      47.819   5.984  20.660  0.00  0.00    +0.000 OA
ATOM     26  H   UNL     1      48.795   3.091  19.829  0.00  0.00    +0.000 HD
ATOM     27  H   UNL     1      48.549   3.711  21.455  0.00  0.00    +0.000 HD
ENDBRANCH  20  23
ENDBRANCH  16  17
ENDBRANCH  15  16
ENDBRANCH   9  15
TORSDOF 4
ENDMDL
MODEL 6
REMARK VINA RESULT:    -6.892      3.122      7.446
REMARK INTER + INTRA:          -8.976
REMARK INTER:                  -8.601
REMARK INTRA:                  -0.375
REMARK UNBOUND:                -0.473
REMARK  Name = 
REMARK  6 active torsions:
REMARK  status: ('A' for Active; 'I' for Inactive)
REMARK    1  A    between atoms: C_1  and  C_2
REMARK    2  A    between atoms: C_9  and  C_10
REMARK    3  A    between atoms: C_10  and  O_11
REMARK    4  A    between atoms: O_11  and  C_12
REMARK    5  A    between atoms: C_15  and  C_16
REMARK    6  A    between atoms: C_23  and  C_24
REMARK                            x       y       z     vdW  Elec       q    Type
REMARK                         _______ _______ _______ _____ _____    ______ ____
ROOT
ATOM      1  C   UNL     1      45.456   3.207  11.925  0.00  0.00    +0.000 C 
ATOM      2  C   UNL     1      44.542   3.644  10.787  0.00  0.00    +0.000 C 
ATOM      3  C   UNL     1      44.977   4.960  10.116  0.00  0.00    +0.000 C 
ATOM      4  N   UNL     1      44.454   6.147  10.793  0.00  0.00    +0.000 N 
ATOM      5  C   UNL     1      45.305   7.030  11.431  0.00  0.00    +0.000 A 
ATOM      6  C   UNL     1      44.939   8.359  11.549  0.00  0.00    +0.000 A 
ATOM      7  C   UNL     1      45.823   9.211  12.162  0.00  0.00    +0.000 A 
ATOM      8  N   UNL     1      47.007   8.816  12.651  0.00  0.00    +0.000 NA
ATOM      9  C   UNL     1      47.306   7.511  12.495  0.00  0.00    +0.000 A 
ATOM     10  N   UNL     1      46.502   6.607  11.883  0.00  0.00    +0.000 NA
ATOM     11  C   UNL     1      43.033   6.094  11.148  0.00  0.00    +0.000 C 
ATOM     12  C   UNL     1      42.674   4.776  11.861  0.00  0.00    +0.000 C 
ATOM     13  C   UNL     1      43.050   4.763  13.341  0.00  0.00    +0.000 C 
ATOM     14  O   UNL     1      43.155   3.616  11.165  0.00  0.00    +0.000 OA
ENDROOT
BRANCH   9  15
ATOM     15  C   UNL     1      48.669   7.054  12.979  0.00  0.00    +0.000 C 
BRANCH  15  16
ATOM     16  O   UNL     1      48.896   7.436  14.345  0.00  0.00    +0.000 OA
BRANCH  16  17
ATOM     17  C   UNL     1      48.649   6.485  15.298  0.00  0.00    +0.000 A 
ATOM     18  C   UNL     1      49.095   6.500  16.617  0.00  0.00    +0.000 A 
ATOM     19  C   UNL     1      48.761   5.449  17.474  0.00  0.00    +0.000 A 
ATOM     20  C   UNL     1      47.985   4.406  16.982  0.00  0.00    +0.000 A 
ATOM     21  N   UNL     1      47.530   4.349  15.703  0.00  0.00    +0.000 NA
ATOM     22  C   UNL     1      47.877   5.392  14.900  0.00  0.00    +0.000 A 
BRANCH  20  23
ATOM     23  C   UNL     1      47.611   3.272  17.890  0.00  0.00    +0.000 C 
ATOM     24  N   UNL     1      48.404   3.108  18.992  0.00  0.00    +0.000 N 
ATOM     25  O   UNL     1      46.654   2.539  17.671  0.00  0.00    +0.000 OA
ATOM     26  H   UNL     1      49.187   3.733  19.144  0.00  0.00    +0.000 HD
ATOM     27  H   UNL     1      48.208   2.360  19.641  0.00  0.00    +0.000 HD
ENDBRANCH  20  23
ENDBRANCH  16  17
ENDBRANCH  15  16
ENDBRANCH   9  15
TORSDOF 4
ENDMDL
MODEL 7
REMARK VINA RESULT:    -6.519      4.361      6.294
REMARK INTER + INTRA:          -8.516
REMARK INTER:                  -8.161
REMARK INTRA:                  -0.355
REMARK UNBOUND:                -0.473
REMARK  Name = 
REMARK  6 active torsions:
REMARK  status: ('A' for Active; 'I' for Inactive)
REMARK    1  A    between atoms: C_1  and  C_2
REMARK    2  A    between atoms: C_9  and  C_10
REMARK    3  A    between atoms: C_10  and  O_11
REMARK    4  A    between atoms: O_11  and  C_12
REMARK    5  A    between atoms: C_15  and  C_16
REMARK    6  A    between atoms: C_23  and  C_24
REMARK                            x       y       z     vdW  Elec       q    Type
REMARK                         _______ _______ _______ _____ _____    ______ ____
ROOT
ATOM      1  C   UNL     1      49.323   7.478  18.614  0.00  0.00    +0.000 C 
ATOM      2  C   UNL     1      50.843   7.445  18.528  0.00  0.00    +0.000 C 
ATOM      3  C   UNL     1      51.381   6.468  17.465  0.00  0.00    +0.000 C 
ATOM      4  N   UNL     1      51.528   5.102  17.967  0.00  0.00    +0.000 N 
ATOM      5  C   UNL     1      50.742   4.078  17.472  0.00  0.00    +0.000 A 
ATOM      6  C   UNL     1      51.230   2.783  17.487  0.00  0.00    +0.000 A 
ATOM      7  C   UNL     1      50.433   1.797  16.959  0.00  0.00    +0.000 A 
ATOM      8  N   UNL     1      49.217   2.030  16.446  0.00  0.00    +0.000 NA
ATOM      9  C   UNL     1      48.808   3.314  16.453  0.00  0.00    +0.000 A 
ATOM     10  N   UNL     1      49.539   4.350  16.933  0.00  0.00    +0.000 NA
ATOM     11  C   UNL     1      52.174   4.979  19.277  0.00  0.00    +0.000 C 
ATOM     12  C   UNL     1      51.557   5.946  20.307  0.00  0.00    +0.000 C 
ATOM     13  C   UNL     1      50.243   5.444  20.901  0.00  0.00    +0.000 C 
ATOM     14  O   UNL     1      51.457   7.292  19.819  0.00  0.00    +0.000 OA
ENDROOT
BRANCH   9  15
ATOM     15  C   UNL     1      47.465   3.613  15.814  0.00  0.00    +0.000 C 
BRANCH  15  16
ATOM     16  O   UNL     1      47.433   3.198  14.439  0.00  0.00    +0.000 OA
BRANCH  16  17
ATOM     17  C   UNL     1      46.482   3.780  13.645  0.00  0.00    +0.000 A 
ATOM     18  C   UNL     1      45.740   3.151  12.648  0.00  0.00    +0.000 A 
ATOM     19  C   UNL     1      44.803   3.883  11.916  0.00  0.00    +0.000 A 
ATOM     20  C   UNL     1      44.635   5.232  12.204  0.00  0.00    +0.000 A 
ATOM     21  N   UNL     1      45.338   5.887  13.165  0.00  0.00    +0.000 NA
ATOM     22  C   UNL     1      46.241   5.138  13.857  0.00  0.00    +0.000 A 
BRANCH  20  23
ATOM     23  C   UNL     1      43.629   6.033  11.431  0.00  0.00    +0.000 C 
ATOM     24  N   UNL     1      43.943   7.348  11.233  0.00  0.00    +0.000 N 
ATOM     25  O   UNL     1      42.592   5.545  10.994  0.00  0.00    +0.000 OA
ATOM     26  H   UNL     1      44.809   7.719  11.607  0.00  0.00    +0.000 HD
ATOM     27  H   UNL     1      43.305   7.943  10.724  0.00  0.00    +0.000 HD
ENDBRANCH  20  23
ENDBRANCH  16  17
ENDBRANCH  15  16
ENDBRANCH   9  15
TORSDOF 4
ENDMDL
MODEL 8
REMARK VINA RESULT:    -6.393      3.348      4.830
REMARK INTER + INTRA:          -8.360
REMARK INTER:                  -7.680
REMARK INTRA:                  -0.681
REMARK UNBOUND:                -0.473
REMARK  Name = 
REMARK  6 active torsions:
REMARK  status: ('A' for Active; 'I' for Inactive)
REMARK    1  A    between atoms: C_1  and  C_2
REMARK    2  A    between atoms: C_9  and  C_10
REMARK    3  A    between atoms: C_10  and  O_11
REMARK    4  A    between atoms: O_11  and  C_12
REMARK    5  A    between atoms: C_15  and  C_16
REMARK    6  A    between atoms: C_23  and  C_24
REMARK                            x       y       z     vdW  Elec       q    Type
REMARK                         _______ _______ _______ _____ _____    ______ ____
ROOT
ATOM      1  C   UNL     1      49.707   7.306  13.327  0.00  0.00    +0.000 C 
ATOM      2  C   UNL     1      50.616   7.967  14.355  0.00  0.00    +0.000 C 
ATOM      3  C   UNL     1      50.793   7.144  15.644  0.00  0.00    +0.000 C 
ATOM      4  N   UNL     1      49.742   7.395  16.632  0.00  0.00    +0.000 N 
ATOM      5  C   UNL     1      48.844   6.403  16.977  0.00  0.00    +0.000 A 
ATOM      6  C   UNL     1      48.270   6.417  18.236  0.00  0.00    +0.000 A 
ATOM      7  C   UNL     1      47.406   5.399  18.553  0.00  0.00    +0.000 A 
ATOM      8  N   UNL     1      47.092   4.410  17.705  0.00  0.00    +0.000 NA
ATOM      9  C   UNL     1      47.693   4.450  16.499  0.00  0.00    +0.000 A 
ATOM     10  N   UNL     1      48.574   5.405  16.113  0.00  0.00    +0.000 NA
ATOM     11  C   UNL     1      49.418   8.806  16.859  0.00  0.00    +0.000 C 
ATOM     12  C   UNL     1      49.204   9.561  15.533  0.00  0.00    +0.000 C 
ATOM     13  C   UNL     1      47.823   9.337  14.921  0.00  0.00    +0.000 C 
ATOM     14  O   UNL     1      50.262   9.341  14.588  0.00  0.00    +0.000 OA
ENDROOT
BRANCH   9  15
ATOM     15  C   UNL     1      47.406   3.305  15.547  0.00  0.00    +0.000 C 
BRANCH  15  16
ATOM     16  O   UNL     1      47.695   3.667  14.187  0.00  0.00    +0.000 OA
BRANCH  16  17
ATOM     17  C   UNL     1      46.658   4.178  13.455  0.00  0.00    +0.000 A 
ATOM     18  C   UNL     1      46.359   5.525  13.270  0.00  0.00    +0.000 A 
ATOM     19  C   UNL     1      45.259   5.891  12.492  0.00  0.00    +0.000 A 
ATOM     20  C   UNL     1      44.483   4.891  11.918  0.00  0.00    +0.000 A 
ATOM     21  N   UNL     1      44.736   3.565  12.073  0.00  0.00    +0.000 NA
ATOM     22  C   UNL     1      45.817   3.250  12.837  0.00  0.00    +0.000 A 
BRANCH  20  23
ATOM     23  C   UNL     1      43.301   5.266  11.075  0.00  0.00    +0.000 C 
ATOM     24  N   UNL     1      42.281   5.897  11.731  0.00  0.00    +0.000 N 
ATOM     25  O   UNL     1      43.247   5.034   9.872  0.00  0.00    +0.000 OA
ATOM     26  H   UNL     1      42.358   6.075  12.725  0.00  0.00    +0.000 HD
ATOM     27  H   UNL     1      41.454   6.172  11.221  0.00  0.00    +0.000 HD
ENDBRANCH  20  23
ENDBRANCH  16  17
ENDBRANCH  15  16
ENDBRANCH   9  15
TORSDOF 4
ENDMDL
MODEL 9
REMARK VINA RESULT:    -5.907      4.197      6.677
REMARK INTER + INTRA:          -7.762
REMARK INTER:                  -7.261
REMARK INTRA:                  -0.501
REMARK UNBOUND:                -0.473
REMARK  Name = 
REMARK  6 active torsions:
REMARK  status: ('A' for Active; 'I' for Inactive)
REMARK    1  A    between atoms: C_1  and  C_2
REMARK    2  A    between atoms: C_9  and  C_10
REMARK    3  A    between atoms: C_10  and  O_11
REMARK    4  A    between atoms: O_11  and  C_12
REMARK    5  A    between atoms: C_15  and  C_16
REMARK    6  A    between atoms: C_23  and  C_24
REMARK                            x       y       z     vdW  Elec       q    Type
REMARK                         _______ _______ _______ _____ _____    ______ ____
ROOT
ATOM      1  C   UNL     1      49.649   3.900  17.894  0.00  0.00    +0.000 C 
ATOM      2  C   UNL     1      48.614   4.214  18.967  0.00  0.00    +0.000 C 
ATOM      3  C   UNL     1      47.600   5.295  18.549  0.00  0.00    +0.000 C 
ATOM      4  N   UNL     1      48.071   6.655  18.817  0.00  0.00    +0.000 N 
ATOM      5  C   UNL     1      48.340   7.527  17.779  0.00  0.00    +0.000 A 
ATOM      6  C   UNL     1      48.216   8.889  17.990  0.00  0.00    +0.000 A 
ATOM      7  C   UNL     1      48.462   9.723  16.927  0.00  0.00    +0.000 A 
ATOM      8  N   UNL     1      48.820   9.281  15.714  0.00  0.00    +0.000 NA
ATOM      9  C   UNL     1      48.913   7.944  15.574  0.00  0.00    +0.000 A 
ATOM     10  N   UNL     1      48.666   7.050  16.563  0.00  0.00    +0.000 NA
ATOM     11  C   UNL     1      48.664   6.866  20.141  0.00  0.00    +0.000 C 
ATOM     12  C   UNL     1      49.706   5.780  20.476  0.00  0.00    +0.000 C 
ATOM     13  C   UNL     1      51.065   6.019  19.822  0.00  0.00    +0.000 C 
ATOM     14  O   UNL     1      49.218   4.450  20.250  0.00  0.00    +0.000 OA
ENDROOT
BRANCH   9  15
ATOM     15  C   UNL     1      49.250   7.417  14.192  0.00  0.00    +0.000 C 
BRANCH  15  16
ATOM     16  O   UNL     1      48.728   6.094  13.992  0.00  0.00    +0.000 OA
BRANCH  16  17
ATOM     17  C   UNL     1      47.423   6.004  13.590  0.00  0.00    +0.000 A 
ATOM     18  C   UNL     1      46.723   6.943  12.837  0.00  0.00    +0.000 A 
ATOM     19  C   UNL     1      45.387   6.708  12.505  0.00  0.00    +0.000 A 
ATOM     20  C   UNL     1      44.786   5.532  12.940  0.00  0.00    +0.000 A 
ATOM     21  N   UNL     1      45.430   4.590  13.678  0.00  0.00    +0.000 NA
ATOM     22  C   UNL     1      46.730   4.856  13.979  0.00  0.00    +0.000 A 
BRANCH  20  23
ATOM     23  C   UNL     1      43.353   5.261  12.588  0.00  0.00    +0.000 C 
ATOM     24  N   UNL     1      42.967   5.648  11.335  0.00  0.00    +0.000 N 
ATOM     25  O   UNL     1      42.574   4.720  13.364  0.00  0.00    +0.000 OA
ATOM     26  H   UNL     1      43.637   6.090  10.717  0.00  0.00    +0.000 HD
ATOM     27  H   UNL     1      42.014   5.496  11.038  0.00  0.00    +0.000 HD
ENDBRANCH  20  23
ENDBRANCH  16  17
ENDBRANCH  15  16
ENDBRANCH   9  15
TORSDOF 4
ENDMDL
