MODEL 1
REMARK VINA RESULT:    -8.250      0.000      0.000
REMARK INTER + INTRA:         -11.971
REMARK INTER:                 -11.384
REMARK INTRA:                  -0.587
REMARK UNBOUND:                -0.587
REMARK  Name = 
REMARK  7 active torsions:
REMARK  status: ('A' for Active; 'I' for Inactive)
REMARK    1  A    between atoms: N_1  and  C_2
REMARK    2  A    between atoms: C_2  and  C_3
REMARK    3  A    between atoms: C_3  and  N_4
REMARK    4  A    between atoms: C_3  and  C_17
REMARK    5  A    between atoms: C_5  and  C_7
REMARK    6  A    between atoms: C_20  and  O_21
REMARK    7  A    between atoms: O_21  and  C_22
REMARK                            x       y       z     vdW  Elec       q    Type
REMARK                         _______ _______ _______ _____ _____    ______ ____
ROOT
ATOM      1  C   UNL     1      46.450   6.975  12.732  0.00  0.00    +0.000 C 
ENDROOT
BRANCH   1   2
ATOM      2  C   UNL     1      45.924   5.923  11.752  0.00  0.00    +0.000 A 
ATOM      3  C   UNL     1      45.351   4.740  12.240  0.00  0.00    +0.000 A 
ATOM      4  C   UNL     1      44.902   3.747  11.364  0.00  0.00    +0.000 A 
ATOM      5  C   UNL     1      44.964   3.938   9.981  0.00  0.00    +0.000 A 
ATOM      6  C   UNL     1      45.528   5.114   9.481  0.00  0.00    +0.000 A 
ATOM      7  C   UNL     1      45.999   6.099  10.358  0.00  0.00    +0.000 A 
BRANCH   5   8
ATOM      8  O   UNL     1      44.573   2.994   9.057  0.00  0.00    +0.000 OA
BRANCH   8   9
ATOM      9  C   UNL     1      45.531   2.466   8.197  0.00  0.00    +0.000 A 
ATOM     10  C   UNL     1      45.931   3.262   7.133  0.00  0.00    +0.000 A 
ATOM     11  C   UNL     1      46.896   2.761   6.261  0.00  0.00    +0.000 A 
ATOM     12  C   UNL     1      47.426   1.495   6.485  0.00  0.00    +0.000 A 
ATOM     13  C   UNL     1      46.954   0.768   7.563  0.00  0.00    +0.000 A 
ATOM     14  N   UNL     1      46.003   1.215   8.408  0.00  0.00    +0.000 NA
ENDBRANCH   8   9
ENDBRANCH   5   8
ENDBRANCH   1   2
BRANCH   1  15
ATOM     15  N   UNL     1      46.675   6.343  14.020  0.00  0.00    +0.000 N 
ATOM     16  C   UNL     1      47.916   5.966  14.468  0.00  0.00    +0.000 C 
ATOM     17  O   UNL     1      48.963   6.275  13.912  0.00  0.00    +0.000 OA
ATOM     18  H   UNL     1      45.878   5.822  14.364  0.00  0.00    +0.000 HD
BRANCH  16  19
ATOM     19  C   UNL     1      47.913   5.191  15.709  0.00  0.00    +0.000 A 
ATOM     20  C   UNL     1      47.464   3.878  15.736  0.00  0.00    +0.000 A 
ATOM     21  S   UNL     1      47.555   3.170  17.289  0.00  0.00    +0.000 S 
ATOM     22  C   UNL     1      48.145   4.614  17.978  0.00  0.00    +0.000 A 
ATOM     23  N   UNL     1      48.399   4.716  19.307  0.00  0.00    +0.000 NA
ATOM     24  C   UNL     1      48.812   5.881  19.685  0.00  0.00    +0.000 A 
ATOM     25  N   UNL     1      49.006   6.955  18.851  0.00  0.00    +0.000 N 
ATOM     26  C   UNL     1      48.795   6.888  17.499  0.00  0.00    +0.000 A 
ATOM     27  O   UNL     1      49.044   7.842  16.776  0.00  0.00    +0.000 OA
ATOM     28  C   UNL     1      48.304   5.606  17.031  0.00  0.00    +0.000 A 
ATOM     29  H   UNL     1      49.359   7.834  19.198  0.00  0.00    +0.000 HD
ENDBRANCH  16  19
ENDBRANCH   1  15
BRANCH   1  30
ATOM     30  C   UNL     1      45.487   8.189  12.851  0.00  0.00    +0.000 C 
BRANCH  30  31
ATOM     31  N   UNL     1      46.153   9.496  12.895  0.00  0.00    +0.000 NA
ATOM     32  H   UNL     1      45.549  10.147  13.395  0.00  0.00    +0.000 HD
ATOM     33  H   UNL     1      46.246   9.859  11.946  0.00  0.00    +0.000 HD
ENDBRANCH  30  31
ENDBRANCH   1  30
TORSDOF 7
ENDMDL
MODEL 2
REMARK VINA RESULT:    -8.136      3.141      4.247
REMARK INTER + INTRA:         -11.815
REMARK INTER:                 -10.550
REMARK INTRA:                  -1.265
REMARK UNBOUND:                -0.587
REMARK  Name = 
REMARK  7 active torsions:
REMARK  status: ('A' for Active; 'I' for Inactive)
REMARK    1  A    between atoms: N_1  and  C_2
REMARK    2  A    between atoms: C_2  and  C_3
REMARK    3  A    between atoms: C_3  and  N_4
REMARK    4  A    between atoms: C_3  and  C_17
REMARK    5  A    between atoms: C_5  and  C_7
REMARK    6  A    between atoms: C_20  and  O_21
REMARK    7  A    between atoms: O_21  and  C_22
REMARK                            x       y       z     vdW  Elec       q    Type
REMARK                         _______ _______ _______ _____ _____    ______ ____
ROOT
ATOM      1  C   UNL     1      46.359   5.796  13.612  0.00  0.00    +0.000 C 
ENDROOT
BRANCH   1   2
ATOM      2  C   UNL     1      45.859   5.132  12.326  0.00  0.00    +0.000 A 
ATOM      3  C   UNL     1      45.326   3.836  12.372  0.00  0.00    +0.000 A 
ATOM      4  C   UNL     1      44.902   3.195  11.204  0.00  0.00    +0.000 A 
ATOM      5  C   UNL     1      44.950   3.855   9.973  0.00  0.00    +0.000 A 
ATOM      6  C   UNL     1      45.474   5.148   9.914  0.00  0.00    +0.000 A 
ATOM      7  C   UNL     1      45.919   5.783  11.080  0.00  0.00    +0.000 A 
BRANCH   5   8
ATOM      8  O   UNL     1      44.582   3.278   8.776  0.00  0.00    +0.000 OA
BRANCH   8   9
ATOM      9  C   UNL     1      45.560   2.654   8.009  0.00  0.00    +0.000 A 
ATOM     10  C   UNL     1      46.012   3.336   6.887  0.00  0.00    +0.000 A 
ATOM     11  C   UNL     1      46.998   2.738   6.105  0.00  0.00    +0.000 A 
ATOM     12  C   UNL     1      47.497   1.492   6.471  0.00  0.00    +0.000 A 
ATOM     13  C   UNL     1      46.974   0.882   7.598  0.00  0.00    +0.000 A 
ATOM     14  N   UNL     1      46.002   1.423   8.358  0.00  0.00    +0.000 NA
ENDBRANCH   8   9
ENDBRANCH   5   8
ENDBRANCH   1   2
BRANCH   1  15
ATOM     15  N   UNL     1      47.458   6.685  13.282  0.00  0.00    +0.000 N 
ATOM     16  C   UNL     1      47.345   8.053  13.271  0.00  0.00    +0.000 C 
ATOM     17  O   UNL     1      46.370   8.658  13.698  0.00  0.00    +0.000 OA
ATOM     18  H   UNL     1      48.149   6.270  12.668  0.00  0.00    +0.000 HD
BRANCH  16  19
ATOM     19  C   UNL     1      48.512   8.763  12.745  0.00  0.00    +0.000 A 
ATOM     20  C   UNL     1      48.384   9.706  11.735  0.00  0.00    +0.000 A 
ATOM     21  S   UNL     1      49.876  10.408  11.283  0.00  0.00    +0.000 S 
ATOM     22  C   UNL     1      50.737   9.434  12.385  0.00  0.00    +0.000 A 
ATOM     23  N   UNL     1      52.089   9.496  12.484  0.00  0.00    +0.000 NA
ATOM     24  C   UNL     1      52.602   8.676  13.341  0.00  0.00    +0.000 A 
ATOM     25  N   UNL     1      51.883   7.803  14.121  0.00  0.00    +0.000 N 
ATOM     26  C   UNL     1      50.515   7.730  14.079  0.00  0.00    +0.000 A 
ATOM     27  O   UNL     1      49.902   6.991  14.836  0.00  0.00    +0.000 OA
ATOM     28  C   UNL     1      49.896   8.614  13.111  0.00  0.00    +0.000 A 
ATOM     29  H   UNL     1      52.335   7.205  14.795  0.00  0.00    +0.000 HD
ENDBRANCH  16  19
ENDBRANCH   1  15
BRANCH   1  30
ATOM     30  C   UNL     1      46.772   4.748  14.683  0.00  0.00    +0.000 C 
BRANCH  30  31
ATOM     31  N   UNL     1      47.864   5.175  15.566  0.00  0.00    +0.000 NA
ATOM     32  H   UNL     1      47.486   5.307  16.502  0.00  0.00    +0.000 HD
ATOM     33  H   UNL     1      48.208   6.086  15.261  0.00  0.00    +0.000 HD
ENDBRANCH  30  31
ENDBRANCH   1  30
TORSDOF 7
ENDMDL
MODEL 3
REMARK VINA RESULT:    -8.082      1.822      2.508
REMARK INTER + INTRA:         -11.739
REMARK INTER:                 -10.774
REMARK INTRA:                  -0.966
REMARK UNBOUND:                -0.587
REMARK  Name = 
REMARK  7 active torsions:
REMARK  status: ('A' for Active; 'I' for Inactive)
REMARK    1  A    between atoms: N_1  and  C_2
REMARK    2  A    between atoms: C_2  and  C_3
REMARK    3  A    between atoms: C_3  and  N_4
REMARK    4  A    between atoms: C_3  and  C_17
REMARK    5  A    between atoms: C_5  and  C_7
REMARK    6  A    between atoms: C_20  and  O_21
REMARK    7  A    between atoms: O_21  and  C_22
REMARK                            x       y       z     vdW  Elec       q    Type
REMARK                         _______ _______ _______ _____ _____    ______ ____
ROOT
ATOM      1  C   UNL     1      45.998   8.271  12.275  0.00  0.00    +0.000 C 
ENDROOT
BRANCH   1   2
ATOM      2  C   UNL     1      45.506   7.050  11.492  0.00  0.00    +0.000 A 
ATOM      3  C   UNL     1      44.209   6.561  11.706  0.00  0.00    +0.000 A 
ATOM      4  C   UNL     1      43.754   5.423  11.034  0.00  0.00    +0.000 A 
ATOM      5  C   UNL     1      44.563   4.782  10.091  0.00  0.00    +0.000 A 
ATOM      6  C   UNL     1      45.854   5.263   9.864  0.00  0.00    +0.000 A 
ATOM      7  C   UNL     1      46.319   6.389  10.554  0.00  0.00    +0.000 A 
BRANCH   5   8
ATOM      8  O   UNL     1      44.196   3.639   9.414  0.00  0.00    +0.000 OA
BRANCH   8   9
ATOM      9  C   UNL     1      45.100   3.077   8.518  0.00  0.00    +0.000 A 
ATOM     10  C   UNL     1      45.590   1.815   8.824  0.00  0.00    +0.000 A 
ATOM     11  C   UNL     1      46.490   1.225   7.938  0.00  0.00    +0.000 A 
ATOM     12  C   UNL     1      46.863   1.910   6.786  0.00  0.00    +0.000 A 
ATOM     13  C   UNL     1      46.334   3.171   6.574  0.00  0.00    +0.000 A 
ATOM     14  N   UNL     1      45.482   3.778   7.424  0.00  0.00    +0.000 NA
ENDBRANCH   8   9
ENDBRANCH   5   8
ENDBRANCH   1   2
BRANCH   1  15
ATOM     15  N   UNL     1      46.603   7.818  13.514  0.00  0.00    +0.000 N 
ATOM     16  C   UNL     1      47.937   7.517  13.636  0.00  0.00    +0.000 C 
ATOM     17  O   UNL     1      48.771   7.760  12.773  0.00  0.00    +0.000 OA
ATOM     18  H   UNL     1      45.960   7.338  14.132  0.00  0.00    +0.000 HD
BRANCH  16  19
ATOM     19  C   UNL     1      48.317   6.913  14.914  0.00  0.00    +0.000 A 
ATOM     20  C   UNL     1      49.166   7.569  15.794  0.00  0.00    +0.000 A 
ATOM     21  S   UNL     1      49.469   6.679  17.222  0.00  0.00    +0.000 S 
ATOM     22  C   UNL     1      48.517   5.372  16.680  0.00  0.00    +0.000 A 
ATOM     23  N   UNL     1      48.380   4.239  17.414  0.00  0.00    +0.000 NA
ATOM     24  C   UNL     1      47.654   3.326  16.858  0.00  0.00    +0.000 A 
ATOM     25  N   UNL     1      47.039   3.446  15.636  0.00  0.00    +0.000 N 
ATOM     26  C   UNL     1      47.122   4.584  14.876  0.00  0.00    +0.000 A 
ATOM     27  O   UNL     1      46.505   4.682  13.825  0.00  0.00    +0.000 OA
ATOM     28  C   UNL     1      47.950   5.628  15.447  0.00  0.00    +0.000 A 
ATOM     29  H   UNL     1      46.459   2.710  15.264  0.00  0.00    +0.000 HD
ENDBRANCH  16  19
ENDBRANCH   1  15
BRANCH   1  30
ATOM     30  C   UNL     1      44.855   9.292  12.536  0.00  0.00    +0.000 C 
BRANCH  30  31
ATOM     31  N   UNL     1      45.233  10.696  12.340  0.00  0.00    +0.000 NA
ATOM     32  H   UNL     1      44.394  11.224  12.108  0.00  0.00    +0.000 HD
ATOM     33  H   UNL     1      45.853  10.769  11.533  0.00  0.00    +0.000 HD
ENDBRANCH  30  31
ENDBRANCH   1  30
TORSDOF 7
ENDMDL
MODEL 4
REMARK VINA RESULT:    -7.745      1.778      2.362
REMARK INTER + INTRA:         -11.274
REMARK INTER:                  -9.923
REMARK INTRA:                  -1.351
REMARK UNBOUND:                -0.587
REMARK  Name = 
REMARK  7 active torsions:
REMARK  status: ('A' for Active; 'I' for Inactive)
REMARK    1  A    between atoms: N_1  and  C_2
REMARK    2  A    between atoms: C_2  and  C_3
REMARK    3  A    between atoms: C_3  and  N_4
REMARK    4  A    between atoms: C_3  and  C_17
REMARK    5  A    between atoms: C_5  and  C_7
REMARK    6  A    between atoms: C_20  and  O_21
REMARK    7  A    between atoms: O_21  and  C_22
REMARK                            x       y       z     vdW  Elec       q    Type
REMARK                         _______ _______ _______ _____ _____    ______ ____
ROOT
ATOM      1  C   UNL     1      48.379   7.303  14.163  0.00  0.00    +0.000 C 
ENDROOT
BRANCH   1   2
ATOM      2  C   UNL     1      47.338   6.659  13.243  0.00  0.00    +0.000 A 
ATOM      3  C   UNL     1      46.840   5.383  13.539  0.00  0.00    +0.000 A 
ATOM      4  C   UNL     1      45.920   4.759  12.691  0.00  0.00    +0.000 A 
ATOM      5  C   UNL     1      45.434   5.420  11.560  0.00  0.00    +0.000 A 
ATOM      6  C   UNL     1      45.918   6.694  11.256  0.00  0.00    +0.000 A 
ATOM      7  C   UNL     1      46.857   7.310  12.093  0.00  0.00    +0.000 A 
BRANCH   5   8
ATOM      8  O   UNL     1      44.553   4.858  10.661  0.00  0.00    +0.000 OA
BRANCH   8   9
ATOM      9  C   UNL     1      45.061   4.070   9.633  0.00  0.00    +0.000 A 
ATOM     10  C   UNL     1      44.929   2.695   9.769  0.00  0.00    +0.000 A 
ATOM     11  C   UNL     1      45.422   1.882   8.749  0.00  0.00    +0.000 A 
ATOM     12  C   UNL     1      46.020   2.467   7.638  0.00  0.00    +0.000 A 
ATOM     13  C   UNL     1      46.121   3.847   7.599  0.00  0.00    +0.000 A 
ATOM     14  N   UNL     1      45.677   4.658   8.581  0.00  0.00    +0.000 NA
ENDBRANCH   8   9
ENDBRANCH   5   8
ENDBRANCH   1   2
BRANCH   1  15
ATOM     15  N   UNL     1      48.277   6.697  15.479  0.00  0.00    +0.000 N 
ATOM     16  C   UNL     1      49.362   6.244  16.187  0.00  0.00    +0.000 C 
ATOM     17  O   UNL     1      50.524   6.456  15.863  0.00  0.00    +0.000 OA
ATOM     18  H   UNL     1      47.386   6.248  15.654  0.00  0.00    +0.000 HD
BRANCH  16  19
ATOM     19  C   UNL     1      49.035   5.512  17.412  0.00  0.00    +0.000 A 
ATOM     20  C   UNL     1      49.182   4.134  17.486  0.00  0.00    +0.000 A 
ATOM     21  S   UNL     1      48.745   3.495  19.010  0.00  0.00    +0.000 S 
ATOM     22  C   UNL     1      48.299   5.034  19.594  0.00  0.00    +0.000 A 
ATOM     23  N   UNL     1      47.790   5.201  20.841  0.00  0.00    +0.000 NA
ATOM     24  C   UNL     1      47.470   6.420  21.129  0.00  0.00    +0.000 A 
ATOM     25  N   UNL     1      47.625   7.493  20.286  0.00  0.00    +0.000 N 
ATOM     26  C   UNL     1      48.166   7.376  19.032  0.00  0.00    +0.000 A 
ATOM     27  O   UNL     1      48.353   8.363  18.335  0.00  0.00    +0.000 OA
ATOM     28  C   UNL     1      48.515   6.021  18.654  0.00  0.00    +0.000 A 
ATOM     29  H   UNL     1      47.384   8.429  20.576  0.00  0.00    +0.000 HD
ENDBRANCH  16  19
ENDBRANCH   1  15
BRANCH   1  30
ATOM     30  C   UNL     1      48.219   8.847  14.230  0.00  0.00    +0.000 C 
BRANCH  30  31
ATOM     31  N   UNL     1      47.510   9.337  15.418  0.00  0.00    +0.000 NA
ATOM     32  H   UNL     1      47.240   8.534  15.983  0.00  0.00    +0.000 HD
ATOM     33  H   UNL     1      46.643   9.792  15.129  0.00  0.00    +0.000 HD
ENDBRANCH  30  31
ENDBRANCH   1  30
TORSDOF 7
ENDMDL
MODEL 5
REMARK VINA RESULT:    -7.539      3.026      4.724
REMARK INTER + INTRA:         -10.990
REMARK INTER:                  -9.669
REMARK INTRA:                  -1.322
REMARK UNBOUND:                -0.587
REMARK  Name = 
REMARK  7 active torsions:
REMARK  status: ('A' for Active; 'I' for Inactive)
REMARK    1  A    between atoms: N_1  and  C_2
REMARK    2  A    between atoms: C_2  and  C_3
REMARK    3  A    between atoms: C_3  and  N_4
REMARK    4  A    between atoms: C_3  and  C_17
REMARK    5  A    between atoms: C_5  and  C_7
REMARK    6  A    between atoms: C_20  and  O_21
REMARK    7  A    between atoms: O_21  and  C_22
REMARK                            x       y       z     vdW  Elec       q    Type
REMARK                         _______ _______ _______ _____ _____    ______ ____
ROOT
ATOM      1  C   UNL     1      46.948   5.745  14.095  0.00  0.00    +0.000 C 
ENDROOT
BRANCH   1   2
ATOM      2  C   UNL     1      46.280   5.209  12.826  0.00  0.00    +0.000 A 
ATOM      3  C   UNL     1      45.741   3.915  12.815  0.00  0.00    +0.000 A 
ATOM      4  C   UNL     1      45.164   3.389  11.655  0.00  0.00    +0.000 A 
ATOM      5  C   UNL     1      45.063   4.165  10.497  0.00  0.00    +0.000 A 
ATOM      6  C   UNL     1      45.590   5.458  10.496  0.00  0.00    +0.000 A 
ATOM      7  C   UNL     1      46.189   5.977  11.651  0.00  0.00    +0.000 A 
BRANCH   5   8
ATOM      8  O   UNL     1      44.538   3.707   9.308  0.00  0.00    +0.000 OA
BRANCH   8   9
ATOM      9  C   UNL     1      45.369   3.006   8.439  0.00  0.00    +0.000 A 
ATOM     10  C   UNL     1      45.839   3.691   7.327  0.00  0.00    +0.000 A 
ATOM     11  C   UNL     1      46.681   3.015   6.445  0.00  0.00    +0.000 A 
ATOM     12  C   UNL     1      47.023   1.692   6.706  0.00  0.00    +0.000 A 
ATOM     13  C   UNL     1      46.492   1.088   7.832  0.00  0.00    +0.000 A 
ATOM     14  N   UNL     1      45.655   1.707   8.689  0.00  0.00    +0.000 NA
ENDBRANCH   8   9
ENDBRANCH   5   8
ENDBRANCH   1   2
BRANCH   1  15
ATOM     15  N   UNL     1      48.162   6.449  13.722  0.00  0.00    +0.000 N 
ATOM     16  C   UNL     1      48.673   7.503  14.437  0.00  0.00    +0.000 C 
ATOM     17  O   UNL     1      48.261   7.841  15.540  0.00  0.00    +0.000 OA
ATOM     18  H   UNL     1      48.363   6.419  12.729  0.00  0.00    +0.000 HD
BRANCH  16  19
ATOM     19  C   UNL     1      49.803   8.185  13.805  0.00  0.00    +0.000 A 
ATOM     20  C   UNL     1      51.098   8.018  14.274  0.00  0.00    +0.000 A 
ATOM     21  S   UNL     1      52.254   8.907  13.382  0.00  0.00    +0.000 S 
ATOM     22  C   UNL     1      51.050   9.580  12.379  0.00  0.00    +0.000 A 
ATOM     23  N   UNL     1      51.354  10.477  11.408  0.00  0.00    +0.000 NA
ATOM     24  C   UNL     1      50.333  10.921  10.751  0.00  0.00    +0.000 A 
ATOM     25  N   UNL     1      49.031  10.540  10.970  0.00  0.00    +0.000 N 
ATOM     26  C   UNL     1      48.682   9.612  11.916  0.00  0.00    +0.000 A 
ATOM     27  O   UNL     1      47.523   9.245  12.037  0.00  0.00    +0.000 OA
ATOM     28  C   UNL     1      49.794   9.105  12.697  0.00  0.00    +0.000 A 
ATOM     29  H   UNL     1      48.276  10.898  10.406  0.00  0.00    +0.000 HD
ENDBRANCH  16  19
ENDBRANCH   1  15
BRANCH   1  30
ATOM     30  C   UNL     1      47.235   4.614  15.122  0.00  0.00    +0.000 C 
BRANCH  30  31
ATOM     31  N   UNL     1      47.350   5.067  16.513  0.00  0.00    +0.000 NA
ATOM     32  H   UNL     1      47.963   5.881  16.536  0.00  0.00    +0.000 HD
ATOM     33  H   UNL     1      47.810   4.343  17.066  0.00  0.00    +0.000 HD
ENDBRANCH  30  31
ENDBRANCH   1  30
TORSDOF 7
ENDMDL
MODEL 6
REMARK VINA RESULT:    -7.487      2.671      3.790
REMARK INTER + INTRA:         -10.918
REMARK INTER:                 -10.599
REMARK INTRA:                  -0.319
REMARK UNBOUND:                -0.587
REMARK  Name = 
REMARK  7 active torsions:
REMARK  status: ('A' for Active; 'I' for Inactive)
REMARK    1  A    between atoms: N_1  and  C_2
REMARK    2  A    between atoms: C_2  and  C_3
REMARK    3  A    between atoms: C_3  and  N_4
REMARK    4  A    between atoms: C_3  and  C_17
REMARK    5  A    between atoms: C_5  and  C_7
REMARK    6  A    between atoms: C_20  and  O_21
REMARK    7  A    between atoms: O_21  and  C_22
REMARK                            x       y       z     vdW  Elec       q    Type
REMARK                         _______ _______ _______ _____ _____    ______ ____
ROOT
ATOM      1  C   UNL     1      45.874   5.282  13.630  0.00  0.00    +0.000 C 
ENDROOT
BRANCH   1   2
ATOM      2  C   UNL     1      45.507   4.750  12.242  0.00  0.00    +0.000 A 
ATOM      3  C   UNL     1      44.959   3.466  12.109  0.00  0.00    +0.000 A 
ATOM      4  C   UNL     1      44.655   2.945  10.848  0.00  0.00    +0.000 A 
ATOM      5  C   UNL     1      44.838   3.715   9.697  0.00  0.00    +0.000 A 
ATOM      6  C   UNL     1      45.377   4.998   9.815  0.00  0.00    +0.000 A 
ATOM      7  C   UNL     1      45.704   5.513  11.076  0.00  0.00    +0.000 A 
BRANCH   5   8
ATOM      8  O   UNL     1      44.592   3.259   8.420  0.00  0.00    +0.000 OA
BRANCH   8   9
ATOM      9  C   UNL     1      45.669   2.848   7.640  0.00  0.00    +0.000 A 
ATOM     10  C   UNL     1      46.295   1.663   8.003  0.00  0.00    +0.000 A 
ATOM     11  C   UNL     1      47.371   1.225   7.234  0.00  0.00    +0.000 A 
ATOM     12  C   UNL     1      47.777   1.976   6.136  0.00  0.00    +0.000 A 
ATOM     13  C   UNL     1      47.102   3.152   5.861  0.00  0.00    +0.000 A 
ATOM     14  N   UNL     1      46.075   3.616   6.602  0.00  0.00    +0.000 NA
ENDBRANCH   8   9
ENDBRANCH   5   8
ENDBRANCH   1   2
BRANCH   1  15
ATOM     15  N   UNL     1      46.413   6.623  13.488  0.00  0.00    +0.000 N 
ATOM     16  C   UNL     1      47.750   6.884  13.320  0.00  0.00    +0.000 C 
ATOM     17  O   UNL     1      48.591   6.020  13.102  0.00  0.00    +0.000 OA
ATOM     18  H   UNL     1      45.851   7.338  13.934  0.00  0.00    +0.000 HD
BRANCH  16  19
ATOM     19  C   UNL     1      48.111   8.302  13.370  0.00  0.00    +0.000 A 
ATOM     20  C   UNL     1      48.012   9.109  12.246  0.00  0.00    +0.000 A 
ATOM     21  S   UNL     1      48.482  10.727  12.540  0.00  0.00    +0.000 S 
ATOM     22  C   UNL     1      48.879  10.380  14.161  0.00  0.00    +0.000 A 
ATOM     23  N   UNL     1      49.392  11.327  14.986  0.00  0.00    +0.000 NA
ATOM     24  C   UNL     1      49.672  10.906  16.176  0.00  0.00    +0.000 A 
ATOM     25  N   UNL     1      49.475   9.622  16.622  0.00  0.00    +0.000 N 
ATOM     26  C   UNL     1      48.929   8.642  15.835  0.00  0.00    +0.000 A 
ATOM     27  O   UNL     1      48.703   7.529  16.285  0.00  0.00    +0.000 OA
ATOM     28  C   UNL     1      48.623   9.061  14.481  0.00  0.00    +0.000 A 
ATOM     29  H   UNL     1      49.686   9.357  17.571  0.00  0.00    +0.000 HD
ENDBRANCH  16  19
ENDBRANCH   1  15
BRANCH   1  30
ATOM     30  C   UNL     1      46.868   4.341  14.367  0.00  0.00    +0.000 C 
BRANCH  30  31
ATOM     31  N   UNL     1      46.751   4.354  15.830  0.00  0.00    +0.000 NA
ATOM     32  H   UNL     1      46.063   3.653  16.102  0.00  0.00    +0.000 HD
ATOM     33  H   UNL     1      46.380   5.255  16.131  0.00  0.00    +0.000 HD
ENDBRANCH  30  31
ENDBRANCH   1  30
TORSDOF 7
ENDMDL
MODEL 7
REMARK VINA RESULT:    -7.442      3.283      8.119
REMARK INTER + INTRA:         -10.857
REMARK INTER:                  -9.647
REMARK INTRA:                  -1.210
REMARK UNBOUND:                -0.587
REMARK  Name = 
REMARK  7 active torsions:
REMARK  status: ('A' for Active; 'I' for Inactive)
REMARK    1  A    between atoms: N_1  and  C_2
REMARK    2  A    between atoms: C_2  and  C_3
REMARK    3  A    between atoms: C_3  and  N_4
REMARK    4  A    between atoms: C_3  and  C_17
REMARK    5  A    between atoms: C_5  and  C_7
REMARK    6  A    between atoms: C_20  and  O_21
REMARK    7  A    between atoms: O_21  and  C_22
REMARK                            x       y       z     vdW  Elec       q    Type
REMARK                         _______ _______ _______ _____ _____    ______ ____
ROOT
ATOM      1  C   UNL     1      48.047   7.406  13.435  0.00  0.00    +0.000 C 
ENDROOT
BRANCH   1   2
ATOM      2  C   UNL     1      48.400   6.621  14.701  0.00  0.00    +0.000 A 
ATOM      3  C   UNL     1      49.481   7.028  15.495  0.00  0.00    +0.000 A 
ATOM      4  C   UNL     1      49.847   6.302  16.633  0.00  0.00    +0.000 A 
ATOM      5  C   UNL     1      49.106   5.187  17.034  0.00  0.00    +0.000 A 
ATOM      6  C   UNL     1      48.022   4.775  16.255  0.00  0.00    +0.000 A 
ATOM      7  C   UNL     1      47.669   5.488  15.103  0.00  0.00    +0.000 A 
BRANCH   5   8
ATOM      8  O   UNL     1      49.423   4.403  18.122  0.00  0.00    +0.000 OA
BRANCH   8   9
ATOM      9  C   UNL     1      50.525   3.558  18.036  0.00  0.00    +0.000 A 
ATOM     10  C   UNL     1      50.332   2.331  17.417  0.00  0.00    +0.000 A 
ATOM     11  C   UNL     1      51.422   1.469  17.309  0.00  0.00    +0.000 A 
ATOM     12  C   UNL     1      52.657   1.862  17.816  0.00  0.00    +0.000 A 
ATOM     13  C   UNL     1      52.749   3.099  18.431  0.00  0.00    +0.000 A 
ATOM     14  N   UNL     1      51.707   3.943  18.573  0.00  0.00    +0.000 NA
ENDBRANCH   8   9
ENDBRANCH   5   8
ENDBRANCH   1   2
BRANCH   1  15
ATOM     15  N   UNL     1      47.416   6.504  12.487  0.00  0.00    +0.000 N 
ATOM     16  C   UNL     1      46.308   6.838  11.751  0.00  0.00    +0.000 C 
ATOM     17  O   UNL     1      45.847   7.972  11.690  0.00  0.00    +0.000 OA
ATOM     18  H   UNL     1      47.554   5.524  12.703  0.00  0.00    +0.000 HD
BRANCH  16  19
ATOM     19  C   UNL     1      45.723   5.737  10.985  0.00  0.00    +0.000 A 
ATOM     20  C   UNL     1      45.891   5.648   9.610  0.00  0.00    +0.000 A 
ATOM     21  S   UNL     1      45.125   4.280   8.928  0.00  0.00    +0.000 S 
ATOM     22  C   UNL     1      44.504   3.800  10.441  0.00  0.00    +0.000 A 
ATOM     23  N   UNL     1      43.708   2.708  10.569  0.00  0.00    +0.000 NA
ATOM     24  C   UNL     1      43.290   2.489  11.772  0.00  0.00    +0.000 A 
ATOM     25  N   UNL     1      43.605   3.257  12.867  0.00  0.00    +0.000 N 
ATOM     26  C   UNL     1      44.433   4.346  12.791  0.00  0.00    +0.000 A 
ATOM     27  O   UNL     1      44.748   4.966  13.796  0.00  0.00    +0.000 OA
ATOM     28  C   UNL     1      44.906   4.648  11.453  0.00  0.00    +0.000 A 
ATOM     29  H   UNL     1      43.273   3.020  13.789  0.00  0.00    +0.000 HD
ENDBRANCH  16  19
ENDBRANCH   1  15
BRANCH   1  30
ATOM     30  C   UNL     1      49.292   8.104  12.819  0.00  0.00    +0.000 C 
BRANCH  30  31
ATOM     31  N   UNL     1      50.125   7.236  11.978  0.00  0.00    +0.000 NA
ATOM     32  H   UNL     1      50.813   6.778  12.573  0.00  0.00    +0.000 HD
ATOM     33  H   UNL     1      50.649   7.810  11.317  0.00  0.00    +0.000 HD
ENDBRANCH  30  31
ENDBRANCH   1  30
TORSDOF 7
ENDMDL
MODEL 8
REMARK VINA RESULT:    -7.147      3.545      5.757
REMARK INTER + INTRA:         -10.450
REMARK INTER:                  -9.270
REMARK INTRA:                  -1.180
REMARK UNBOUND:                -0.587
REMARK  Name = 
REMARK  7 active torsions:
REMARK  status: ('A' for Active; 'I' for Inactive)
REMARK    1  A    between atoms: N_1  and  C_2
REMARK    2  A    between atoms: C_2  and  C_3
REMARK    3  A    between atoms: C_3  and  N_4
REMARK    4  A    between atoms: C_3  and  C_17
REMARK    5  A    between atoms: C_5  and  C_7
REMARK    6  A    between atoms: C_20  and  O_21
REMARK    7  A    between atoms: O_21  and  C_22
REMARK                            x       y       z     vdW  Elec       q    Type
REMARK                         _______ _______ _______ _____ _____    ______ ____
ROOT
ATOM      1  C   UNL     1      48.951   6.379  17.562  0.00  0.00    +0.000 C 
ENDROOT
BRANCH   1   2
ATOM      2  C   UNL     1      48.269   5.622  16.420  0.00  0.00    +0.000 A 
ATOM      3  C   UNL     1      48.251   6.173  15.131  0.00  0.00    +0.000 A 
ATOM      4  C   UNL     1      47.597   5.519  14.081  0.00  0.00    +0.000 A 
ATOM      5  C   UNL     1      46.996   4.274  14.284  0.00  0.00    +0.000 A 
ATOM      6  C   UNL     1      47.011   3.711  15.562  0.00  0.00    +0.000 A 
ATOM      7  C   UNL     1      47.646   4.376  16.619  0.00  0.00    +0.000 A 
BRANCH   5   8
ATOM      8  O   UNL     1      46.307   3.586  13.309  0.00  0.00    +0.000 OA
BRANCH   8   9
ATOM      9  C   UNL     1      45.167   4.167  12.763  0.00  0.00    +0.000 A 
ATOM     10  C   UNL     1      45.249   4.599  11.446  0.00  0.00    +0.000 A 
ATOM     11  C   UNL     1      44.119   5.178  10.871  0.00  0.00    +0.000 A 
ATOM     12  C   UNL     1      42.955   5.298  11.624  0.00  0.00    +0.000 A 
ATOM     13  C   UNL     1      42.974   4.852  12.934  0.00  0.00    +0.000 A 
ATOM     14  N   UNL     1      44.059   4.313  13.526  0.00  0.00    +0.000 NA
ENDBRANCH   8   9
ENDBRANCH   5   8
ENDBRANCH   1   2
BRANCH   1  15
ATOM     15  N   UNL     1      50.069   5.587  18.044  0.00  0.00    +0.000 N 
ATOM     16  C   UNL     1      51.274   5.507  17.391  0.00  0.00    +0.000 C 
ATOM     17  O   UNL     1      51.583   6.219  16.444  0.00  0.00    +0.000 OA
ATOM     18  H   UNL     1      49.793   4.795  18.612  0.00  0.00    +0.000 HD
BRANCH  16  19
ATOM     19  C   UNL     1      52.208   4.524  17.942  0.00  0.00    +0.000 A 
ATOM     20  C   UNL     1      53.357   4.922  18.611  0.00  0.00    +0.000 A 
ATOM     21  S   UNL     1      54.295   3.606  19.170  0.00  0.00    +0.000 S 
ATOM     22  C   UNL     1      53.219   2.472  18.489  0.00  0.00    +0.000 A 
ATOM     23  N   UNL     1      53.451   1.137  18.564  0.00  0.00    +0.000 NA
ATOM     24  C   UNL     1      52.564   0.406  17.975  0.00  0.00    +0.000 A 
ATOM     25  N   UNL     1      51.454   0.887  17.324  0.00  0.00    +0.000 N 
ATOM     26  C   UNL     1      51.161   2.224  17.253  0.00  0.00    +0.000 A 
ATOM     27  O   UNL     1      50.129   2.614  16.727  0.00  0.00    +0.000 OA
ATOM     28  C   UNL     1      52.145   3.088  17.878  0.00  0.00    +0.000 A 
ATOM     29  H   UNL     1      50.778   0.267  16.907  0.00  0.00    +0.000 HD
ENDBRANCH  16  19
ENDBRANCH   1  15
BRANCH   1  30
ATOM     30  C   UNL     1      47.957   6.721  18.707  0.00  0.00    +0.000 C 
BRANCH  30  31
ATOM     31  N   UNL     1      47.193   7.958  18.504  0.00  0.00    +0.000 NA
ATOM     32  H   UNL     1      47.649   8.499  17.770  0.00  0.00    +0.000 HD
ATOM     33  H   UNL     1      47.238   8.525  19.351  0.00  0.00    +0.000 HD
ENDBRANCH  30  31
ENDBRANCH   1  30
TORSDOF 7
ENDMDL
MODEL 9
REMARK VINA RESULT:    -6.992      2.093      2.970
REMARK INTER + INTRA:         -10.236
REMARK INTER:                  -9.312
REMARK INTRA:                  -0.924
REMARK UNBOUND:                -0.587
REMARK  Name = 
REMARK  7 active torsions:
REMARK  status: ('A' for Active; 'I' for Inactive)
REMARK    1  A    between atoms: N_1  and  C_2
REMARK    2  A    between atoms: C_2  and  C_3
REMARK    3  A    between atoms: C_3  and  N_4
REMARK    4  A    between atoms: C_3  and  C_17
REMARK    5  A    between atoms: C_5  and  C_7
REMARK    6  A    between atoms: C_20  and  O_21
REMARK    7  A    between atoms: O_21  and  C_22
REMARK                            x       y       z     vdW  Elec       q    Type
REMARK                         _______ _______ _______ _____ _____    ______ ____
ROOT
ATOM      1  C   UNL     1      48.341   8.134  13.819  0.00  0.00    +0.000 C 
ENDROOT
BRANCH   1   2
ATOM      2  C   UNL     1      47.284   7.264  13.132  0.00  0.00    +0.000 A 
ATOM      3  C   UNL     1      46.323   7.859  12.302  0.00  0.00    +0.000 A 
ATOM      4  C   UNL     1      45.324   7.090  11.698  0.00  0.00    +0.000 A 
ATOM      5  C   UNL     1      45.297   5.703  11.863  0.00  0.00    +0.000 A 
ATOM      6  C   UNL     1      46.251   5.097  12.682  0.00  0.00    +0.000 A 
ATOM      7  C   UNL     1      47.239   5.869  13.307  0.00  0.00    +0.000 A 
BRANCH   5   8
ATOM      8  O   UNL     1      44.327   4.884  11.327  0.00  0.00    +0.000 OA
BRANCH   8   9
ATOM      9  C   UNL     1      44.662   4.072  10.248  0.00  0.00    +0.000 A 
ATOM     10  C   UNL     1      45.355   4.667   9.203  0.00  0.00    +0.000 A 
ATOM     11  C   UNL     1      45.711   3.874   8.113  0.00  0.00    +0.000 A 
ATOM     12  C   UNL     1      45.368   2.526   8.108  0.00  0.00    +0.000 A 
ATOM     13  C   UNL     1      44.662   2.026   9.188  0.00  0.00    +0.000 A 
ATOM     14  N   UNL     1      44.281   2.773  10.244  0.00  0.00    +0.000 NA
ENDBRANCH   8   9
ENDBRANCH   5   8
ENDBRANCH   1   2
BRANCH   1  15
ATOM     15  N   UNL     1      48.198   7.992  15.257  0.00  0.00    +0.000 N 
ATOM     16  C   UNL     1      49.151   7.411  16.056  0.00  0.00    +0.000 C 
ATOM     17  O   UNL     1      50.274   7.114  15.670  0.00  0.00    +0.000 OA
ATOM     18  H   UNL     1      47.235   7.942  15.569  0.00  0.00    +0.000 HD
BRANCH  16  19
ATOM     19  C   UNL     1      48.745   7.207  17.448  0.00  0.00    +0.000 A 
ATOM     20  C   UNL     1      48.288   8.261  18.225  0.00  0.00    +0.000 A 
ATOM     21  S   UNL     1      47.868   7.789  19.814  0.00  0.00    +0.000 S 
ATOM     22  C   UNL     1      48.337   6.176  19.522  0.00  0.00    +0.000 A 
ATOM     23  N   UNL     1      48.276   5.230  20.494  0.00  0.00    +0.000 NA
ATOM     24  C   UNL     1      48.693   4.062  20.131  0.00  0.00    +0.000 A 
ATOM     25  N   UNL     1      49.157   3.747  18.877  0.00  0.00    +0.000 N 
ATOM     26  C   UNL     1      49.204   4.661  17.856  0.00  0.00    +0.000 A 
ATOM     27  O   UNL     1      49.557   4.329  16.734  0.00  0.00    +0.000 OA
ATOM     28  C   UNL     1      48.770   5.995  18.224  0.00  0.00    +0.000 A 
ATOM     29  H   UNL     1      49.443   2.810  18.642  0.00  0.00    +0.000 HD
ENDBRANCH  16  19
ENDBRANCH   1  15
BRANCH   1  30
ATOM     30  C   UNL     1      48.244   9.621  13.379  0.00  0.00    +0.000 C 
BRANCH  30  31
ATOM     31  N   UNL     1      48.498  10.593  14.449  0.00  0.00    +0.000 NA
ATOM     32  H   UNL     1      49.224  11.234  14.133  0.00  0.00    +0.000 HD
ATOM     33  H   UNL     1      48.875  10.107  15.263  0.00  0.00    +0.000 HD
ENDBRANCH  30  31
ENDBRANCH   1  30
TORSDOF 7
ENDMDL
