MODEL 1
REMARK VINA RESULT:    -7.644      0.000      0.000
REMARK INTER + INTRA:         -10.596
REMARK INTER:                 -10.102
REMARK INTRA:                  -0.495
REMARK UNBOUND:                -0.495
REMARK  Name = 
REMARK  6 active torsions:
REMARK  status: ('A' for Active; 'I' for Inactive)
REMARK    1  A    between atoms: N_1  and  C_2
REMARK    2  A    between atoms: C_2  and  C_3
REMARK    3  A    between atoms: C_6  and  C_7
REMARK    4  A    between atoms: C_7  and  O_8
REMARK    5  A    between atoms: O_8  and  C_9
REMARK    6  A    between atoms: C_12  and  C_13
REMARK                            x       y       z     vdW  Elec       q    Type
REMARK                         _______ _______ _______ _____ _____    ______ ____
ROOT
ATOM      1  O   UNL     1      44.200   4.302  10.950  0.00  0.00    +0.000 OA
ENDROOT
BRANCH   1   2
ATOM      2  C   UNL     1      45.088   4.418  12.000  0.00  0.00    +0.000 A 
ATOM      3  N   UNL     1      45.521   3.288  12.608  0.00  0.00    +0.000 NA
ATOM      4  C   UNL     1      46.359   3.438  13.663  0.00  0.00    +0.000 A 
ATOM      5  C   UNL     1      46.808   4.668  14.125  0.00  0.00    +0.000 A 
ATOM      6  C   UNL     1      46.362   5.820  13.477  0.00  0.00    +0.000 A 
ATOM      7  C   UNL     1      45.487   5.694  12.395  0.00  0.00    +0.000 A 
ATOM      8 BR   UNL     1      44.864   7.264  11.539  0.00  0.00    +0.000 Br
BRANCH   5   9
ATOM      9  C   UNL     1      47.695   4.693  15.306  0.00  0.00    +0.000 C 
ATOM     10  N   UNL     1      48.038   5.911  15.817  0.00  0.00    +0.000 N 
ATOM     11  O   UNL     1      48.124   3.657  15.794  0.00  0.00    +0.000 OA
ATOM     12  H   UNL     1      47.898   6.783  15.326  0.00  0.00    +0.000 HD
ATOM     13  H   UNL     1      48.711   5.905  16.575  0.00  0.00    +0.000 HD
ENDBRANCH   5   9
ENDBRANCH   1   2
BRANCH   1  14
ATOM     14  C   UNL     1      44.167   2.989  10.388  0.00  0.00    +0.000 C 
BRANCH  14  18
ATOM     15  C   UNL     1      46.621   2.740   6.816  0.00  0.00    +0.000 A 
ATOM     16  C   UNL     1      46.055   3.963   7.201  0.00  0.00    +0.000 A 
ATOM     17  C   UNL     1      45.261   4.056   8.348  0.00  0.00    +0.000 A 
ATOM     18  C   UNL     1      45.001   2.922   9.126  0.00  0.00    +0.000 A 
ATOM     19  C   UNL     1      45.587   1.702   8.753  0.00  0.00    +0.000 A 
ATOM     20  C   UNL     1      46.382   1.611   7.607  0.00  0.00    +0.000 A 
BRANCH  15  21
ATOM     21  C   UNL     1      47.439   2.632   5.553  0.00  0.00    +0.000 C 
BRANCH  21  22
ATOM     22  N   UNL     1      48.590   1.752   5.721  0.00  0.00    +0.000 NA
ATOM     23  H   UNL     1      49.429   2.319   5.833  0.00  0.00    +0.000 HD
ATOM     24  H   UNL     1      48.717   1.215   4.864  0.00  0.00    +0.000 HD
ENDBRANCH  21  22
ENDBRANCH  15  21
ENDBRANCH  14  18
ENDBRANCH   1  14
TORSDOF 6
ENDMDL
MODEL 2
REMARK VINA RESULT:    -7.495      2.359      2.862
REMARK INTER + INTRA:         -10.400
REMARK INTER:                  -9.801
REMARK INTRA:                  -0.598
REMARK UNBOUND:                -0.495
REMARK  Name = 
REMARK  6 active torsions:
REMARK  status: ('A' for Active; 'I' for Inactive)
REMARK    1  A    between atoms: N_1  and  C_2
REMARK    2  A    between atoms: C_2  and  C_3
REMARK    3  A    between atoms: C_6  and  C_7
REMARK    4  A    between atoms: C_7  and  O_8
REMARK    5  A    between atoms: O_8  and  C_9
REMARK    6  A    between atoms: C_12  and  C_13
REMARK                            x       y       z     vdW  Elec       q    Type
REMARK                         _______ _______ _______ _____ _____    ______ ____
ROOT
ATOM      1  O   UNL     1      44.147   4.244  11.303  0.00  0.00    +0.000 OA
ENDROOT
BRANCH   1   2
ATOM      2  C   UNL     1      44.776   5.367  11.801  0.00  0.00    +0.000 A 
ATOM      3  N   UNL     1      44.340   6.585  11.398  0.00  0.00    +0.000 NA
ATOM      4  C   UNL     1      45.006   7.667  11.871  0.00  0.00    +0.000 A 
ATOM      5  C   UNL     1      46.076   7.591  12.752  0.00  0.00    +0.000 A 
ATOM      6  C   UNL     1      46.502   6.328  13.167  0.00  0.00    +0.000 A 
ATOM      7  C   UNL     1      45.842   5.197  12.683  0.00  0.00    +0.000 A 
ATOM      8 BR   UNL     1      46.445   3.486  13.229  0.00  0.00    +0.000 Br
BRANCH   5   9
ATOM      9  C   UNL     1      46.734   8.846  13.166  0.00  0.00    +0.000 C 
ATOM     10  N   UNL     1      47.112   8.965  14.473  0.00  0.00    +0.000 N 
ATOM     11  O   UNL     1      46.915   9.757  12.369  0.00  0.00    +0.000 OA
ATOM     12  H   UNL     1      46.789   8.349  15.206  0.00  0.00    +0.000 HD
ATOM     13  H   UNL     1      47.486   9.865  14.750  0.00  0.00    +0.000 HD
ENDBRANCH   5   9
ENDBRANCH   1   2
BRANCH   1  14
ATOM     14  C   UNL     1      43.812   4.359   9.919  0.00  0.00    +0.000 C 
BRANCH  14  18
ATOM     15  C   UNL     1      46.689   2.153   7.531  0.00  0.00    +0.000 A 
ATOM     16  C   UNL     1      46.584   3.546   7.404  0.00  0.00    +0.000 A 
ATOM     17  C   UNL     1      45.660   4.267   8.166  0.00  0.00    +0.000 A 
ATOM     18  C   UNL     1      44.807   3.608   9.060  0.00  0.00    +0.000 A 
ATOM     19  C   UNL     1      44.929   2.217   9.203  0.00  0.00    +0.000 A 
ATOM     20  C   UNL     1      45.854   1.498   8.443  0.00  0.00    +0.000 A 
BRANCH  15  21
ATOM     21  C   UNL     1      47.654   1.372   6.675  0.00  0.00    +0.000 C 
BRANCH  21  22
ATOM     22  N   UNL     1      48.368   2.229   5.735  0.00  0.00    +0.000 NA
ATOM     23  H   UNL     1      48.795   3.000   6.246  0.00  0.00    +0.000 HD
ATOM     24  H   UNL     1      47.693   2.644   5.094  0.00  0.00    +0.000 HD
ENDBRANCH  21  22
ENDBRANCH  15  21
ENDBRANCH  14  18
ENDBRANCH   1  14
TORSDOF 6
ENDMDL
MODEL 3
REMARK VINA RESULT:    -7.050      2.403      6.788
REMARK INTER + INTRA:          -9.812
REMARK INTER:                  -9.219
REMARK INTRA:                  -0.593
REMARK UNBOUND:                -0.495
REMARK  Name = 
REMARK  6 active torsions:
REMARK  status: ('A' for Active; 'I' for Inactive)
REMARK    1  A    between atoms: N_1  and  C_2
REMARK    2  A    between atoms: C_2  and  C_3
REMARK    3  A    between atoms: C_6  and  C_7
REMARK    4  A    between atoms: C_7  and  O_8
REMARK    5  A    between atoms: O_8  and  C_9
REMARK    6  A    between atoms: C_12  and  C_13
REMARK                            x       y       z     vdW  Elec       q    Type
REMARK                         _______ _______ _______ _____ _____    ______ ____
ROOT
ATOM      1  O   UNL     1      44.468   5.261   9.934  0.00  0.00    +0.000 OA
ENDROOT
BRANCH   1   2
ATOM      2  C   UNL     1      45.210   4.386   9.167  0.00  0.00    +0.000 A 
ATOM      3  N   UNL     1      46.040   4.895   8.225  0.00  0.00    +0.000 NA
ATOM      4  C   UNL     1      46.722   4.008   7.460  0.00  0.00    +0.000 A 
ATOM      5  C   UNL     1      46.635   2.631   7.610  0.00  0.00    +0.000 A 
ATOM      6  C   UNL     1      45.787   2.125   8.595  0.00  0.00    +0.000 A 
ATOM      7  C   UNL     1      45.061   3.017   9.388  0.00  0.00    +0.000 A 
ATOM      8 BR   UNL     1      43.889   2.322  10.704  0.00  0.00    +0.000 Br
BRANCH   5   9
ATOM      9  C   UNL     1      47.410   1.775   6.688  0.00  0.00    +0.000 C 
ATOM     10  N   UNL     1      48.413   2.361   5.969  0.00  0.00    +0.000 N 
ATOM     11  O   UNL     1      47.146   0.588   6.557  0.00  0.00    +0.000 OA
ATOM     12  H   UNL     1      48.521   3.360   5.873  0.00  0.00    +0.000 HD
ATOM     13  H   UNL     1      48.874   1.773   5.285  0.00  0.00    +0.000 HD
ENDBRANCH   5   9
ENDBRANCH   1   2
BRANCH   1  14
ATOM     14  C   UNL     1      45.258   6.293  10.526  0.00  0.00    +0.000 C 
BRANCH  14  18
ATOM     15  C   UNL     1      46.943   4.955  14.296  0.00  0.00    +0.000 A 
ATOM     16  C   UNL     1      47.678   5.801  13.454  0.00  0.00    +0.000 A 
ATOM     17  C   UNL     1      47.147   6.237  12.237  0.00  0.00    +0.000 A 
ATOM     18  C   UNL     1      45.875   5.821  11.826  0.00  0.00    +0.000 A 
ATOM     19  C   UNL     1      45.131   4.993  12.680  0.00  0.00    +0.000 A 
ATOM     20  C   UNL     1      45.661   4.559  13.897  0.00  0.00    +0.000 A 
BRANCH  15  21
ATOM     21  C   UNL     1      47.535   4.449  15.588  0.00  0.00    +0.000 C 
BRANCH  21  22
ATOM     22  N   UNL     1      47.889   3.036  15.511  0.00  0.00    +0.000 NA
ATOM     23  H   UNL     1      47.599   2.574  16.370  0.00  0.00    +0.000 HD
ATOM     24  H   UNL     1      48.905   2.957  15.467  0.00  0.00    +0.000 HD
ENDBRANCH  21  22
ENDBRANCH  15  21
ENDBRANCH  14  18
ENDBRANCH   1  14
TORSDOF 6
ENDMDL
MODEL 4
REMARK VINA RESULT:    -6.488      1.758      2.224
REMARK INTER + INTRA:          -9.069
REMARK INTER:                  -8.984
REMARK INTRA:                  -0.085
REMARK UNBOUND:                -0.495
REMARK  Name = 
REMARK  6 active torsions:
REMARK  status: ('A' for Active; 'I' for Inactive)
REMARK    1  A    between atoms: N_1  and  C_2
REMARK    2  A    between atoms: C_2  and  C_3
REMARK    3  A    between atoms: C_6  and  C_7
REMARK    4  A    between atoms: C_7  and  O_8
REMARK    5  A    between atoms: O_8  and  C_9
REMARK    6  A    between atoms: C_12  and  C_13
REMARK                            x       y       z     vdW  Elec       q    Type
REMARK                         _______ _______ _______ _____ _____    ______ ____
ROOT
ATOM      1  O   UNL     1      44.016   5.564  10.554  0.00  0.00    +0.000 OA
ENDROOT
BRANCH   1   2
ATOM      2  C   UNL     1      44.934   6.106  11.431  0.00  0.00    +0.000 A 
ATOM      3  N   UNL     1      45.832   5.279  12.020  0.00  0.00    +0.000 NA
ATOM      4  C   UNL     1      46.692   5.835  12.909  0.00  0.00    +0.000 A 
ATOM      5  C   UNL     1      46.715   7.188  13.219  0.00  0.00    +0.000 A 
ATOM      6  C   UNL     1      45.792   8.026  12.592  0.00  0.00    +0.000 A 
ATOM      7  C   UNL     1      44.886   7.476  11.683  0.00  0.00    +0.000 A 
ATOM      8 BR   UNL     1      43.618   8.616  10.857  0.00  0.00    +0.000 Br
BRANCH   5   9
ATOM      9  C   UNL     1      47.683   7.658  14.230  0.00  0.00    +0.000 C 
ATOM     10  N   UNL     1      47.486   8.897  14.771  0.00  0.00    +0.000 N 
ATOM     11  O   UNL     1      48.641   6.970  14.555  0.00  0.00    +0.000 OA
ATOM     12  H   UNL     1      46.854   9.582  14.381  0.00  0.00    +0.000 HD
ATOM     13  H   UNL     1      48.207   9.230  15.400  0.00  0.00    +0.000 HD
ENDBRANCH   5   9
ENDBRANCH   1   2
BRANCH   1  14
ATOM     14  C   UNL     1      43.962   4.138  10.613  0.00  0.00    +0.000 C 
BRANCH  14  18
ATOM     15  C   UNL     1      46.460   2.429   7.500  0.00  0.00    +0.000 A 
ATOM     16  C   UNL     1      45.809   1.596   8.422  0.00  0.00    +0.000 A 
ATOM     17  C   UNL     1      45.004   2.135   9.430  0.00  0.00    +0.000 A 
ATOM     18  C   UNL     1      44.846   3.520   9.550  0.00  0.00    +0.000 A 
ATOM     19  C   UNL     1      45.478   4.352   8.612  0.00  0.00    +0.000 A 
ATOM     20  C   UNL     1      46.281   3.813   7.604  0.00  0.00    +0.000 A 
BRANCH  15  21
ATOM     21  C   UNL     1      47.364   1.849   6.442  0.00  0.00    +0.000 C 
BRANCH  21  22
ATOM     22  N   UNL     1      48.622   2.580   6.337  0.00  0.00    +0.000 NA
ATOM     23  H   UNL     1      48.836   3.003   7.238  0.00  0.00    +0.000 HD
ATOM     24  H   UNL     1      48.499   3.347   5.678  0.00  0.00    +0.000 HD
ENDBRANCH  21  22
ENDBRANCH  15  21
ENDBRANCH  14  18
ENDBRANCH   1  14
TORSDOF 6
ENDMDL
MODEL 5
REMARK VINA RESULT:    -6.317      3.091      7.686
REMARK INTER + INTRA:          -8.843
REMARK INTER:                  -8.427
REMARK INTRA:                  -0.417
REMARK UNBOUND:                -0.495
REMARK  Name = 
REMARK  6 active torsions:
REMARK  status: ('A' for Active; 'I' for Inactive)
REMARK    1  A    between atoms: N_1  and  C_2
REMARK    2  A    between atoms: C_2  and  C_3
REMARK    3  A    between atoms: C_6  and  C_7
REMARK    4  A    between atoms: C_7  and  O_8
REMARK    5  A    between atoms: O_8  and  C_9
REMARK    6  A    between atoms: C_12  and  C_13
REMARK                            x       y       z     vdW  Elec       q    Type
REMARK                         _______ _______ _______ _____ _____    ______ ____
ROOT
ATOM      1  O   UNL     1      47.591   5.179  14.788  0.00  0.00    +0.000 OA
ENDROOT
BRANCH   1   2
ATOM      2  C   UNL     1      46.705   4.904  13.766  0.00  0.00    +0.000 A 
ATOM      3  N   UNL     1      46.262   3.632  13.620  0.00  0.00    +0.000 NA
ATOM      4  C   UNL     1      45.427   3.386  12.581  0.00  0.00    +0.000 A 
ATOM      5  C   UNL     1      44.991   4.359  11.692  0.00  0.00    +0.000 A 
ATOM      6  C   UNL     1      45.447   5.666  11.867  0.00  0.00    +0.000 A 
ATOM      7  C   UNL     1      46.320   5.944  12.922  0.00  0.00    +0.000 A 
ATOM      8 BR   UNL     1      46.957   7.715  13.136  0.00  0.00    +0.000 Br
BRANCH   5   9
ATOM      9  C   UNL     1      44.106   3.950  10.583  0.00  0.00    +0.000 C 
ATOM     10  N   UNL     1      44.120   4.707   9.446  0.00  0.00    +0.000 N 
ATOM     11  O   UNL     1      43.369   2.979  10.688  0.00  0.00    +0.000 OA
ATOM     12  H   UNL     1      44.532   5.628   9.394  0.00  0.00    +0.000 HD
ATOM     13  H   UNL     1      43.446   4.455   8.733  0.00  0.00    +0.000 HD
ENDBRANCH   5   9
ENDBRANCH   1   2
BRANCH   1  14
ATOM     14  C   UNL     1      47.335   4.417  15.969  0.00  0.00    +0.000 C 
BRANCH  14  18
ATOM     15  C   UNL     1      50.930   2.510  17.482  0.00  0.00    +0.000 A 
ATOM     16  C   UNL     1      50.752   3.895  17.619  0.00  0.00    +0.000 A 
ATOM     17  C   UNL     1      49.600   4.520  17.135  0.00  0.00    +0.000 A 
ATOM     18  C   UNL     1      48.607   3.778  16.485  0.00  0.00    +0.000 A 
ATOM     19  C   UNL     1      48.775   2.389  16.368  0.00  0.00    +0.000 A 
ATOM     20  C   UNL     1      49.926   1.764  16.855  0.00  0.00    +0.000 A 
BRANCH  15  21
ATOM     21  C   UNL     1      52.194   1.844  17.964  0.00  0.00    +0.000 C 
BRANCH  21  22
ATOM     22  N   UNL     1      52.028   0.403  18.117  0.00  0.00    +0.000 NA
ATOM     23  H   UNL     1      52.921  -0.055  17.942  0.00  0.00    +0.000 HD
ATOM     24  H   UNL     1      51.386   0.071  17.398  0.00  0.00    +0.000 HD
ENDBRANCH  21  22
ENDBRANCH  15  21
ENDBRANCH  14  18
ENDBRANCH   1  14
TORSDOF 6
ENDMDL
MODEL 6
REMARK VINA RESULT:    -6.020      4.055      7.955
REMARK INTER + INTRA:          -8.451
REMARK INTER:                  -8.014
REMARK INTRA:                  -0.437
REMARK UNBOUND:                -0.495
REMARK  Name = 
REMARK  6 active torsions:
REMARK  status: ('A' for Active; 'I' for Inactive)
REMARK    1  A    between atoms: N_1  and  C_2
REMARK    2  A    between atoms: C_2  and  C_3
REMARK    3  A    between atoms: C_6  and  C_7
REMARK    4  A    between atoms: C_7  and  O_8
REMARK    5  A    between atoms: O_8  and  C_9
REMARK    6  A    between atoms: C_12  and  C_13
REMARK                            x       y       z     vdW  Elec       q    Type
REMARK                         _______ _______ _______ _____ _____    ______ ____
ROOT
ATOM      1  O   UNL     1      47.627   3.584  14.321  0.00  0.00    +0.000 OA
ENDROOT
BRANCH   1   2
ATOM      2  C   UNL     1      46.592   4.187  13.636  0.00  0.00    +0.000 A 
ATOM      3  N   UNL     1      45.552   3.420  13.228  0.00  0.00    +0.000 NA
ATOM      4  C   UNL     1      44.573   4.035  12.520  0.00  0.00    +0.000 A 
ATOM      5  C   UNL     1      44.569   5.390  12.222  0.00  0.00    +0.000 A 
ATOM      6  C   UNL     1      45.641   6.167  12.662  0.00  0.00    +0.000 A 
ATOM      7  C   UNL     1      46.671   5.556  13.381  0.00  0.00    +0.000 A 
ATOM      8 BR   UNL     1      48.137   6.611  13.951  0.00  0.00    +0.000 Br
BRANCH   5   9
ATOM      9  C   UNL     1      43.455   5.928  11.415  0.00  0.00    +0.000 C 
ATOM     10  N   UNL     1      43.397   7.280  11.233  0.00  0.00    +0.000 N 
ATOM     11  O   UNL     1      42.602   5.188  10.944  0.00  0.00    +0.000 OA
ATOM     12  H   UNL     1      43.935   7.940  11.776  0.00  0.00    +0.000 HD
ATOM     13  H   UNL     1      42.580   7.631  10.746  0.00  0.00    +0.000 HD
ENDBRANCH   5   9
ENDBRANCH   1   2
BRANCH   1  14
ATOM     14  C   UNL     1      47.400   3.518  15.730  0.00  0.00    +0.000 C 
BRANCH  14  18
ATOM     15  C   UNL     1      51.185   3.278  17.843  0.00  0.00    +0.000 A 
ATOM     16  C   UNL     1      50.609   2.125  17.291  0.00  0.00    +0.000 A 
ATOM     17  C   UNL     1      49.389   2.189  16.610  0.00  0.00    +0.000 A 
ATOM     18  C   UNL     1      48.710   3.406  16.482  0.00  0.00    +0.000 A 
ATOM     19  C   UNL     1      49.299   4.564  17.014  0.00  0.00    +0.000 A 
ATOM     20  C   UNL     1      50.518   4.499  17.693  0.00  0.00    +0.000 A 
BRANCH  15  21
ATOM     21  C   UNL     1      52.477   3.199  18.616  0.00  0.00    +0.000 C 
BRANCH  21  22
ATOM     22  N   UNL     1      52.971   1.831  18.718  0.00  0.00    +0.000 NA
ATOM     23  H   UNL     1      52.807   1.352  17.834  0.00  0.00    +0.000 HD
ATOM     24  H   UNL     1      52.423   1.338  19.421  0.00  0.00    +0.000 HD
ENDBRANCH  21  22
ENDBRANCH  15  21
ENDBRANCH  14  18
ENDBRANCH   1  14
TORSDOF 6
ENDMDL
MODEL 7
REMARK VINA RESULT:    -5.932      2.790      4.207
REMARK INTER + INTRA:          -8.334
REMARK INTER:                  -7.981
REMARK INTRA:                  -0.354
REMARK UNBOUND:                -0.495
REMARK  Name = 
REMARK  6 active torsions:
REMARK  status: ('A' for Active; 'I' for Inactive)
REMARK    1  A    between atoms: N_1  and  C_2
REMARK    2  A    between atoms: C_2  and  C_3
REMARK    3  A    between atoms: C_6  and  C_7
REMARK    4  A    between atoms: C_7  and  O_8
REMARK    5  A    between atoms: O_8  and  C_9
REMARK    6  A    between atoms: C_12  and  C_13
REMARK                            x       y       z     vdW  Elec       q    Type
REMARK                         _______ _______ _______ _____ _____    ______ ____
ROOT
ATOM      1  O   UNL     1      47.413   4.831  14.038  0.00  0.00    +0.000 OA
ENDROOT
BRANCH   1   2
ATOM      2  C   UNL     1      47.643   4.844  15.399  0.00  0.00    +0.000 A 
ATOM      3  N   UNL     1      47.064   3.887  16.162  0.00  0.00    +0.000 NA
ATOM      4  C   UNL     1      47.275   3.953  17.500  0.00  0.00    +0.000 A 
ATOM      5  C   UNL     1      48.062   4.919  18.111  0.00  0.00    +0.000 A 
ATOM      6  C   UNL     1      48.661   5.889  17.307  0.00  0.00    +0.000 A 
ATOM      7  C   UNL     1      48.449   5.852  15.927  0.00  0.00    +0.000 A 
ATOM      8 BR   UNL     1      49.243   7.189  14.846  0.00  0.00    +0.000 Br
BRANCH   5   9
ATOM      9  C   UNL     1      48.183   4.896  19.583  0.00  0.00    +0.000 C 
ATOM     10  N   UNL     1      48.447   3.696  20.180  0.00  0.00    +0.000 N 
ATOM     11  O   UNL     1      48.030   5.913  20.245  0.00  0.00    +0.000 OA
ATOM     12  H   UNL     1      48.359   2.807  19.709  0.00  0.00    +0.000 HD
ATOM     13  H   UNL     1      48.444   3.691  21.193  0.00  0.00    +0.000 HD
ENDBRANCH   5   9
ENDBRANCH   1   2
BRANCH   1  14
ATOM     14  C   UNL     1      46.125   5.339  13.685  0.00  0.00    +0.000 C 
BRANCH  14  18
ATOM     15  C   UNL     1      45.132   4.153   9.628  0.00  0.00    +0.000 A 
ATOM     16  C   UNL     1      45.673   5.422   9.882  0.00  0.00    +0.000 A 
ATOM     17  C   UNL     1      45.995   5.816  11.184  0.00  0.00    +0.000 A 
ATOM     18  C   UNL     1      45.766   4.956  12.264  0.00  0.00    +0.000 A 
ATOM     19  C   UNL     1      45.246   3.678  12.007  0.00  0.00    +0.000 A 
ATOM     20  C   UNL     1      44.926   3.284  10.706  0.00  0.00    +0.000 A 
BRANCH  15  21
ATOM     21  C   UNL     1      44.743   3.747   8.229  0.00  0.00    +0.000 C 
BRANCH  21  22
ATOM     22  N   UNL     1      45.823   3.971   7.275  0.00  0.00    +0.000 NA
ATOM     23  H   UNL     1      46.375   4.770   7.579  0.00  0.00    +0.000 HD
ATOM     24  H   UNL     1      45.415   4.225   6.376  0.00  0.00    +0.000 HD
ENDBRANCH  21  22
ENDBRANCH  15  21
ENDBRANCH  14  18
ENDBRANCH   1  14
TORSDOF 6
ENDMDL
MODEL 8
REMARK VINA RESULT:    -5.895      2.608      8.121
REMARK INTER + INTRA:          -8.285
REMARK INTER:                  -7.943
REMARK INTRA:                  -0.343
REMARK UNBOUND:                -0.495
REMARK  Name = 
REMARK  6 active torsions:
REMARK  status: ('A' for Active; 'I' for Inactive)
REMARK    1  A    between atoms: N_1  and  C_2
REMARK    2  A    between atoms: C_2  and  C_3
REMARK    3  A    between atoms: C_6  and  C_7
REMARK    4  A    between atoms: C_7  and  O_8
REMARK    5  A    between atoms: O_8  and  C_9
REMARK    6  A    between atoms: C_12  and  C_13
REMARK                            x       y       z     vdW  Elec       q    Type
REMARK                         _______ _______ _______ _____ _____    ______ ____
ROOT
ATOM      1  O   UNL     1      46.023   5.139  14.224  0.00  0.00    +0.000 OA
ENDROOT
BRANCH   1   2
ATOM      2  C   UNL     1      45.611   4.683  12.988  0.00  0.00    +0.000 A 
ATOM      3  N   UNL     1      45.502   3.347  12.795  0.00  0.00    +0.000 NA
ATOM      4  C   UNL     1      45.136   2.930  11.558  0.00  0.00    +0.000 A 
ATOM      5  C   UNL     1      44.848   3.789  10.506  0.00  0.00    +0.000 A 
ATOM      6  C   UNL     1      44.952   5.163  10.728  0.00  0.00    +0.000 A 
ATOM      7  C   UNL     1      45.341   5.619  11.990  0.00  0.00    +0.000 A 
ATOM      8 BR   UNL     1      45.508   7.484  12.275  0.00  0.00    +0.000 Br
BRANCH   5   9
ATOM      9  C   UNL     1      44.493   3.203   9.199  0.00  0.00    +0.000 C 
ATOM     10  N   UNL     1      44.172   4.059   8.184  0.00  0.00    +0.000 N 
ATOM     11  O   UNL     1      44.466   1.991   9.037  0.00  0.00    +0.000 OA
ATOM     12  H   UNL     1      43.963   5.037   8.324  0.00  0.00    +0.000 HD
ATOM     13  H   UNL     1      43.852   3.632   7.323  0.00  0.00    +0.000 HD
ENDBRANCH   5   9
ENDBRANCH   1   2
BRANCH   1  14
ATOM     14  C   UNL     1      47.444   5.168  14.362  0.00  0.00    +0.000 C 
BRANCH  14  18
ATOM     15  C   UNL     1      48.690   4.764  18.502  0.00  0.00    +0.000 A 
ATOM     16  C   UNL     1      47.857   3.800  17.916  0.00  0.00    +0.000 A 
ATOM     17  C   UNL     1      47.448   3.920  16.585  0.00  0.00    +0.000 A 
ATOM     18  C   UNL     1      47.848   5.018  15.814  0.00  0.00    +0.000 A 
ATOM     19  C   UNL     1      48.700   5.971  16.394  0.00  0.00    +0.000 A 
ATOM     20  C   UNL     1      49.110   5.849  17.724  0.00  0.00    +0.000 A 
BRANCH  15  21
ATOM     21  C   UNL     1      49.093   4.657  19.951  0.00  0.00    +0.000 C 
BRANCH  21  22
ATOM     22  N   UNL     1      48.293   3.671  20.670  0.00  0.00    +0.000 NA
ATOM     23  H   UNL     1      47.864   3.037  19.998  0.00  0.00    +0.000 HD
ATOM     24  H   UNL     1      47.529   4.154  21.141  0.00  0.00    +0.000 HD
ENDBRANCH  21  22
ENDBRANCH  15  21
ENDBRANCH  14  18
ENDBRANCH   1  14
TORSDOF 6
ENDMDL
MODEL 9
REMARK VINA RESULT:    -5.685      3.992      8.628
REMARK INTER + INTRA:          -8.008
REMARK INTER:                  -7.664
REMARK INTRA:                  -0.344
REMARK UNBOUND:                -0.495
REMARK  Name = 
REMARK  6 active torsions:
REMARK  status: ('A' for Active; 'I' for Inactive)
REMARK    1  A    between atoms: N_1  and  C_2
REMARK    2  A    between atoms: C_2  and  C_3
REMARK    3  A    between atoms: C_6  and  C_7
REMARK    4  A    between atoms: C_7  and  O_8
REMARK    5  A    between atoms: O_8  and  C_9
REMARK    6  A    between atoms: C_12  and  C_13
REMARK                            x       y       z     vdW  Elec       q    Type
REMARK                         _______ _______ _______ _____ _____    ______ ____
ROOT
ATOM      1  O   UNL     1      47.765   4.717  14.793  0.00  0.00    +0.000 OA
ENDROOT
BRANCH   1   2
ATOM      2  C   UNL     1      46.762   4.953  13.875  0.00  0.00    +0.000 A 
ATOM      3  N   UNL     1      45.631   4.211  13.950  0.00  0.00    +0.000 NA
ATOM      4  C   UNL     1      44.682   4.437  13.007  0.00  0.00    +0.000 A 
ATOM      5  C   UNL     1      44.800   5.391  12.006  0.00  0.00    +0.000 A 
ATOM      6  C   UNL     1      45.967   6.155  11.954  0.00  0.00    +0.000 A 
ATOM      7  C   UNL     1      46.966   5.932  12.905  0.00  0.00    +0.000 A 
ATOM      8 BR   UNL     1      48.559   6.953  12.810  0.00  0.00    +0.000 Br
BRANCH   5   9
ATOM      9  C   UNL     1      43.706   5.514  11.022  0.00  0.00    +0.000 C 
ATOM     10  N   UNL     1      42.874   6.592  11.128  0.00  0.00    +0.000 N 
ATOM     11  O   UNL     1      43.537   4.666  10.156  0.00  0.00    +0.000 OA
ATOM     12  H   UNL     1      42.831   7.186  11.944  0.00  0.00    +0.000 HD
ATOM     13  H   UNL     1      42.083   6.610  10.495  0.00  0.00    +0.000 HD
ENDBRANCH   5   9
ENDBRANCH   1   2
BRANCH   1  14
ATOM     14  C   UNL     1      47.338   3.913  15.894  0.00  0.00    +0.000 C 
BRANCH  14  18
ATOM     15  C   UNL     1      49.410   4.999  19.551  0.00  0.00    +0.000 A 
ATOM     16  C   UNL     1      48.068   5.362  19.364  0.00  0.00    +0.000 A 
ATOM     17  C   UNL     1      47.391   5.020  18.190  0.00  0.00    +0.000 A 
ATOM     18  C   UNL     1      48.046   4.322  17.168  0.00  0.00    +0.000 A 
ATOM     19  C   UNL     1      49.382   3.939  17.366  0.00  0.00    +0.000 A 
ATOM     20  C   UNL     1      50.057   4.280  18.540  0.00  0.00    +0.000 A 
BRANCH  15  21
ATOM     21  C   UNL     1      50.152   5.408  20.798  0.00  0.00    +0.000 C 
BRANCH  21  22
ATOM     22  N   UNL     1      51.287   4.533  21.071  0.00  0.00    +0.000 NA
ATOM     23  H   UNL     1      52.125   5.101  21.184  0.00  0.00    +0.000 HD
ATOM     24  H   UNL     1      51.445   3.941  20.257  0.00  0.00    +0.000 HD
ENDBRANCH  21  22
ENDBRANCH  15  21
ENDBRANCH  14  18
ENDBRANCH   1  14
TORSDOF 6
ENDMDL
