MODEL 1
REMARK VINA RESULT:    -7.446      0.000      0.000
REMARK INTER + INTRA:          -9.907
REMARK INTER:                  -9.405
REMARK INTRA:                  -0.502
REMARK UNBOUND:                -0.502
REMARK  Name = 
REMARK  5 active torsions:
REMARK  status: ('A' for Active; 'I' for Inactive)
REMARK    1  A    between atoms: N_1  and  C_2
REMARK    2  A    between atoms: C_2  and  C_3
REMARK    3  A    between atoms: C_3  and  C_4
REMARK    4  A    between atoms: C_7  and  C_8
REMARK    5  A    between atoms: C_8  and  N_9
REMARK                            x       y       z     vdW  Elec       q    Type
REMARK                         _______ _______ _______ _____ _____    ______ ____
ROOT
ATOM      1  C   UNL     1      46.147   2.237   7.799  0.00  0.00    +0.000 A 
ATOM      2  C   UNL     1      45.362   1.683   8.811  0.00  0.00    +0.000 A 
ATOM      3  C   UNL     1      44.578   2.511   9.613  0.00  0.00    +0.000 A 
ATOM      4  C   UNL     1      44.604   3.888   9.396  0.00  0.00    +0.000 A 
ATOM      5  N   UNL     1      45.340   4.445   8.401  0.00  0.00    +0.000 NA
ATOM      6  C   UNL     1      46.071   3.614   7.624  0.00  0.00    +0.000 A 
ENDROOT
BRANCH   1   7
ATOM      7  C   UNL     1      47.039   1.383   6.934  0.00  0.00    +0.000 C 
BRANCH   7   8
ATOM      8  C   UNL     1      48.290   2.138   6.460  0.00  0.00    +0.000 C 
BRANCH   8   9
ATOM      9  N   UNL     1      48.291   2.305   5.008  0.00  0.00    +0.000 NA
ATOM     10  H   UNL     1      48.498   3.280   4.784  0.00  0.00    +0.000 HD
ATOM     11  H   UNL     1      47.359   2.125   4.638  0.00  0.00    +0.000 HD
ENDBRANCH   8   9
ENDBRANCH   7   8
ENDBRANCH   1   7
BRANCH   4  12
ATOM     12  C   UNL     1      43.872   4.826  10.320  0.00  0.00    +0.000 C 
BRANCH  12  13
ATOM     13  N   UNL     1      44.497   4.935  11.633  0.00  0.00    +0.000 N 
ATOM     14  C   UNL     1      44.101   4.217  12.736  0.00  0.00    +0.000 A 
ATOM     15  C   UNL     1      45.009   4.445  13.743  0.00  0.00    +0.000 A 
ATOM     16  C   UNL     1      46.009   5.321  13.236  0.00  0.00    +0.000 A 
ATOM     17  C   UNL     1      47.184   5.870  13.782  0.00  0.00    +0.000 A 
ATOM     18  C   UNL     1      47.970   6.702  12.987  0.00  0.00    +0.000 A 
ATOM     19  F   UNL     1      49.098   7.217  13.496  0.00  0.00    +0.000 F 
ATOM     20  C   UNL     1      47.615   7.007  11.680  0.00  0.00    +0.000 A 
ATOM     21  C   UNL     1      46.449   6.478  11.119  0.00  0.00    +0.000 A 
ATOM     22  C   UNL     1      45.663   5.625  11.914  0.00  0.00    +0.000 A 
ENDBRANCH  12  13
ENDBRANCH   4  12
TORSDOF 5
ENDMDL
MODEL 2
REMARK VINA RESULT:    -7.444      1.239      1.860
REMARK INTER + INTRA:          -9.905
REMARK INTER:                  -9.493
REMARK INTRA:                  -0.412
REMARK UNBOUND:                -0.502
REMARK  Name = 
REMARK  5 active torsions:
REMARK  status: ('A' for Active; 'I' for Inactive)
REMARK    1  A    between atoms: N_1  and  C_2
REMARK    2  A    between atoms: C_2  and  C_3
REMARK    3  A    between atoms: C_3  and  C_4
REMARK    4  A    between atoms: C_7  and  C_8
REMARK    5  A    between atoms: C_8  and  N_9
REMARK                            x       y       z     vdW  Elec       q    Type
REMARK                         _______ _______ _______ _____ _____    ______ ____
ROOT
ATOM      1  C   UNL     1      46.125   2.248   7.804  0.00  0.00    +0.000 A 
ATOM      2  C   UNL     1      45.330   1.648   8.782  0.00  0.00    +0.000 A 
ATOM      3  C   UNL     1      44.516   2.437   9.593  0.00  0.00    +0.000 A 
ATOM      4  C   UNL     1      44.522   3.821   9.421  0.00  0.00    +0.000 A 
ATOM      5  N   UNL     1      45.267   4.421   8.460  0.00  0.00    +0.000 NA
ATOM      6  C   UNL     1      46.029   3.629   7.671  0.00  0.00    +0.000 A 
ENDROOT
BRANCH   1   7
ATOM      7  C   UNL     1      47.048   1.438   6.930  0.00  0.00    +0.000 C 
BRANCH   7   8
ATOM      8  C   UNL     1      48.285   2.235   6.488  0.00  0.00    +0.000 C 
BRANCH   8   9
ATOM      9  N   UNL     1      48.274   2.477   5.047  0.00  0.00    +0.000 NA
ATOM     10  H   UNL     1      47.450   3.029   4.807  0.00  0.00    +0.000 HD
ATOM     11  H   UNL     1      48.174   1.593   4.549  0.00  0.00    +0.000 HD
ENDBRANCH   8   9
ENDBRANCH   7   8
ENDBRANCH   1   7
BRANCH   4  12
ATOM     12  C   UNL     1      43.755   4.716  10.360  0.00  0.00    +0.000 C 
BRANCH  12  13
ATOM     13  N   UNL     1      44.621   5.535  11.199  0.00  0.00    +0.000 N 
ATOM     14  C   UNL     1      44.610   6.909  11.205  0.00  0.00    +0.000 A 
ATOM     15  C   UNL     1      45.426   7.338  12.226  0.00  0.00    +0.000 A 
ATOM     16  C   UNL     1      45.944   6.187  12.881  0.00  0.00    +0.000 A 
ATOM     17  C   UNL     1      46.789   6.001  13.990  0.00  0.00    +0.000 A 
ATOM     18  C   UNL     1      47.095   4.702  14.393  0.00  0.00    +0.000 A 
ATOM     19  F   UNL     1      47.888   4.518  15.458  0.00  0.00    +0.000 F 
ATOM     20  C   UNL     1      46.595   3.596  13.721  0.00  0.00    +0.000 A 
ATOM     21  C   UNL     1      45.758   3.756  12.613  0.00  0.00    +0.000 A 
ATOM     22  C   UNL     1      45.435   5.066  12.215  0.00  0.00    +0.000 A 
ENDBRANCH  12  13
ENDBRANCH   4  12
TORSDOF 5
ENDMDL
MODEL 3
REMARK VINA RESULT:    -7.256      1.264      1.412
REMARK INTER + INTRA:          -9.666
REMARK INTER:                  -9.215
REMARK INTRA:                  -0.451
REMARK UNBOUND:                -0.502
REMARK  Name = 
REMARK  5 active torsions:
REMARK  status: ('A' for Active; 'I' for Inactive)
REMARK    1  A    between atoms: N_1  and  C_2
REMARK    2  A    between atoms: C_2  and  C_3
REMARK    3  A    between atoms: C_3  and  C_4
REMARK    4  A    between atoms: C_7  and  C_8
REMARK    5  A    between atoms: C_8  and  N_9
REMARK                            x       y       z     vdW  Elec       q    Type
REMARK                         _______ _______ _______ _____ _____    ______ ____
ROOT
ATOM      1  C   UNL     1      45.780   3.081   7.888  0.00  0.00    +0.000 A 
ATOM      2  C   UNL     1      45.145   2.156   8.719  0.00  0.00    +0.000 A 
ATOM      3  C   UNL     1      44.580   2.577   9.921  0.00  0.00    +0.000 A 
ATOM      4  C   UNL     1      44.672   3.922  10.281  0.00  0.00    +0.000 A 
ATOM      5  N   UNL     1      45.262   4.841   9.477  0.00  0.00    +0.000 NA
ATOM      6  C   UNL     1      45.780   4.408   8.305  0.00  0.00    +0.000 A 
ENDROOT
BRANCH   1   7
ATOM      7  C   UNL     1      46.438   2.664   6.598  0.00  0.00    +0.000 C 
BRANCH   7   8
ATOM      8  C   UNL     1      47.666   1.770   6.830  0.00  0.00    +0.000 C 
BRANCH   8   9
ATOM      9  N   UNL     1      48.614   1.872   5.722  0.00  0.00    +0.000 NA
ATOM     10  H   UNL     1      48.303   2.604   5.083  0.00  0.00    +0.000 HD
ATOM     11  H   UNL     1      48.609   1.008   5.182  0.00  0.00    +0.000 HD
ENDBRANCH   8   9
ENDBRANCH   7   8
ENDBRANCH   1   7
BRANCH   4  12
ATOM     12  C   UNL     1      44.187   4.392  11.628  0.00  0.00    +0.000 C 
BRANCH  12  13
ATOM     13  N   UNL     1      45.275   4.683  12.554  0.00  0.00    +0.000 N 
ATOM     14  C   UNL     1      46.037   3.722  13.173  0.00  0.00    +0.000 A 
ATOM     15  C   UNL     1      47.065   4.353  13.836  0.00  0.00    +0.000 A 
ATOM     16  C   UNL     1      46.939   5.750  13.602  0.00  0.00    +0.000 A 
ATOM     17  C   UNL     1      47.699   6.869  13.988  0.00  0.00    +0.000 A 
ATOM     18  C   UNL     1      47.297   8.135  13.563  0.00  0.00    +0.000 A 
ATOM     19  F   UNL     1      48.025   9.203  13.916  0.00  0.00    +0.000 F 
ATOM     20  C   UNL     1      46.165   8.313  12.782  0.00  0.00    +0.000 A 
ATOM     21  C   UNL     1      45.391   7.217  12.391  0.00  0.00    +0.000 A 
ATOM     22  C   UNL     1      45.804   5.938  12.805  0.00  0.00    +0.000 A 
ENDBRANCH  12  13
ENDBRANCH   4  12
TORSDOF 5
ENDMDL
MODEL 4
REMARK VINA RESULT:    -6.219      3.077      6.480
REMARK INTER + INTRA:          -8.356
REMARK INTER:                  -7.991
REMARK INTRA:                  -0.365
REMARK UNBOUND:                -0.502
REMARK  Name = 
REMARK  5 active torsions:
REMARK  status: ('A' for Active; 'I' for Inactive)
REMARK    1  A    between atoms: N_1  and  C_2
REMARK    2  A    between atoms: C_2  and  C_3
REMARK    3  A    between atoms: C_3  and  C_4
REMARK    4  A    between atoms: C_7  and  C_8
REMARK    5  A    between atoms: C_8  and  N_9
REMARK                            x       y       z     vdW  Elec       q    Type
REMARK                         _______ _______ _______ _____ _____    ______ ____
ROOT
ATOM      1  C   UNL     1      47.678   7.138  13.796  0.00  0.00    +0.000 A 
ATOM      2  C   UNL     1      46.879   8.137  13.238  0.00  0.00    +0.000 A 
ATOM      3  C   UNL     1      45.673   7.800  12.626  0.00  0.00    +0.000 A 
ATOM      4  C   UNL     1      45.292   6.460  12.569  0.00  0.00    +0.000 A 
ATOM      5  N   UNL     1      46.040   5.476  13.127  0.00  0.00    +0.000 NA
ATOM      6  C   UNL     1      47.194   5.836  13.736  0.00  0.00    +0.000 A 
ENDROOT
BRANCH   1   7
ATOM      7  C   UNL     1      49.007   7.452  14.434  0.00  0.00    +0.000 C 
BRANCH   7   8
ATOM      8  C   UNL     1      49.041   7.088  15.926  0.00  0.00    +0.000 C 
BRANCH   8   9
ATOM      9  N   UNL     1      49.878   5.914  16.167  0.00  0.00    +0.000 NA
ATOM     10  H   UNL     1      49.639   5.189  15.490  0.00  0.00    +0.000 HD
ATOM     11  H   UNL     1      49.667   5.522  17.084  0.00  0.00    +0.000 HD
ENDBRANCH   8   9
ENDBRANCH   7   8
ENDBRANCH   1   7
BRANCH   4  12
ATOM     12  C   UNL     1      44.061   6.042  11.806  0.00  0.00    +0.000 C 
BRANCH  12  13
ATOM     13  N   UNL     1      44.124   4.664  11.337  0.00  0.00    +0.000 N 
ATOM     14  C   UNL     1      43.434   3.623  11.910  0.00  0.00    +0.000 A 
ATOM     15  C   UNL     1      43.597   2.513  11.114  0.00  0.00    +0.000 A 
ATOM     16  C   UNL     1      44.401   2.889  10.004  0.00  0.00    +0.000 A 
ATOM     17  C   UNL     1      44.866   2.201   8.867  0.00  0.00    +0.000 A 
ATOM     18  C   UNL     1      45.643   2.889   7.936  0.00  0.00    +0.000 A 
ATOM     19  F   UNL     1      46.077   2.244   6.844  0.00  0.00    +0.000 F 
ATOM     20  C   UNL     1      45.973   4.225   8.110  0.00  0.00    +0.000 A 
ATOM     21  C   UNL     1      45.527   4.927   9.235  0.00  0.00    +0.000 A 
ATOM     22  C   UNL     1      44.731   4.239  10.167  0.00  0.00    +0.000 A 
ENDBRANCH  12  13
ENDBRANCH   4  12
TORSDOF 5
ENDMDL
MODEL 5
REMARK VINA RESULT:    -5.968      2.836      6.391
REMARK INTER + INTRA:          -8.040
REMARK INTER:                  -7.587
REMARK INTRA:                  -0.453
REMARK UNBOUND:                -0.502
REMARK  Name = 
REMARK  5 active torsions:
REMARK  status: ('A' for Active; 'I' for Inactive)
REMARK    1  A    between atoms: N_1  and  C_2
REMARK    2  A    between atoms: C_2  and  C_3
REMARK    3  A    between atoms: C_3  and  C_4
REMARK    4  A    between atoms: C_7  and  C_8
REMARK    5  A    between atoms: C_8  and  N_9
REMARK                            x       y       z     vdW  Elec       q    Type
REMARK                         _______ _______ _______ _____ _____    ______ ____
ROOT
ATOM      1  C   UNL     1      46.642   6.502  12.848  0.00  0.00    +0.000 A 
ATOM      2  C   UNL     1      45.685   5.542  13.181  0.00  0.00    +0.000 A 
ATOM      3  C   UNL     1      44.974   4.892  12.172  0.00  0.00    +0.000 A 
ATOM      4  C   UNL     1      45.225   5.227  10.842  0.00  0.00    +0.000 A 
ATOM      5  N   UNL     1      46.169   6.137  10.496  0.00  0.00    +0.000 NA
ATOM      6  C   UNL     1      46.859   6.734  11.494  0.00  0.00    +0.000 A 
ENDROOT
BRANCH   1   7
ATOM      7  C   UNL     1      47.405   7.256  13.906  0.00  0.00    +0.000 C 
BRANCH   7   8
ATOM      8  C   UNL     1      48.385   6.356  14.674  0.00  0.00    +0.000 C 
BRANCH   8   9
ATOM      9  N   UNL     1      49.766   6.799  14.494  0.00  0.00    +0.000 NA
ATOM     10  H   UNL     1      50.120   6.440  13.606  0.00  0.00    +0.000 HD
ATOM     11  H   UNL     1      50.358   6.391  15.217  0.00  0.00    +0.000 HD
ENDBRANCH   8   9
ENDBRANCH   7   8
ENDBRANCH   1   7
BRANCH   4  12
ATOM     12  C   UNL     1      44.391   4.641   9.732  0.00  0.00    +0.000 C 
BRANCH  12  13
ATOM     13  N   UNL     1      44.923   3.382   9.224  0.00  0.00    +0.000 N 
ATOM     14  C   UNL     1      44.475   2.143   9.615  0.00  0.00    +0.000 A 
ATOM     15  C   UNL     1      45.079   1.199   8.818  0.00  0.00    +0.000 A 
ATOM     16  C   UNL     1      45.916   1.882   7.893  0.00  0.00    +0.000 A 
ATOM     17  C   UNL     1      46.741   1.458   6.836  0.00  0.00    +0.000 A 
ATOM     18  C   UNL     1      47.433   2.415   6.095  0.00  0.00    +0.000 A 
ATOM     19  F   UNL     1      48.209   2.018   5.078  0.00  0.00    +0.000 F 
ATOM     20  C   UNL     1      47.333   3.769   6.384  0.00  0.00    +0.000 A 
ATOM     21  C   UNL     1      46.524   4.214   7.434  0.00  0.00    +0.000 A 
ATOM     22  C   UNL     1      45.813   3.251   8.172  0.00  0.00    +0.000 A 
ENDBRANCH  12  13
ENDBRANCH   4  12
TORSDOF 5
ENDMDL
MODEL 6
REMARK VINA RESULT:    -5.869      2.166      3.549
REMARK INTER + INTRA:          -7.915
REMARK INTER:                  -7.596
REMARK INTRA:                  -0.319
REMARK UNBOUND:                -0.502
REMARK  Name = 
REMARK  5 active torsions:
REMARK  status: ('A' for Active; 'I' for Inactive)
REMARK    1  A    between atoms: N_1  and  C_2
REMARK    2  A    between atoms: C_2  and  C_3
REMARK    3  A    between atoms: C_3  and  C_4
REMARK    4  A    between atoms: C_7  and  C_8
REMARK    5  A    between atoms: C_8  and  N_9
REMARK                            x       y       z     vdW  Elec       q    Type
REMARK                         _______ _______ _______ _____ _____    ______ ____
ROOT
ATOM      1  C   UNL     1      45.006   3.381   9.901  0.00  0.00    +0.000 A 
ATOM      2  C   UNL     1      45.274   4.696   9.517  0.00  0.00    +0.000 A 
ATOM      3  C   UNL     1      45.397   5.690  10.487  0.00  0.00    +0.000 A 
ATOM      4  C   UNL     1      45.235   5.352  11.830  0.00  0.00    +0.000 A 
ATOM      5  N   UNL     1      45.000   4.076  12.226  0.00  0.00    +0.000 NA
ATOM      6  C   UNL     1      44.910   3.128  11.265  0.00  0.00    +0.000 A 
ENDROOT
BRANCH   1   7
ATOM      7  C   UNL     1      44.827   2.283   8.884  0.00  0.00    +0.000 C 
BRANCH   7   8
ATOM      8  C   UNL     1      46.112   2.007   8.088  0.00  0.00    +0.000 C 
BRANCH   8   9
ATOM      9  N   UNL     1      46.420   0.579   8.053  0.00  0.00    +0.000 NA
ATOM     10  H   UNL     1      46.565   0.292   7.084  0.00  0.00    +0.000 HD
ATOM     11  H   UNL     1      45.618   0.044   8.386  0.00  0.00    +0.000 HD
ENDBRANCH   8   9
ENDBRANCH   7   8
ENDBRANCH   1   7
BRANCH   4  12
ATOM     12  C   UNL     1      45.234   6.416  12.897  0.00  0.00    +0.000 C 
BRANCH  12  13
ATOM     13  N   UNL     1      45.874   7.653  12.466  0.00  0.00    +0.000 N 
ATOM     14  C   UNL     1      45.212   8.846  12.303  0.00  0.00    +0.000 A 
ATOM     15  C   UNL     1      46.148   9.823  12.055  0.00  0.00    +0.000 A 
ATOM     16  C   UNL     1      47.432   9.212  12.083  0.00  0.00    +0.000 A 
ATOM     17  C   UNL     1      48.742   9.703  11.931  0.00  0.00    +0.000 A 
ATOM     18  C   UNL     1      49.810   8.812  12.034  0.00  0.00    +0.000 A 
ATOM     19  F   UNL     1      51.060   9.275  11.905  0.00  0.00    +0.000 F 
ATOM     20  C   UNL     1      49.608   7.460  12.270  0.00  0.00    +0.000 A 
ATOM     21  C   UNL     1      48.315   6.949  12.418  0.00  0.00    +0.000 A 
ATOM     22  C   UNL     1      47.238   7.848  12.331  0.00  0.00    +0.000 A 
ENDBRANCH  12  13
ENDBRANCH   4  12
TORSDOF 5
ENDMDL
MODEL 7
REMARK VINA RESULT:    -5.426      2.407      3.949
REMARK INTER + INTRA:          -7.356
REMARK INTER:                  -6.947
REMARK INTRA:                  -0.408
REMARK UNBOUND:                -0.502
REMARK  Name = 
REMARK  5 active torsions:
REMARK  status: ('A' for Active; 'I' for Inactive)
REMARK    1  A    between atoms: N_1  and  C_2
REMARK    2  A    between atoms: C_2  and  C_3
REMARK    3  A    between atoms: C_3  and  C_4
REMARK    4  A    between atoms: C_7  and  C_8
REMARK    5  A    between atoms: C_8  and  N_9
REMARK                            x       y       z     vdW  Elec       q    Type
REMARK                         _______ _______ _______ _____ _____    ______ ____
ROOT
ATOM      1  C   UNL     1      44.752   3.495  10.605  0.00  0.00    +0.000 A 
ATOM      2  C   UNL     1      44.975   3.278  11.966  0.00  0.00    +0.000 A 
ATOM      3  C   UNL     1      45.257   4.356  12.803  0.00  0.00    +0.000 A 
ATOM      4  C   UNL     1      45.325   5.639  12.259  0.00  0.00    +0.000 A 
ATOM      5  N   UNL     1      45.087   5.874  10.944  0.00  0.00    +0.000 NA
ATOM      6  C   UNL     1      44.792   4.812  10.161  0.00  0.00    +0.000 A 
ENDROOT
BRANCH   1   7
ATOM      7  C   UNL     1      44.483   2.354   9.657  0.00  0.00    +0.000 C 
BRANCH   7   8
ATOM      8  C   UNL     1      45.476   2.319   8.486  0.00  0.00    +0.000 C 
BRANCH   8   9
ATOM      9  N   UNL     1      46.125   1.014   8.378  0.00  0.00    +0.000 NA
ATOM     10  H   UNL     1      46.786   1.033   7.601  0.00  0.00    +0.000 HD
ATOM     11  H   UNL     1      45.434   0.303   8.140  0.00  0.00    +0.000 HD
ENDBRANCH   8   9
ENDBRANCH   7   8
ENDBRANCH   1   7
BRANCH   4  12
ATOM     12  C   UNL     1      45.751   6.811  13.104  0.00  0.00    +0.000 C 
BRANCH  12  13
ATOM     13  N   UNL     1      47.140   7.196  12.884  0.00  0.00    +0.000 N 
ATOM     14  C   UNL     1      48.208   6.346  13.038  0.00  0.00    +0.000 A 
ATOM     15  C   UNL     1      49.337   6.992  12.589  0.00  0.00    +0.000 A 
ATOM     16  C   UNL     1      48.945   8.279  12.127  0.00  0.00    +0.000 A 
ATOM     17  C   UNL     1      49.643   9.351  11.541  0.00  0.00    +0.000 A 
ATOM     18  C   UNL     1      48.935  10.497  11.180  0.00  0.00    +0.000 A 
ATOM     19  F   UNL     1      49.591  11.516  10.609  0.00  0.00    +0.000 F 
ATOM     20  C   UNL     1      47.569  10.605  11.395  0.00  0.00    +0.000 A 
ATOM     21  C   UNL     1      46.856   9.554  11.980  0.00  0.00    +0.000 A 
ATOM     22  C   UNL     1      47.565   8.392  12.331  0.00  0.00    +0.000 A 
ENDBRANCH  12  13
ENDBRANCH   4  12
TORSDOF 5
ENDMDL
MODEL 8
REMARK VINA RESULT:    -5.110      2.214      3.993
REMARK INTER + INTRA:          -6.956
REMARK INTER:                  -6.560
REMARK INTRA:                  -0.396
REMARK UNBOUND:                -0.502
REMARK  Name = 
REMARK  5 active torsions:
REMARK  status: ('A' for Active; 'I' for Inactive)
REMARK    1  A    between atoms: N_1  and  C_2
REMARK    2  A    between atoms: C_2  and  C_3
REMARK    3  A    between atoms: C_3  and  C_4
REMARK    4  A    between atoms: C_7  and  C_8
REMARK    5  A    between atoms: C_8  and  N_9
REMARK                            x       y       z     vdW  Elec       q    Type
REMARK                         _______ _______ _______ _____ _____    ______ ____
ROOT
ATOM      1  C   UNL     1      44.841   3.570  10.557  0.00  0.00    +0.000 A 
ATOM      2  C   UNL     1      45.300   3.305  11.849  0.00  0.00    +0.000 A 
ATOM      3  C   UNL     1      45.617   4.361  12.701  0.00  0.00    +0.000 A 
ATOM      4  C   UNL     1      45.484   5.671  12.240  0.00  0.00    +0.000 A 
ATOM      5  N   UNL     1      45.015   5.949  10.998  0.00  0.00    +0.000 NA
ATOM      6  C   UNL     1      44.692   4.905  10.201  0.00  0.00    +0.000 A 
ENDROOT
BRANCH   1   7
ATOM      7  C   UNL     1      44.523   2.459   9.590  0.00  0.00    +0.000 C 
BRANCH   7   8
ATOM      8  C   UNL     1      45.591   2.311   8.496  0.00  0.00    +0.000 C 
BRANCH   8   9
ATOM      9  N   UNL     1      46.018   0.920   8.353  0.00  0.00    +0.000 NA
ATOM     10  H   UNL     1      46.953   0.815   8.748  0.00  0.00    +0.000 HD
ATOM     11  H   UNL     1      46.102   0.685   7.365  0.00  0.00    +0.000 HD
ENDBRANCH   8   9
ENDBRANCH   7   8
ENDBRANCH   1   7
BRANCH   4  12
ATOM     12  C   UNL     1      45.936   6.834  13.084  0.00  0.00    +0.000 C 
BRANCH  12  13
ATOM     13  N   UNL     1      47.343   7.164  12.890  0.00  0.00    +0.000 N 
ATOM     14  C   UNL     1      47.842   7.777  11.766  0.00  0.00    +0.000 A 
ATOM     15  C   UNL     1      49.163   8.082  11.997  0.00  0.00    +0.000 A 
ATOM     16  C   UNL     1      49.483   7.657  13.316  0.00  0.00    +0.000 A 
ATOM     17  C   UNL     1      50.648   7.730  14.102  0.00  0.00    +0.000 A 
ATOM     18  C   UNL     1      50.618   7.218  15.398  0.00  0.00    +0.000 A 
ATOM     19  F   UNL     1      51.720   7.297  16.156  0.00  0.00    +0.000 F 
ATOM     20  C   UNL     1      49.475   6.632  15.922  0.00  0.00    +0.000 A 
ATOM     21  C   UNL     1      48.308   6.543  15.158  0.00  0.00    +0.000 A 
ATOM     22  C   UNL     1      48.331   7.074  13.856  0.00  0.00    +0.000 A 
ENDBRANCH  12  13
ENDBRANCH   4  12
TORSDOF 5
ENDMDL
MODEL 9
REMARK VINA RESULT:    -5.041      4.302      6.759
REMARK INTER + INTRA:          -6.869
REMARK INTER:                  -6.353
REMARK INTRA:                  -0.515
REMARK UNBOUND:                -0.502
REMARK  Name = 
REMARK  5 active torsions:
REMARK  status: ('A' for Active; 'I' for Inactive)
REMARK    1  A    between atoms: N_1  and  C_2
REMARK    2  A    between atoms: C_2  and  C_3
REMARK    3  A    between atoms: C_3  and  C_4
REMARK    4  A    between atoms: C_7  and  C_8
REMARK    5  A    between atoms: C_8  and  N_9
REMARK                            x       y       z     vdW  Elec       q    Type
REMARK                         _______ _______ _______ _____ _____    ______ ____
ROOT
ATOM      1  C   UNL     1      45.864   5.573  12.341  0.00  0.00    +0.000 A 
ATOM      2  C   UNL     1      46.472   6.731  11.853  0.00  0.00    +0.000 A 
ATOM      3  C   UNL     1      47.639   7.206  12.450  0.00  0.00    +0.000 A 
ATOM      4  C   UNL     1      48.172   6.518  13.540  0.00  0.00    +0.000 A 
ATOM      5  N   UNL     1      47.612   5.377  14.013  0.00  0.00    +0.000 NA
ATOM      6  C   UNL     1      46.494   4.927  13.399  0.00  0.00    +0.000 A 
ENDROOT
BRANCH   1   7
ATOM      7  C   UNL     1      44.581   5.046  11.751  0.00  0.00    +0.000 C 
BRANCH   7   8
ATOM      8  C   UNL     1      43.662   4.423  12.812  0.00  0.00    +0.000 C 
BRANCH   8   9
ATOM      9  N   UNL     1      42.702   5.399  13.323  0.00  0.00    +0.000 NA
ATOM     10  H   UNL     1      43.196   6.258  13.565  0.00  0.00    +0.000 HD
ATOM     11  H   UNL     1      42.291   5.058  14.192  0.00  0.00    +0.000 HD
ENDBRANCH   8   9
ENDBRANCH   7   8
ENDBRANCH   1   7
BRANCH   4  12
ATOM     12  C   UNL     1      49.357   7.068  14.291  0.00  0.00    +0.000 C 
BRANCH  12  13
ATOM     13  N   UNL     1      48.976   7.877  15.442  0.00  0.00    +0.000 N 
ATOM     14  C   UNL     1      48.671   9.215  15.376  0.00  0.00    +0.000 A 
ATOM     15  C   UNL     1      48.199   9.607  16.607  0.00  0.00    +0.000 A 
ATOM     16  C   UNL     1      48.196   8.466  17.455  0.00  0.00    +0.000 A 
ATOM     17  C   UNL     1      47.799   8.249  18.787  0.00  0.00    +0.000 A 
ATOM     18  C   UNL     1      47.917   6.969  19.325  0.00  0.00    +0.000 A 
ATOM     19  F   UNL     1      47.527   6.753  20.589  0.00  0.00    +0.000 F 
ATOM     20  C   UNL     1      48.424   5.912  18.582  0.00  0.00    +0.000 A 
ATOM     21  C   UNL     1      48.831   6.105  17.258  0.00  0.00    +0.000 A 
ATOM     22  C   UNL     1      48.698   7.393  16.709  0.00  0.00    +0.000 A 
ENDBRANCH  12  13
ENDBRANCH   4  12
TORSDOF 5
ENDMDL
