MODEL 1
REMARK VINA RESULT:    -7.896      0.000      0.000
REMARK INTER + INTRA:         -11.107
REMARK INTER:                 -10.665
REMARK INTRA:                  -0.442
REMARK UNBOUND:                -0.442
REMARK  Name = 
REMARK  8 active torsions:
REMARK  status: ('A' for Active; 'I' for Inactive)
REMARK    1  A    between atoms: C_1  and  C_2
REMARK    2  A    between atoms: C_6  and  N_7
REMARK    3  A    between atoms: N_7  and  C_8
REMARK    4  A    between atoms: C_8  and  C_9
REMARK    5  A    between atoms: C_12  and  C_13
REMARK    6  A    between atoms: C_13  and  N_14
REMARK    7  A    between atoms: N_14  and  C_15
REMARK    8  A    between atoms: C_16  and  C_18
REMARK                            x       y       z     vdW  Elec       q    Type
REMARK                         _______ _______ _______ _____ _____    ______ ____
ROOT
ATOM      1  C   UNL     1      44.613   5.064  11.017  0.00  0.00    +0.000 A 
ATOM      2  C   UNL     1      45.593   5.810  10.365  0.00  0.00    +0.000 A 
ATOM      3  C   UNL     1      46.281   6.792  11.076  0.00  0.00    +0.000 A 
ATOM      4  C   UNL     1      46.006   6.997  12.430  0.00  0.00    +0.000 A 
ATOM      5  C   UNL     1      45.009   6.211  12.996  0.00  0.00    +0.000 A 
ATOM      6  N   UNL     1      44.305   5.271  12.321  0.00  0.00    +0.000 NA
ENDROOT
BRANCH   1   7
ATOM      7  C   UNL     1      43.868   3.964  10.281  0.00  0.00    +0.000 C 
BRANCH   7   8
ATOM      8  N   UNL     1      44.185   3.959   8.857  0.00  0.00    +0.000 N 
ATOM      9  H   UNL     1      43.424   4.222   8.239  0.00  0.00    +0.000 HD
BRANCH   8  15
ATOM     10  C   UNL     1      47.564   2.778   5.402  0.00  0.00    +0.000 C 
ATOM     11  C   UNL     1      46.759   2.448   6.618  0.00  0.00    +0.000 A 
ATOM     12  C   UNL     1      46.872   1.220   7.256  0.00  0.00    +0.000 A 
ATOM     13  N   UNL     1      46.168   0.880   8.355  0.00  0.00    +0.000 NA
ATOM     14  C   UNL     1      45.315   1.818   8.838  0.00  0.00    +0.000 A 
ATOM     15  C   UNL     1      45.135   3.103   8.315  0.00  0.00    +0.000 A 
ATOM     16  C   UNL     1      45.866   3.383   7.158  0.00  0.00    +0.000 A 
ENDBRANCH   8  15
ENDBRANCH   7   8
ENDBRANCH   1   7
BRANCH   4  17
ATOM     17  C   UNL     1      46.785   7.977  13.270  0.00  0.00    +0.000 C 
BRANCH  17  18
ATOM     18  N   UNL     1      48.049   7.412  13.747  0.00  0.00    +0.000 N 
ATOM     19  C   UNL     1      48.671   6.398  12.910  0.00  0.00    +0.000 C 
ATOM     20  C   UNL     1      48.554   7.885  14.968  0.00  0.00    +0.000 C 
ATOM     21  O   UNL     1      47.946   8.735  15.615  0.00  0.00    +0.000 OA
BRANCH  20  22
ATOM     22  C   UNL     1      49.857   7.403  15.451  0.00  0.00    +0.000 A 
ATOM     23  C   UNL     1      51.056   8.074  15.270  0.00  0.00    +0.000 A 
ATOM     24  S   UNL     1      52.389   7.307  16.011  0.00  0.00    +0.000 S 
ATOM     25  C   UNL     1      51.388   6.118  16.704  0.00  0.00    +0.000 A 
ATOM     26  N   UNL     1      51.896   5.181  17.547  0.00  0.00    +0.000 NA
ATOM     27  C   UNL     1      51.012   4.379  18.040  0.00  0.00    +0.000 A 
ATOM     28  N   UNL     1      49.673   4.413  17.742  0.00  0.00    +0.000 N 
ATOM     29  C   UNL     1      49.131   5.272  16.809  0.00  0.00    +0.000 A 
ATOM     30  O   UNL     1      47.975   5.141  16.428  0.00  0.00    +0.000 OA
ATOM     31  C   UNL     1      50.071   6.259  16.306  0.00  0.00    +0.000 A 
ATOM     32  H   UNL     1      49.044   3.719  18.116  0.00  0.00    +0.000 HD
ENDBRANCH  20  22
ENDBRANCH  17  18
ENDBRANCH   4  17
TORSDOF 6
ENDMDL
MODEL 2
REMARK VINA RESULT:    -7.879      2.159      2.631
REMARK INTER + INTRA:         -11.085
REMARK INTER:                 -10.131
REMARK INTRA:                  -0.954
REMARK UNBOUND:                -0.442
REMARK  Name = 
REMARK  8 active torsions:
REMARK  status: ('A' for Active; 'I' for Inactive)
REMARK    1  A    between atoms: C_1  and  C_2
REMARK    2  A    between atoms: C_6  and  N_7
REMARK    3  A    between atoms: N_7  and  C_8
REMARK    4  A    between atoms: C_8  and  C_9
REMARK    5  A    between atoms: C_12  and  C_13
REMARK    6  A    between atoms: C_13  and  N_14
REMARK    7  A    between atoms: N_14  and  C_15
REMARK    8  A    between atoms: C_16  and  C_18
REMARK                            x       y       z     vdW  Elec       q    Type
REMARK                         _______ _______ _______ _____ _____    ______ ____
ROOT
ATOM      1  C   UNL     1      45.370   5.457  11.908  0.00  0.00    +0.000 A 
ATOM      2  C   UNL     1      45.944   4.871  13.034  0.00  0.00    +0.000 A 
ATOM      3  C   UNL     1      47.152   5.374  13.518  0.00  0.00    +0.000 A 
ATOM      4  C   UNL     1      47.753   6.469  12.894  0.00  0.00    +0.000 A 
ATOM      5  C   UNL     1      47.112   6.986  11.774  0.00  0.00    +0.000 A 
ATOM      6  N   UNL     1      45.954   6.498  11.265  0.00  0.00    +0.000 NA
ENDROOT
BRANCH   1   7
ATOM      7  C   UNL     1      44.039   4.956  11.376  0.00  0.00    +0.000 C 
BRANCH   7   8
ATOM      8  N   UNL     1      44.050   4.840   9.921  0.00  0.00    +0.000 N 
ATOM      9  H   UNL     1      43.206   5.151   9.451  0.00  0.00    +0.000 HD
BRANCH   8  15
ATOM     10  C   UNL     1      46.940   3.279   6.186  0.00  0.00    +0.000 C 
ATOM     11  C   UNL     1      46.148   3.023   7.428  0.00  0.00    +0.000 A 
ATOM     12  C   UNL     1      46.044   1.753   7.978  0.00  0.00    +0.000 A 
ATOM     13  N   UNL     1      45.343   1.477   9.096  0.00  0.00    +0.000 NA
ATOM     14  C   UNL     1      44.722   2.526   9.693  0.00  0.00    +0.000 A 
ATOM     15  C   UNL     1      44.778   3.856   9.265  0.00  0.00    +0.000 A 
ATOM     16  C   UNL     1      45.491   4.073   8.084  0.00  0.00    +0.000 A 
ENDBRANCH   8  15
ENDBRANCH   7   8
ENDBRANCH   1   7
BRANCH   4  17
ATOM     17  C   UNL     1      49.006   7.112  13.430  0.00  0.00    +0.000 C 
BRANCH  17  18
ATOM     18  N   UNL     1      48.816   7.651  14.779  0.00  0.00    +0.000 N 
ATOM     19  C   UNL     1      47.826   8.708  14.928  0.00  0.00    +0.000 C 
ATOM     20  C   UNL     1      49.600   7.115  15.812  0.00  0.00    +0.000 C 
ATOM     21  O   UNL     1      50.425   6.232  15.584  0.00  0.00    +0.000 OA
BRANCH  20  22
ATOM     22  C   UNL     1      49.391   7.571  17.194  0.00  0.00    +0.000 A 
ATOM     23  C   UNL     1      49.822   8.791  17.690  0.00  0.00    +0.000 A 
ATOM     24  S   UNL     1      49.363   9.073  19.310  0.00  0.00    +0.000 S 
ATOM     25  C   UNL     1      48.466   7.628  19.363  0.00  0.00    +0.000 A 
ATOM     26  N   UNL     1      47.735   7.299  20.461  0.00  0.00    +0.000 NA
ATOM     27  C   UNL     1      47.062   6.203  20.338  0.00  0.00    +0.000 A 
ATOM     28  N   UNL     1      47.078   5.396  19.230  0.00  0.00    +0.000 N 
ATOM     29  C   UNL     1      47.889   5.631  18.139  0.00  0.00    +0.000 A 
ATOM     30  O   UNL     1      48.022   4.789  17.260  0.00  0.00    +0.000 OA
ATOM     31  C   UNL     1      48.585   6.904  18.190  0.00  0.00    +0.000 A 
ATOM     32  H   UNL     1      46.575   4.522  19.221  0.00  0.00    +0.000 HD
ENDBRANCH  20  22
ENDBRANCH  17  18
ENDBRANCH   4  17
TORSDOF 6
ENDMDL
MODEL 3
REMARK VINA RESULT:    -7.785      2.313      2.994
REMARK INTER + INTRA:         -10.958
REMARK INTER:                 -10.763
REMARK INTRA:                  -0.195
REMARK UNBOUND:                -0.442
REMARK  Name = 
REMARK  8 active torsions:
REMARK  status: ('A' for Active; 'I' for Inactive)
REMARK    1  A    between atoms: C_1  and  C_2
REMARK    2  A    between atoms: C_6  and  N_7
REMARK    3  A    between atoms: N_7  and  C_8
REMARK    4  A    between atoms: C_8  and  C_9
REMARK    5  A    between atoms: C_12  and  C_13
REMARK    6  A    between atoms: C_13  and  N_14
REMARK    7  A    between atoms: N_14  and  C_15
REMARK    8  A    between atoms: C_16  and  C_18
REMARK                            x       y       z     vdW  Elec       q    Type
REMARK                         _______ _______ _______ _____ _____    ______ ____
ROOT
ATOM      1  C   UNL     1      44.637   3.794  12.346  0.00  0.00    +0.000 A 
ATOM      2  C   UNL     1      44.571   5.157  12.629  0.00  0.00    +0.000 A 
ATOM      3  C   UNL     1      45.634   5.761  13.299  0.00  0.00    +0.000 A 
ATOM      4  C   UNL     1      46.757   5.009  13.650  0.00  0.00    +0.000 A 
ATOM      5  C   UNL     1      46.734   3.656  13.334  0.00  0.00    +0.000 A 
ATOM      6  N   UNL     1      45.701   3.037  12.711  0.00  0.00    +0.000 NA
ENDROOT
BRANCH   1   7
ATOM      7  C   UNL     1      43.512   3.111  11.588  0.00  0.00    +0.000 C 
BRANCH   7   8
ATOM      8  N   UNL     1      44.024   2.165  10.602  0.00  0.00    +0.000 N 
ATOM      9  H   UNL     1      44.258   1.244  10.959  0.00  0.00    +0.000 HD
BRANCH   8  15
ATOM     10  C   UNL     1      47.333   1.375   6.972  0.00  0.00    +0.000 C 
ATOM     11  C   UNL     1      46.393   2.264   7.720  0.00  0.00    +0.000 A 
ATOM     12  C   UNL     1      46.217   3.597   7.373  0.00  0.00    +0.000 A 
ATOM     13  N   UNL     1      45.379   4.434   8.018  0.00  0.00    +0.000 NA
ATOM     14  C   UNL     1      44.683   3.908   9.057  0.00  0.00    +0.000 A 
ATOM     15  C   UNL     1      44.738   2.577   9.484  0.00  0.00    +0.000 A 
ATOM     16  C   UNL     1      45.648   1.769   8.799  0.00  0.00    +0.000 A 
ENDBRANCH   8  15
ENDBRANCH   7   8
ENDBRANCH   1   7
BRANCH   4  17
ATOM     17  C   UNL     1      47.973   5.631  14.289  0.00  0.00    +0.000 C 
BRANCH  17  18
ATOM     18  N   UNL     1      47.984   5.455  15.742  0.00  0.00    +0.000 N 
ATOM     19  C   UNL     1      47.443   4.205  16.254  0.00  0.00    +0.000 C 
ATOM     20  C   UNL     1      48.505   6.499  16.522  0.00  0.00    +0.000 C 
ATOM     21  O   UNL     1      48.926   7.528  15.997  0.00  0.00    +0.000 OA
BRANCH  20  22
ATOM     22  C   UNL     1      48.607   6.336  17.980  0.00  0.00    +0.000 A 
ATOM     23  C   UNL     1      47.570   6.571  18.868  0.00  0.00    +0.000 A 
ATOM     24  S   UNL     1      47.966   6.219  20.491  0.00  0.00    +0.000 S 
ATOM     25  C   UNL     1      49.496   5.622  20.046  0.00  0.00    +0.000 A 
ATOM     26  N   UNL     1      50.328   5.073  20.969  0.00  0.00    +0.000 NA
ATOM     27  C   UNL     1      51.431   4.612  20.478  0.00  0.00    +0.000 A 
ATOM     28  N   UNL     1      51.786   4.680  19.155  0.00  0.00    +0.000 N 
ATOM     29  C   UNL     1      51.024   5.326  18.203  0.00  0.00    +0.000 A 
ATOM     30  O   UNL     1      51.465   5.534  17.080  0.00  0.00    +0.000 OA
ATOM     31  C   UNL     1      49.730   5.768  18.690  0.00  0.00    +0.000 A 
ATOM     32  H   UNL     1      52.689   4.353  18.846  0.00  0.00    +0.000 HD
ENDBRANCH  20  22
ENDBRANCH  17  18
ENDBRANCH   4  17
TORSDOF 6
ENDMDL
MODEL 4
REMARK VINA RESULT:    -7.528      3.005      3.573
REMARK INTER + INTRA:         -10.611
REMARK INTER:                  -9.473
REMARK INTRA:                  -1.138
REMARK UNBOUND:                -0.442
REMARK  Name = 
REMARK  8 active torsions:
REMARK  status: ('A' for Active; 'I' for Inactive)
REMARK    1  A    between atoms: C_1  and  C_2
REMARK    2  A    between atoms: C_6  and  N_7
REMARK    3  A    between atoms: N_7  and  C_8
REMARK    4  A    between atoms: C_8  and  C_9
REMARK    5  A    between atoms: C_12  and  C_13
REMARK    6  A    between atoms: C_13  and  N_14
REMARK    7  A    between atoms: N_14  and  C_15
REMARK    8  A    between atoms: C_16  and  C_18
REMARK                            x       y       z     vdW  Elec       q    Type
REMARK                         _______ _______ _______ _____ _____    ______ ____
ROOT
ATOM      1  C   UNL     1      44.816   5.563  10.967  0.00  0.00    +0.000 A 
ATOM      2  C   UNL     1      45.976   5.321  11.701  0.00  0.00    +0.000 A 
ATOM      3  C   UNL     1      46.513   6.349  12.475  0.00  0.00    +0.000 A 
ATOM      4  C   UNL     1      45.874   7.589  12.531  0.00  0.00    +0.000 A 
ATOM      5  C   UNL     1      44.726   7.742  11.762  0.00  0.00    +0.000 A 
ATOM      6  N   UNL     1      44.200   6.770  10.978  0.00  0.00    +0.000 NA
ENDROOT
BRANCH   1   7
ATOM      7  C   UNL     1      44.185   4.455  10.141  0.00  0.00    +0.000 C 
BRANCH   7   8
ATOM      8  N   UNL     1      44.677   4.461   8.768  0.00  0.00    +0.000 N 
ATOM      9  H   UNL     1      44.091   4.943   8.095  0.00  0.00    +0.000 HD
BRANCH   8  15
ATOM     10  C   UNL     1      47.725   2.551   5.332  0.00  0.00    +0.000 C 
ATOM     11  C   UNL     1      46.907   2.424   6.576  0.00  0.00    +0.000 A 
ATOM     12  C   UNL     1      46.830   1.230   7.280  0.00  0.00    +0.000 A 
ATOM     13  N   UNL     1      46.107   1.071   8.407  0.00  0.00    +0.000 NA
ATOM     14  C   UNL     1      45.434   2.163   8.850  0.00  0.00    +0.000 A 
ATOM     15  C   UNL     1      45.457   3.430   8.259  0.00  0.00    +0.000 A 
ATOM     16  C   UNL     1      46.196   3.523   7.078  0.00  0.00    +0.000 A 
ENDBRANCH   8  15
ENDBRANCH   7   8
ENDBRANCH   1   7
BRANCH   4  17
ATOM     17  C   UNL     1      46.358   8.703  13.424  0.00  0.00    +0.000 C 
BRANCH  17  18
ATOM     18  N   UNL     1      47.664   9.217  13.009  0.00  0.00    +0.000 N 
ATOM     19  C   UNL     1      47.687  10.068  11.828  0.00  0.00    +0.000 C 
ATOM     20  C   UNL     1      48.783   8.846  13.770  0.00  0.00    +0.000 C 
ATOM     21  O   UNL     1      48.665   8.106  14.745  0.00  0.00    +0.000 OA
BRANCH  20  22
ATOM     22  C   UNL     1      50.104   9.398  13.436  0.00  0.00    +0.000 A 
ATOM     23  C   UNL     1      50.726  10.420  14.137  0.00  0.00    +0.000 A 
ATOM     24  S   UNL     1      52.289  10.792  13.561  0.00  0.00    +0.000 S 
ATOM     25  C   UNL     1      52.238   9.517  12.436  0.00  0.00    +0.000 A 
ATOM     26  N   UNL     1      53.317   9.223  11.663  0.00  0.00    +0.000 NA
ATOM     27  C   UNL     1      53.152   8.196  10.896  0.00  0.00    +0.000 A 
ATOM     28  N   UNL     1      51.998   7.459  10.813  0.00  0.00    +0.000 N 
ATOM     29  C   UNL     1      50.844   7.788  11.494  0.00  0.00    +0.000 A 
ATOM     30  O   UNL     1      49.785   7.227  11.246  0.00  0.00    +0.000 OA
ATOM     31  C   UNL     1      51.014   8.872  12.445  0.00  0.00    +0.000 A 
ATOM     32  H   UNL     1      51.915   6.704  10.150  0.00  0.00    +0.000 HD
ENDBRANCH  20  22
ENDBRANCH  17  18
ENDBRANCH   4  17
TORSDOF 6
ENDMDL
MODEL 5
REMARK VINA RESULT:    -7.371      1.750      2.401
REMARK INTER + INTRA:         -10.399
REMARK INTER:                  -9.346
REMARK INTRA:                  -1.054
REMARK UNBOUND:                -0.442
REMARK  Name = 
REMARK  8 active torsions:
REMARK  status: ('A' for Active; 'I' for Inactive)
REMARK    1  A    between atoms: C_1  and  C_2
REMARK    2  A    between atoms: C_6  and  N_7
REMARK    3  A    between atoms: N_7  and  C_8
REMARK    4  A    between atoms: C_8  and  C_9
REMARK    5  A    between atoms: C_12  and  C_13
REMARK    6  A    between atoms: C_13  and  N_14
REMARK    7  A    between atoms: N_14  and  C_15
REMARK    8  A    between atoms: C_16  and  C_18
REMARK                            x       y       z     vdW  Elec       q    Type
REMARK                         _______ _______ _______ _____ _____    ______ ____
ROOT
ATOM      1  C   UNL     1      45.676   6.672  12.183  0.00  0.00    +0.000 A 
ATOM      2  C   UNL     1      45.422   8.004  12.505  0.00  0.00    +0.000 A 
ATOM      3  C   UNL     1      46.412   8.745  13.148  0.00  0.00    +0.000 A 
ATOM      4  C   UNL     1      47.648   8.161  13.435  0.00  0.00    +0.000 A 
ATOM      5  C   UNL     1      47.810   6.826  13.084  0.00  0.00    +0.000 A 
ATOM      6  N   UNL     1      46.854   6.074  12.485  0.00  0.00    +0.000 NA
ENDROOT
BRANCH   1   7
ATOM      7  C   UNL     1      44.632   5.846  11.451  0.00  0.00    +0.000 C 
BRANCH   7   8
ATOM      8  N   UNL     1      44.933   5.737  10.028  0.00  0.00    +0.000 N 
ATOM      9  H   UNL     1      44.474   6.417   9.431  0.00  0.00    +0.000 HD
BRANCH   8  15
ATOM     10  C   UNL     1      46.749   3.039   6.264  0.00  0.00    +0.000 C 
ATOM     11  C   UNL     1      46.071   3.150   7.591  0.00  0.00    +0.000 A 
ATOM     12  C   UNL     1      45.653   2.028   8.293  0.00  0.00    +0.000 A 
ATOM     13  N   UNL     1      45.039   2.081   9.493  0.00  0.00    +0.000 NA
ATOM     14  C   UNL     1      44.841   3.318  10.014  0.00  0.00    +0.000 A 
ATOM     15  C   UNL     1      45.246   4.523   9.430  0.00  0.00    +0.000 A 
ATOM     16  C   UNL     1      45.845   4.405   8.174  0.00  0.00    +0.000 A 
ENDBRANCH   8  15
ENDBRANCH   7   8
ENDBRANCH   1   7
BRANCH   4  17
ATOM     17  C   UNL     1      48.785   8.942  14.042  0.00  0.00    +0.000 C 
BRANCH  17  18
ATOM     18  N   UNL     1      49.032   8.566  15.435  0.00  0.00    +0.000 N 
ATOM     19  C   UNL     1      48.076   9.047  16.422  0.00  0.00    +0.000 C 
ATOM     20  C   UNL     1      50.164   7.783  15.709  0.00  0.00    +0.000 C 
ATOM     21  O   UNL     1      50.925   7.439  14.807  0.00  0.00    +0.000 OA
BRANCH  20  22
ATOM     22  C   UNL     1      50.411   7.318  17.082  0.00  0.00    +0.000 A 
ATOM     23  C   UNL     1      51.201   7.985  18.004  0.00  0.00    +0.000 A 
ATOM     24  S   UNL     1      51.235   7.242  19.541  0.00  0.00    +0.000 S 
ATOM     25  C   UNL     1      50.095   6.074  19.061  0.00  0.00    +0.000 A 
ATOM     26  N   UNL     1      49.611   5.164  19.947  0.00  0.00    +0.000 NA
ATOM     27  C   UNL     1      48.712   4.376  19.457  0.00  0.00    +0.000 A 
ATOM     28  N   UNL     1      48.277   4.399  18.156  0.00  0.00    +0.000 N 
ATOM     29  C   UNL     1      48.819   5.229  17.196  0.00  0.00    +0.000 A 
ATOM     30  O   UNL     1      48.545   5.085  16.012  0.00  0.00    +0.000 OA
ATOM     31  C   UNL     1      49.759   6.201  17.725  0.00  0.00    +0.000 A 
ATOM     32  H   UNL     1      47.614   3.716  17.822  0.00  0.00    +0.000 HD
ENDBRANCH  20  22
ENDBRANCH  17  18
ENDBRANCH   4  17
TORSDOF 6
ENDMDL
MODEL 6
REMARK VINA RESULT:    -6.946      2.824      4.965
REMARK INTER + INTRA:          -9.825
REMARK INTER:                  -8.869
REMARK INTRA:                  -0.956
REMARK UNBOUND:                -0.442
REMARK  Name = 
REMARK  8 active torsions:
REMARK  status: ('A' for Active; 'I' for Inactive)
REMARK    1  A    between atoms: C_1  and  C_2
REMARK    2  A    between atoms: C_6  and  N_7
REMARK    3  A    between atoms: N_7  and  C_8
REMARK    4  A    between atoms: C_8  and  C_9
REMARK    5  A    between atoms: C_12  and  C_13
REMARK    6  A    between atoms: C_13  and  N_14
REMARK    7  A    between atoms: N_14  and  C_15
REMARK    8  A    between atoms: C_16  and  C_18
REMARK                            x       y       z     vdW  Elec       q    Type
REMARK                         _______ _______ _______ _____ _____    ______ ____
ROOT
ATOM      1  C   UNL     1      47.921   6.866  13.756  0.00  0.00    +0.000 A 
ATOM      2  C   UNL     1      48.306   8.127  14.207  0.00  0.00    +0.000 A 
ATOM      3  C   UNL     1      48.838   8.253  15.490  0.00  0.00    +0.000 A 
ATOM      4  C   UNL     1      49.007   7.122  16.291  0.00  0.00    +0.000 A 
ATOM      5  C   UNL     1      48.590   5.906  15.761  0.00  0.00    +0.000 A 
ATOM      6  N   UNL     1      48.042   5.760  14.531  0.00  0.00    +0.000 NA
ENDROOT
BRANCH   1   7
ATOM      7  C   UNL     1      47.369   6.688  12.352  0.00  0.00    +0.000 C 
BRANCH   7   8
ATOM      8  N   UNL     1      45.918   6.834  12.321  0.00  0.00    +0.000 N 
ATOM      9  H   UNL     1      45.539   7.565  12.915  0.00  0.00    +0.000 HD
BRANCH   8  15
ATOM     10  C   UNL     1      44.412   2.988   9.549  0.00  0.00    +0.000 C 
ATOM     11  C   UNL     1      44.256   3.900  10.723  0.00  0.00    +0.000 A 
ATOM     12  C   UNL     1      43.205   3.763  11.619  0.00  0.00    +0.000 A 
ATOM     13  N   UNL     1      43.027   4.561  12.691  0.00  0.00    +0.000 NA
ATOM     14  C   UNL     1      43.949   5.539  12.875  0.00  0.00    +0.000 A 
ATOM     15  C   UNL     1      45.073   5.760  12.072  0.00  0.00    +0.000 A 
ATOM     16  C   UNL     1      45.184   4.924  10.959  0.00  0.00    +0.000 A 
ENDBRANCH   8  15
ENDBRANCH   7   8
ENDBRANCH   1   7
BRANCH   4  17
ATOM     17  C   UNL     1      49.665   7.188  17.646  0.00  0.00    +0.000 C 
BRANCH  17  18
ATOM     18  N   UNL     1      50.820   6.293  17.743  0.00  0.00    +0.000 N 
ATOM     19  C   UNL     1      51.942   6.575  16.860  0.00  0.00    +0.000 C 
ATOM     20  C   UNL     1      50.753   5.240  18.668  0.00  0.00    +0.000 C 
ATOM     21  O   UNL     1      49.752   5.072  19.361  0.00  0.00    +0.000 OA
BRANCH  20  22
ATOM     22  C   UNL     1      51.918   4.363  18.855  0.00  0.00    +0.000 A 
ATOM     23  C   UNL     1      52.971   4.632  19.714  0.00  0.00    +0.000 A 
ATOM     24  S   UNL     1      54.140   3.388  19.775  0.00  0.00    +0.000 S 
ATOM     25  C   UNL     1      53.215   2.394  18.751  0.00  0.00    +0.000 A 
ATOM     26  N   UNL     1      53.612   1.127  18.460  0.00  0.00    +0.000 NA
ATOM     27  C   UNL     1      52.784   0.472  17.716  0.00  0.00    +0.000 A 
ATOM     28  N   UNL     1      51.614   0.980  17.214  0.00  0.00    +0.000 N 
ATOM     29  C   UNL     1      51.226   2.292  17.389  0.00  0.00    +0.000 A 
ATOM     30  O   UNL     1      50.281   2.758  16.767  0.00  0.00    +0.000 OA
ATOM     31  C   UNL     1      52.074   3.036  18.304  0.00  0.00    +0.000 A 
ATOM     32  H   UNL     1      51.040   0.433  16.589  0.00  0.00    +0.000 HD
ENDBRANCH  20  22
ENDBRANCH  17  18
ENDBRANCH   4  17
TORSDOF 6
ENDMDL
MODEL 7
REMARK VINA RESULT:    -6.289      3.164      8.467
REMARK INTER + INTRA:          -8.937
REMARK INTER:                  -8.252
REMARK INTRA:                  -0.685
REMARK UNBOUND:                -0.442
REMARK  Name = 
REMARK  8 active torsions:
REMARK  status: ('A' for Active; 'I' for Inactive)
REMARK    1  A    between atoms: C_1  and  C_2
REMARK    2  A    between atoms: C_6  and  N_7
REMARK    3  A    between atoms: N_7  and  C_8
REMARK    4  A    between atoms: C_8  and  C_9
REMARK    5  A    between atoms: C_12  and  C_13
REMARK    6  A    between atoms: C_13  and  N_14
REMARK    7  A    between atoms: N_14  and  C_15
REMARK    8  A    between atoms: C_16  and  C_18
REMARK                            x       y       z     vdW  Elec       q    Type
REMARK                         _______ _______ _______ _____ _____    ______ ____
ROOT
ATOM      1  C   UNL     1      50.055   6.745  16.722  0.00  0.00    +0.000 A 
ATOM      2  C   UNL     1      50.695   7.264  15.598  0.00  0.00    +0.000 A 
ATOM      3  C   UNL     1      49.928   7.633  14.493  0.00  0.00    +0.000 A 
ATOM      4  C   UNL     1      48.537   7.507  14.534  0.00  0.00    +0.000 A 
ATOM      5  C   UNL     1      47.987   6.974  15.693  0.00  0.00    +0.000 A 
ATOM      6  N   UNL     1      48.711   6.580  16.769  0.00  0.00    +0.000 NA
ENDROOT
BRANCH   1   7
ATOM      7  C   UNL     1      50.857   6.366  17.955  0.00  0.00    +0.000 C 
BRANCH   7   8
ATOM      8  N   UNL     1      50.342   5.152  18.579  0.00  0.00    +0.000 N 
ATOM      9  H   UNL     1      50.123   5.227  19.567  0.00  0.00    +0.000 HD
BRANCH   8  15
ATOM     10  C   UNL     1      53.668   1.514  17.910  0.00  0.00    +0.000 C 
ATOM     11  C   UNL     1      52.301   2.092  17.730  0.00  0.00    +0.000 A 
ATOM     12  C   UNL     1      51.305   1.409  17.046  0.00  0.00    +0.000 A 
ATOM     13  N   UNL     1      50.059   1.891  16.862  0.00  0.00    +0.000 NA
ATOM     14  C   UNL     1      49.800   3.112  17.394  0.00  0.00    +0.000 A 
ATOM     15  C   UNL     1      50.699   3.885  18.136  0.00  0.00    +0.000 A 
ATOM     16  C   UNL     1      51.982   3.348  18.263  0.00  0.00    +0.000 A 
ENDBRANCH   8  15
ENDBRANCH   7   8
ENDBRANCH   1   7
BRANCH   4  17
ATOM     17  C   UNL     1      47.655   7.978  13.406  0.00  0.00    +0.000 C 
BRANCH  17  18
ATOM     18  N   UNL     1      47.196   6.871  12.565  0.00  0.00    +0.000 N 
ATOM     19  C   UNL     1      47.954   5.631  12.644  0.00  0.00    +0.000 C 
ATOM     20  C   UNL     1      46.075   7.093  11.750  0.00  0.00    +0.000 C 
ATOM     21  O   UNL     1      45.509   8.184  11.739  0.00  0.00    +0.000 OA
BRANCH  20  22
ATOM     22  C   UNL     1      45.532   5.988  10.945  0.00  0.00    +0.000 A 
ATOM     23  C   UNL     1      45.863   5.747   9.622  0.00  0.00    +0.000 A 
ATOM     24  S   UNL     1      45.134   4.345   8.977  0.00  0.00    +0.000 S 
ATOM     25  C   UNL     1      44.450   3.943  10.482  0.00  0.00    +0.000 A 
ATOM     26  N   UNL     1      43.755   2.787  10.649  0.00  0.00    +0.000 NA
ATOM     27  C   UNL     1      43.342   2.588  11.857  0.00  0.00    +0.000 A 
ATOM     28  N   UNL     1      43.537   3.455  12.902  0.00  0.00    +0.000 N 
ATOM     29  C   UNL     1      44.137   4.689  12.756  0.00  0.00    +0.000 A 
ATOM     30  O   UNL     1      44.115   5.510  13.662  0.00  0.00    +0.000 OA
ATOM     31  C   UNL     1      44.707   4.910  11.438  0.00  0.00    +0.000 A 
ATOM     32  H   UNL     1      43.136   3.267  13.809  0.00  0.00    +0.000 HD
ENDBRANCH  20  22
ENDBRANCH  17  18
ENDBRANCH   4  17
TORSDOF 6
ENDMDL
MODEL 8
REMARK VINA RESULT:    -6.190      3.596      8.152
REMARK INTER + INTRA:          -8.803
REMARK INTER:                  -7.329
REMARK INTRA:                  -1.474
REMARK UNBOUND:                -0.442
REMARK  Name = 
REMARK  8 active torsions:
REMARK  status: ('A' for Active; 'I' for Inactive)
REMARK    1  A    between atoms: C_1  and  C_2
REMARK    2  A    between atoms: C_6  and  N_7
REMARK    3  A    between atoms: N_7  and  C_8
REMARK    4  A    between atoms: C_8  and  C_9
REMARK    5  A    between atoms: C_12  and  C_13
REMARK    6  A    between atoms: C_13  and  N_14
REMARK    7  A    between atoms: N_14  and  C_15
REMARK    8  A    between atoms: C_16  and  C_18
REMARK                            x       y       z     vdW  Elec       q    Type
REMARK                         _______ _______ _______ _____ _____    ______ ____
ROOT
ATOM      1  C   UNL     1      51.103   7.975  16.892  0.00  0.00    +0.000 A 
ATOM      2  C   UNL     1      51.361   7.275  15.715  0.00  0.00    +0.000 A 
ATOM      3  C   UNL     1      50.737   7.682  14.536  0.00  0.00    +0.000 A 
ATOM      4  C   UNL     1      49.891   8.794  14.540  0.00  0.00    +0.000 A 
ATOM      5  C   UNL     1      49.687   9.426  15.761  0.00  0.00    +0.000 A 
ATOM      6  N   UNL     1      50.257   9.033  16.926  0.00  0.00    +0.000 NA
ENDROOT
BRANCH   1   7
ATOM      7  C   UNL     1      51.791   7.580  18.187  0.00  0.00    +0.000 C 
BRANCH   7   8
ATOM      8  N   UNL     1      50.859   6.969  19.129  0.00  0.00    +0.000 N 
ATOM      9  H   UNL     1      51.149   6.980  20.101  0.00  0.00    +0.000 HD
BRANCH   8  15
ATOM     10  C   UNL     1      50.052   2.404  17.325  0.00  0.00    +0.000 C 
ATOM     11  C   UNL     1      49.558   3.721  17.832  0.00  0.00    +0.000 A 
ATOM     12  C   UNL     1      48.203   4.010  17.914  0.00  0.00    +0.000 A 
ATOM     13  N   UNL     1      47.714   5.183  18.366  0.00  0.00    +0.000 NA
ATOM     14  C   UNL     1      48.628   6.106  18.758  0.00  0.00    +0.000 A 
ATOM     15  C   UNL     1      50.015   5.928  18.763  0.00  0.00    +0.000 A 
ATOM     16  C   UNL     1      50.461   4.707  18.252  0.00  0.00    +0.000 A 
ENDBRANCH   8  15
ENDBRANCH   7   8
ENDBRANCH   1   7
BRANCH   4  17
ATOM     17  C   UNL     1      49.268   9.333  13.278  0.00  0.00    +0.000 C 
BRANCH  17  18
ATOM     18  N   UNL     1      48.340   8.379  12.668  0.00  0.00    +0.000 N 
ATOM     19  C   UNL     1      48.827   7.642  11.511  0.00  0.00    +0.000 C 
ATOM     20  C   UNL     1      47.064   8.254  13.238  0.00  0.00    +0.000 C 
ATOM     21  O   UNL     1      46.738   8.935  14.209  0.00  0.00    +0.000 OA
BRANCH  20  22
ATOM     22  C   UNL     1      46.126   7.255  12.707  0.00  0.00    +0.000 A 
ATOM     23  C   UNL     1      45.154   7.520  11.756  0.00  0.00    +0.000 A 
ATOM     24  S   UNL     1      44.269   6.140  11.277  0.00  0.00    +0.000 S 
ATOM     25  C   UNL     1      45.238   5.120  12.233  0.00  0.00    +0.000 A 
ATOM     26  N   UNL     1      45.065   3.772  12.215  0.00  0.00    +0.000 NA
ATOM     27  C   UNL     1      45.908   3.121  12.947  0.00  0.00    +0.000 A 
ATOM     28  N   UNL     1      46.885   3.700  13.715  0.00  0.00    +0.000 N 
ATOM     29  C   UNL     1      47.026   5.066  13.852  0.00  0.00    +0.000 A 
ATOM     30  O   UNL     1      47.777   5.540  14.694  0.00  0.00    +0.000 OA
ATOM     31  C   UNL     1      46.167   5.834  12.969  0.00  0.00    +0.000 A 
ATOM     32  H   UNL     1      47.473   3.137  14.311  0.00  0.00    +0.000 HD
ENDBRANCH  20  22
ENDBRANCH  17  18
ENDBRANCH   4  17
TORSDOF 6
ENDMDL
MODEL 9
REMARK VINA RESULT:    -5.830      2.291      2.717
REMARK INTER + INTRA:          -8.317
REMARK INTER:                  -9.059
REMARK INTRA:                   0.742
REMARK UNBOUND:                -0.442
REMARK  Name = 
REMARK  8 active torsions:
REMARK  status: ('A' for Active; 'I' for Inactive)
REMARK    1  A    between atoms: C_1  and  C_2
REMARK    2  A    between atoms: C_6  and  N_7
REMARK    3  A    between atoms: N_7  and  C_8
REMARK    4  A    between atoms: C_8  and  C_9
REMARK    5  A    between atoms: C_12  and  C_13
REMARK    6  A    between atoms: C_13  and  N_14
REMARK    7  A    between atoms: N_14  and  C_15
REMARK    8  A    between atoms: C_16  and  C_18
REMARK                            x       y       z     vdW  Elec       q    Type
REMARK                         _______ _______ _______ _____ _____    ______ ____
ROOT
ATOM      1  C   UNL     1      44.941   4.140  10.955  0.00  0.00    +0.000 A 
ATOM      2  C   UNL     1      45.321   5.431  10.594  0.00  0.00    +0.000 A 
ATOM      3  C   UNL     1      46.231   6.117  11.397  0.00  0.00    +0.000 A 
ATOM      4  C   UNL     1      46.772   5.499  12.527  0.00  0.00    +0.000 A 
ATOM      5  C   UNL     1      46.331   4.212  12.813  0.00  0.00    +0.000 A 
ATOM      6  N   UNL     1      45.425   3.534  12.067  0.00  0.00    +0.000 NA
ENDROOT
BRANCH   1   7
ATOM      7  C   UNL     1      43.978   3.351  10.084  0.00  0.00    +0.000 C 
BRANCH   7   8
ATOM      8  N   UNL     1      44.544   2.068   9.680  0.00  0.00    +0.000 N 
ATOM      9  H   UNL     1      44.623   1.374  10.416  0.00  0.00    +0.000 HD
BRANCH   8  15
ATOM     10  C   UNL     1      46.940   3.910   5.729  0.00  0.00    +0.000 C 
ATOM     11  C   UNL     1      46.628   2.792   6.671  0.00  0.00    +0.000 A 
ATOM     12  C   UNL     1      47.208   1.538   6.533  0.00  0.00    +0.000 A 
ATOM     13  N   UNL     1      46.957   0.502   7.359  0.00  0.00    +0.000 NA
ATOM     14  C   UNL     1      46.087   0.738   8.374  0.00  0.00    +0.000 A 
ATOM     15  C   UNL     1      45.466   1.961   8.647  0.00  0.00    +0.000 A 
ATOM     16  C   UNL     1      45.739   2.984   7.737  0.00  0.00    +0.000 A 
ENDBRANCH   8  15
ENDBRANCH   7   8
ENDBRANCH   1   7
BRANCH   4  17
ATOM     17  C   UNL     1      47.830   6.158  13.374  0.00  0.00    +0.000 C 
BRANCH  17  18
ATOM     18  N   UNL     1      47.769   5.722  14.771  0.00  0.00    +0.000 N 
ATOM     19  C   UNL     1      46.623   4.911  15.154  0.00  0.00    +0.000 C 
ATOM     20  C   UNL     1      48.809   6.122  15.625  0.00  0.00    +0.000 C 
ATOM     21  O   UNL     1      49.729   6.824  15.211  0.00  0.00    +0.000 OA
BRANCH  20  22
ATOM     22  C   UNL     1      48.830   5.646  17.015  0.00  0.00    +0.000 A 
ATOM     23  C   UNL     1      49.118   4.344  17.394  0.00  0.00    +0.000 A 
ATOM     24  S   UNL     1      49.144   4.112  19.085  0.00  0.00    +0.000 S 
ATOM     25  C   UNL     1      48.894   5.770  19.371  0.00  0.00    +0.000 A 
ATOM     26  N   UNL     1      48.898   6.270  20.635  0.00  0.00    +0.000 NA
ATOM     27  C   UNL     1      48.752   7.552  20.696  0.00  0.00    +0.000 A 
ATOM     28  N   UNL     1      48.573   8.371  19.611  0.00  0.00    +0.000 N 
ATOM     29  C   UNL     1      48.451   7.897  18.321  0.00  0.00    +0.000 A 
ATOM     30  O   UNL     1      48.098   8.633  17.410  0.00  0.00    +0.000 OA
ATOM     31  C   UNL     1      48.711   6.473  18.194  0.00  0.00    +0.000 A 
ATOM     32  H   UNL     1      48.405   9.359  19.732  0.00  0.00    +0.000 HD
ENDBRANCH  20  22
ENDBRANCH  17  18
ENDBRANCH   4  17
TORSDOF 6
ENDMDL
