MODEL 1
REMARK VINA RESULT:    -8.453      0.000      0.000
REMARK INTER + INTRA:         -13.711
REMARK INTER:                 -12.406
REMARK INTRA:                  -1.304
REMARK UNBOUND:                -1.304
REMARK  Name = 
REMARK  9 active torsions:
REMARK  status: ('A' for Active; 'I' for Inactive)
REMARK    1  A    between atoms: C_1  and  C_2
REMARK    2  A    between atoms: C_2  and  C_3
REMARK    3  A    between atoms: C_2  and  C_14
REMARK    4  A    between atoms: C_3  and  N_4
REMARK    5  A    between atoms: N_4  and  C_5
REMARK    6  A    between atoms: C_8  and  C_9
REMARK    7  A    between atoms: C_18  and  C_19
REMARK    8  A    between atoms: C_22  and  O_23
REMARK    9  A    between atoms: O_23  and  C_24
REMARK                            x       y       z     vdW  Elec       q    Type
REMARK                         _______ _______ _______ _____ _____    ______ ____
ROOT
ATOM      1  C   UNL     1      42.651   5.397  12.339  0.00  0.00    +0.000 C 
ATOM      2  C   UNL     1      43.657   4.287  12.670  0.00  0.00    +0.000 C 
ENDROOT
BRANCH   2   3
ATOM      3  C   UNL     1      45.025   4.892  12.910  0.00  0.00    +0.000 A 
ATOM      4  N   UNL     1      45.547   5.696  11.970  0.00  0.00    +0.000 NA
ATOM      5  C   UNL     1      46.797   6.126  12.155  0.00  0.00    +0.000 A 
ATOM      6  C   UNL     1      47.525   5.845  13.282  0.00  0.00    +0.000 A 
ATOM      7  C   UNL     1      46.896   5.087  14.252  0.00  0.00    +0.000 A 
ATOM      8  N   UNL     1      45.659   4.573  14.059  0.00  0.00    +0.000 NA
BRANCH   7   9
ATOM      9  C   UNL     1      47.519   4.822  15.566  0.00  0.00    +0.000 A 
ATOM     10  C   UNL     1      48.507   5.679  16.090  0.00  0.00    +0.000 A 
ATOM     11  C   UNL     1      49.097   5.450  17.337  0.00  0.00    +0.000 A 
ATOM     12  C   UNL     1      48.689   4.366  18.109  0.00  0.00    +0.000 A 
ATOM     13  C   UNL     1      47.728   3.493  17.602  0.00  0.00    +0.000 A 
ATOM     14  C   UNL     1      47.142   3.722  16.352  0.00  0.00    +0.000 A 
BRANCH  12  15
ATOM     15  O   UNL     1      49.170   4.058  19.349  0.00  0.00    +0.000 OA
BRANCH  15  16
ATOM     16  C   UNL     1      48.649   4.837  20.413  0.00  0.00    +0.000 C 
ATOM     17  F   UNL     1      49.558   5.806  20.687  0.00  0.00    +0.000 F 
ATOM     18  F   UNL     1      47.526   5.465  19.982  0.00  0.00    +0.000 F 
ENDBRANCH  15  16
ENDBRANCH  12  15
ENDBRANCH   7   9
ENDBRANCH   2   3
BRANCH   2  19
ATOM     19  C   UNL     1      43.642   3.248  11.529  0.00  0.00    +0.000 C 
BRANCH  19  20
ATOM     20  N   UNL     1      43.629   3.856  10.193  0.00  0.00    +0.000 N 
ATOM     21  H   UNL     1      43.398   4.846  10.180  0.00  0.00    +0.000 HD
BRANCH  20  22
ATOM     22  C   UNL     1      44.606   3.486   9.269  0.00  0.00    +0.000 A 
ATOM     23  C   UNL     1      45.062   2.166   9.245  0.00  0.00    +0.000 A 
ATOM     24  C   UNL     1      46.034   1.767   8.326  0.00  0.00    +0.000 A 
ATOM     25  C   UNL     1      46.557   2.723   7.470  0.00  0.00    +0.000 A 
ATOM     26  N   UNL     1      46.208   4.035   7.499  0.00  0.00    +0.000 NA
ATOM     27  C   UNL     1      45.263   4.375   8.411  0.00  0.00    +0.000 A 
BRANCH  25  28
ATOM     28  C   UNL     1      47.551   2.328   6.422  0.00  0.00    +0.000 C 
ATOM     29  N   UNL     1      47.556   3.114   5.301  0.00  0.00    +0.000 N 
ATOM     30  O   UNL     1      48.297   1.366   6.543  0.00  0.00    +0.000 OA
ATOM     31  H   UNL     1      46.908   3.892   5.239  0.00  0.00    +0.000 HD
ATOM     32  H   UNL     1      48.177   2.895   4.537  0.00  0.00    +0.000 HD
ENDBRANCH  25  28
ENDBRANCH  20  22
ENDBRANCH  19  20
ENDBRANCH   2  19
TORSDOF 8
ENDMDL
MODEL 2
REMARK VINA RESULT:    -8.092      1.612      2.054
REMARK INTER + INTRA:         -13.181
REMARK INTER:                 -11.861
REMARK INTRA:                  -1.320
REMARK UNBOUND:                -1.304
REMARK  Name = 
REMARK  9 active torsions:
REMARK  status: ('A' for Active; 'I' for Inactive)
REMARK    1  A    between atoms: C_1  and  C_2
REMARK    2  A    between atoms: C_2  and  C_3
REMARK    3  A    between atoms: C_2  and  C_14
REMARK    4  A    between atoms: C_3  and  N_4
REMARK    5  A    between atoms: N_4  and  C_5
REMARK    6  A    between atoms: C_8  and  C_9
REMARK    7  A    between atoms: C_18  and  C_19
REMARK    8  A    between atoms: C_22  and  O_23
REMARK    9  A    between atoms: O_23  and  C_24
REMARK                            x       y       z     vdW  Elec       q    Type
REMARK                         _______ _______ _______ _____ _____    ______ ____
ROOT
ATOM      1  C   UNL     1      42.319   6.307  11.968  0.00  0.00    +0.000 C 
ATOM      2  C   UNL     1      43.277   5.157  12.306  0.00  0.00    +0.000 C 
ENDROOT
BRANCH   2   3
ATOM      3  C   UNL     1      44.679   5.697  12.490  0.00  0.00    +0.000 A 
ATOM      4  N   UNL     1      45.135   6.615  11.622  0.00  0.00    +0.000 NA
ATOM      5  C   UNL     1      46.410   6.993  11.740  0.00  0.00    +0.000 A 
ATOM      6  C   UNL     1      47.233   6.545  12.741  0.00  0.00    +0.000 A 
ATOM      7  C   UNL     1      46.675   5.670  13.656  0.00  0.00    +0.000 A 
ATOM      8  N   UNL     1      45.410   5.211  13.517  0.00  0.00    +0.000 NA
BRANCH   7   9
ATOM      9  C   UNL     1      47.411   5.215  14.853  0.00  0.00    +0.000 A 
ATOM     10  C   UNL     1      47.228   3.919  15.374  0.00  0.00    +0.000 A 
ATOM     11  C   UNL     1      47.925   3.469  16.499  0.00  0.00    +0.000 A 
ATOM     12  C   UNL     1      48.854   4.301  17.118  0.00  0.00    +0.000 A 
ATOM     13  C   UNL     1      49.038   5.595  16.633  0.00  0.00    +0.000 A 
ATOM     14  C   UNL     1      48.335   6.045  15.510  0.00  0.00    +0.000 A 
BRANCH  12  15
ATOM     15  O   UNL     1      49.613   3.964  18.202  0.00  0.00    +0.000 OA
BRANCH  15  16
ATOM     16  C   UNL     1      50.965   3.644  17.920  0.00  0.00    +0.000 C 
ATOM     17  F   UNL     1      51.665   3.788  19.073  0.00  0.00    +0.000 F 
ATOM     18  F   UNL     1      51.040   2.332  17.579  0.00  0.00    +0.000 F 
ENDBRANCH  15  16
ENDBRANCH  12  15
ENDBRANCH   7   9
ENDBRANCH   2   3
BRANCH   2  19
ATOM     19  C   UNL     1      43.177   4.087  11.198  0.00  0.00    +0.000 C 
BRANCH  19  20
ATOM     20  N   UNL     1      43.699   4.544   9.905  0.00  0.00    +0.000 N 
ATOM     21  H   UNL     1      43.921   5.534   9.863  0.00  0.00    +0.000 HD
BRANCH  20  22
ATOM     22  C   UNL     1      44.592   3.730   9.208  0.00  0.00    +0.000 A 
ATOM     23  C   UNL     1      45.317   4.265   8.140  0.00  0.00    +0.000 A 
ATOM     24  C   UNL     1      46.223   3.475   7.429  0.00  0.00    +0.000 A 
ATOM     25  C   UNL     1      46.351   2.142   7.788  0.00  0.00    +0.000 A 
ATOM     26  N   UNL     1      45.618   1.549   8.766  0.00  0.00    +0.000 NA
ATOM     27  C   UNL     1      44.749   2.356   9.425  0.00  0.00    +0.000 A 
BRANCH  25  28
ATOM     28  C   UNL     1      47.358   1.274   7.101  0.00  0.00    +0.000 C 
ATOM     29  N   UNL     1      48.440   1.936   6.585  0.00  0.00    +0.000 N 
ATOM     30  O   UNL     1      47.225   0.062   6.989  0.00  0.00    +0.000 OA
ATOM     31  H   UNL     1      48.499   2.943   6.688  0.00  0.00    +0.000 HD
ATOM     32  H   UNL     1      49.148   1.424   6.081  0.00  0.00    +0.000 HD
ENDBRANCH  25  28
ENDBRANCH  20  22
ENDBRANCH  19  20
ENDBRANCH   2  19
TORSDOF 8
ENDMDL
MODEL 3
REMARK VINA RESULT:    -7.772      4.199      5.185
REMARK INTER + INTRA:         -12.712
REMARK INTER:                 -11.495
REMARK INTRA:                  -1.217
REMARK UNBOUND:                -1.304
REMARK  Name = 
REMARK  9 active torsions:
REMARK  status: ('A' for Active; 'I' for Inactive)
REMARK    1  A    between atoms: C_1  and  C_2
REMARK    2  A    between atoms: C_2  and  C_3
REMARK    3  A    between atoms: C_2  and  C_14
REMARK    4  A    between atoms: C_3  and  N_4
REMARK    5  A    between atoms: N_4  and  C_5
REMARK    6  A    between atoms: C_8  and  C_9
REMARK    7  A    between atoms: C_18  and  C_19
REMARK    8  A    between atoms: C_22  and  O_23
REMARK    9  A    between atoms: O_23  and  C_24
REMARK                            x       y       z     vdW  Elec       q    Type
REMARK                         _______ _______ _______ _____ _____    ______ ____
ROOT
ATOM      1  C   UNL     1      44.023   7.158  11.404  0.00  0.00    +0.000 C 
ATOM      2  C   UNL     1      43.895   5.850  12.196  0.00  0.00    +0.000 C 
ENDROOT
BRANCH   2   3
ATOM      3  C   UNL     1      45.207   5.538  12.885  0.00  0.00    +0.000 A 
ATOM      4  N   UNL     1      45.279   4.451  13.669  0.00  0.00    +0.000 NA
ATOM      5  C   UNL     1      46.411   4.260  14.351  0.00  0.00    +0.000 A 
ATOM      6  C   UNL     1      47.507   5.074  14.225  0.00  0.00    +0.000 A 
ATOM      7  C   UNL     1      47.397   6.125  13.333  0.00  0.00    +0.000 A 
ATOM      8  N   UNL     1      46.237   6.388  12.686  0.00  0.00    +0.000 NA
BRANCH   7   9
ATOM      9  C   UNL     1      48.544   6.998  13.006  0.00  0.00    +0.000 A 
ATOM     10  C   UNL     1      49.489   7.359  13.986  0.00  0.00    +0.000 A 
ATOM     11  C   UNL     1      50.586   8.173  13.690  0.00  0.00    +0.000 A 
ATOM     12  C   UNL     1      50.782   8.627  12.389  0.00  0.00    +0.000 A 
ATOM     13  C   UNL     1      49.849   8.299  11.406  0.00  0.00    +0.000 A 
ATOM     14  C   UNL     1      48.749   7.487  11.706  0.00  0.00    +0.000 A 
BRANCH  12  15
ATOM     15  O   UNL     1      51.828   9.401  11.974  0.00  0.00    +0.000 OA
BRANCH  15  16
ATOM     16  C   UNL     1      51.978   9.518  10.570  0.00  0.00    +0.000 C 
ATOM     17  F   UNL     1      52.342  10.798  10.306  0.00  0.00    +0.000 F 
ATOM     18  F   UNL     1      53.010   8.729  10.176  0.00  0.00    +0.000 F 
ENDBRANCH  15  16
ENDBRANCH  12  15
ENDBRANCH   7   9
ENDBRANCH   2   3
BRANCH   2  19
ATOM     19  C   UNL     1      43.429   4.734  11.238  0.00  0.00    +0.000 C 
BRANCH  19  20
ATOM     20  N   UNL     1      43.861   4.945   9.851  0.00  0.00    +0.000 N 
ATOM     21  H   UNL     1      44.130   5.900   9.632  0.00  0.00    +0.000 HD
BRANCH  20  22
ATOM     22  C   UNL     1      44.646   3.974   9.230  0.00  0.00    +0.000 A 
ATOM     23  C   UNL     1      45.542   4.355   8.228  0.00  0.00    +0.000 A 
ATOM     24  C   UNL     1      46.345   3.406   7.594  0.00  0.00    +0.000 A 
ATOM     25  C   UNL     1      46.199   2.076   7.959  0.00  0.00    +0.000 A 
ATOM     26  N   UNL     1      45.292   1.638   8.870  0.00  0.00    +0.000 NA
ATOM     27  C   UNL     1      44.532   2.598   9.456  0.00  0.00    +0.000 A 
BRANCH  25  28
ATOM     28  C   UNL     1      47.085   1.031   7.357  0.00  0.00    +0.000 C 
ATOM     29  N   UNL     1      46.815  -0.254   7.745  0.00  0.00    +0.000 N 
ATOM     30  O   UNL     1      47.998   1.297   6.585  0.00  0.00    +0.000 OA
ATOM     31  H   UNL     1      46.059  -0.425   8.399  0.00  0.00    +0.000 HD
ATOM     32  H   UNL     1      47.388  -1.012   7.406  0.00  0.00    +0.000 HD
ENDBRANCH  25  28
ENDBRANCH  20  22
ENDBRANCH  19  20
ENDBRANCH   2  19
TORSDOF 8
ENDMDL
MODEL 4
REMARK VINA RESULT:    -7.165      4.600      9.017
REMARK INTER + INTRA:         -11.820
REMARK INTER:                 -10.240
REMARK INTRA:                  -1.579
REMARK UNBOUND:                -1.304
REMARK  Name = 
REMARK  9 active torsions:
REMARK  status: ('A' for Active; 'I' for Inactive)
REMARK    1  A    between atoms: C_1  and  C_2
REMARK    2  A    between atoms: C_2  and  C_3
REMARK    3  A    between atoms: C_2  and  C_14
REMARK    4  A    between atoms: C_3  and  N_4
REMARK    5  A    between atoms: N_4  and  C_5
REMARK    6  A    between atoms: C_8  and  C_9
REMARK    7  A    between atoms: C_18  and  C_19
REMARK    8  A    between atoms: C_22  and  O_23
REMARK    9  A    between atoms: O_23  and  C_24
REMARK                            x       y       z     vdW  Elec       q    Type
REMARK                         _______ _______ _______ _____ _____    ______ ____
ROOT
ATOM      1  C   UNL     1      44.787   9.411  12.666  0.00  0.00    +0.000 C 
ATOM      2  C   UNL     1      45.790   8.336  12.226  0.00  0.00    +0.000 C 
ENDROOT
BRANCH   2   3
ATOM      3  C   UNL     1      45.077   7.011  12.057  0.00  0.00    +0.000 A 
ATOM      4  N   UNL     1      44.066   6.714  12.889  0.00  0.00    +0.000 NA
ATOM      5  C   UNL     1      43.528   5.496  12.790  0.00  0.00    +0.000 A 
ATOM      6  C   UNL     1      43.910   4.584  11.841  0.00  0.00    +0.000 A 
ATOM      7  C   UNL     1      44.894   4.987  10.957  0.00  0.00    +0.000 A 
ATOM      8  N   UNL     1      45.511   6.185  11.081  0.00  0.00    +0.000 NA
BRANCH   7   9
ATOM      9  C   UNL     1      45.305   4.152   9.809  0.00  0.00    +0.000 A 
ATOM     10  C   UNL     1      45.154   2.752   9.833  0.00  0.00    +0.000 A 
ATOM     11  C   UNL     1      45.526   1.950   8.750  0.00  0.00    +0.000 A 
ATOM     12  C   UNL     1      46.035   2.537   7.595  0.00  0.00    +0.000 A 
ATOM     13  C   UNL     1      46.212   3.918   7.555  0.00  0.00    +0.000 A 
ATOM     14  C   UNL     1      45.843   4.719   8.642  0.00  0.00    +0.000 A 
BRANCH  12  15
ATOM     15  O   UNL     1      46.404   1.862   6.467  0.00  0.00    +0.000 OA
BRANCH  15  16
ATOM     16  C   UNL     1      47.361   2.518   5.652  0.00  0.00    +0.000 C 
ATOM     17  F   UNL     1      48.319   1.609   5.340  0.00  0.00    +0.000 F 
ATOM     18  F   UNL     1      46.767   2.876   4.486  0.00  0.00    +0.000 F 
ENDBRANCH  15  16
ENDBRANCH  12  15
ENDBRANCH   7   9
ENDBRANCH   2   3
BRANCH   2  19
ATOM     19  C   UNL     1      46.941   8.282  13.252  0.00  0.00    +0.000 C 
BRANCH  19  20
ATOM     20  N   UNL     1      47.779   7.085  13.118  0.00  0.00    +0.000 N 
ATOM     21  H   UNL     1      48.652   7.232  12.621  0.00  0.00    +0.000 HD
BRANCH  20  22
ATOM     22  C   UNL     1      47.877   6.201  14.193  0.00  0.00    +0.000 A 
ATOM     23  C   UNL     1      47.089   5.048  14.207  0.00  0.00    +0.000 A 
ATOM     24  C   UNL     1      47.171   4.143  15.267  0.00  0.00    +0.000 A 
ATOM     25  C   UNL     1      48.026   4.441  16.316  0.00  0.00    +0.000 A 
ATOM     26  N   UNL     1      48.758   5.582  16.394  0.00  0.00    +0.000 NA
ATOM     27  C   UNL     1      48.641   6.432  15.342  0.00  0.00    +0.000 A 
BRANCH  25  28
ATOM     28  C   UNL     1      48.200   3.469  17.441  0.00  0.00    +0.000 C 
ATOM     29  N   UNL     1      47.717   3.889  18.652  0.00  0.00    +0.000 N 
ATOM     30  O   UNL     1      48.746   2.382  17.303  0.00  0.00    +0.000 OA
ATOM     31  H   UNL     1      47.287   4.805  18.723  0.00  0.00    +0.000 HD
ATOM     32  H   UNL     1      47.823   3.303  19.466  0.00  0.00    +0.000 HD
ENDBRANCH  25  28
ENDBRANCH  20  22
ENDBRANCH  19  20
ENDBRANCH   2  19
TORSDOF 8
ENDMDL
MODEL 5
REMARK VINA RESULT:    -7.149      5.197      9.415
REMARK INTER + INTRA:         -11.796
REMARK INTER:                 -10.622
REMARK INTRA:                  -1.174
REMARK UNBOUND:                -1.304
REMARK  Name = 
REMARK  9 active torsions:
REMARK  status: ('A' for Active; 'I' for Inactive)
REMARK    1  A    between atoms: C_1  and  C_2
REMARK    2  A    between atoms: C_2  and  C_3
REMARK    3  A    between atoms: C_2  and  C_14
REMARK    4  A    between atoms: C_3  and  N_4
REMARK    5  A    between atoms: N_4  and  C_5
REMARK    6  A    between atoms: C_8  and  C_9
REMARK    7  A    between atoms: C_18  and  C_19
REMARK    8  A    between atoms: C_22  and  O_23
REMARK    9  A    between atoms: O_23  and  C_24
REMARK                            x       y       z     vdW  Elec       q    Type
REMARK                         _______ _______ _______ _____ _____    ______ ____
ROOT
ATOM      1  C   UNL     1      47.453   3.032  17.360  0.00  0.00    +0.000 C 
ATOM      2  C   UNL     1      47.921   4.466  17.640  0.00  0.00    +0.000 C 
ENDROOT
BRANCH   2   3
ATOM      3  C   UNL     1      48.006   5.238  16.340  0.00  0.00    +0.000 A 
ATOM      4  N   UNL     1      48.852   6.278  16.264  0.00  0.00    +0.000 NA
ATOM      5  C   UNL     1      48.827   7.009  15.147  0.00  0.00    +0.000 A 
ATOM      6  C   UNL     1      48.042   6.698  14.067  0.00  0.00    +0.000 A 
ATOM      7  C   UNL     1      47.262   5.562  14.176  0.00  0.00    +0.000 A 
ATOM      8  N   UNL     1      47.208   4.846  15.324  0.00  0.00    +0.000 NA
BRANCH   7   9
ATOM      9  C   UNL     1      46.471   5.043  13.041  0.00  0.00    +0.000 A 
ATOM     10  C   UNL     1      45.975   3.724  13.039  0.00  0.00    +0.000 A 
ATOM     11  C   UNL     1      45.215   3.222  11.978  0.00  0.00    +0.000 A 
ATOM     12  C   UNL     1      44.904   4.043  10.898  0.00  0.00    +0.000 A 
ATOM     13  C   UNL     1      45.400   5.345  10.868  0.00  0.00    +0.000 A 
ATOM     14  C   UNL     1      46.165   5.844  11.929  0.00  0.00    +0.000 A 
BRANCH  12  15
ATOM     15  O   UNL     1      44.148   3.675   9.822  0.00  0.00    +0.000 OA
BRANCH  15  16
ATOM     16  C   UNL     1      44.812   2.871   8.861  0.00  0.00    +0.000 C 
ATOM     17  F   UNL     1      44.351   1.604   9.005  0.00  0.00    +0.000 F 
ATOM     18  F   UNL     1      44.443   3.283   7.621  0.00  0.00    +0.000 F 
ENDBRANCH  15  16
ENDBRANCH  12  15
ENDBRANCH   7   9
ENDBRANCH   2   3
BRANCH   2  19
ATOM     19  C   UNL     1      49.260   4.410  18.404  0.00  0.00    +0.000 C 
BRANCH  19  20
ATOM     20  N   UNL     1      50.425   4.284  17.521  0.00  0.00    +0.000 N 
ATOM     21  H   UNL     1      50.920   5.154  17.346  0.00  0.00    +0.000 HD
BRANCH  20  22
ATOM     22  C   UNL     1      51.256   3.171  17.648  0.00  0.00    +0.000 A 
ATOM     23  C   UNL     1      52.593   3.352  18.013  0.00  0.00    +0.000 A 
ATOM     24  C   UNL     1      53.446   2.255  18.154  0.00  0.00    +0.000 A 
ATOM     25  C   UNL     1      52.938   0.993  17.886  0.00  0.00    +0.000 A 
ATOM     26  N   UNL     1      51.671   0.764  17.455  0.00  0.00    +0.000 NA
ATOM     27  C   UNL     1      50.882   1.861  17.329  0.00  0.00    +0.000 A 
BRANCH  25  28
ATOM     28  C   UNL     1      53.794  -0.218  18.089  0.00  0.00    +0.000 C 
ATOM     29  N   UNL     1      54.241  -0.813  16.940  0.00  0.00    +0.000 N 
ATOM     30  O   UNL     1      54.067  -0.660  19.197  0.00  0.00    +0.000 OA
ATOM     31  H   UNL     1      53.976  -0.420  16.044  0.00  0.00    +0.000 HD
ATOM     32  H   UNL     1      54.799  -1.652  16.993  0.00  0.00    +0.000 HD
ENDBRANCH  25  28
ENDBRANCH  20  22
ENDBRANCH  19  20
ENDBRANCH   2  19
TORSDOF 8
ENDMDL
MODEL 6
REMARK VINA RESULT:    -7.012      4.881      9.078
REMARK INTER + INTRA:         -11.596
REMARK INTER:                 -10.482
REMARK INTRA:                  -1.114
REMARK UNBOUND:                -1.304
REMARK  Name = 
REMARK  9 active torsions:
REMARK  status: ('A' for Active; 'I' for Inactive)
REMARK    1  A    between atoms: C_1  and  C_2
REMARK    2  A    between atoms: C_2  and  C_3
REMARK    3  A    between atoms: C_2  and  C_14
REMARK    4  A    between atoms: C_3  and  N_4
REMARK    5  A    between atoms: N_4  and  C_5
REMARK    6  A    between atoms: C_8  and  C_9
REMARK    7  A    between atoms: C_18  and  C_19
REMARK    8  A    between atoms: C_22  and  O_23
REMARK    9  A    between atoms: O_23  and  C_24
REMARK                            x       y       z     vdW  Elec       q    Type
REMARK                         _______ _______ _______ _____ _____    ______ ____
ROOT
ATOM      1  C   UNL     1      50.999   7.576  16.111  0.00  0.00    +0.000 C 
ATOM      2  C   UNL     1      49.906   6.529  15.860  0.00  0.00    +0.000 C 
ENDROOT
BRANCH   2   3
ATOM      3  C   UNL     1      48.874   7.088  14.904  0.00  0.00    +0.000 A 
ATOM      4  N   UNL     1      48.767   8.421  14.779  0.00  0.00    +0.000 NA
ATOM      5  C   UNL     1      47.777   8.888  14.016  0.00  0.00    +0.000 A 
ATOM      6  C   UNL     1      46.929   8.075  13.308  0.00  0.00    +0.000 A 
ATOM      7  C   UNL     1      47.150   6.714  13.410  0.00  0.00    +0.000 A 
ATOM      8  N   UNL     1      48.097   6.209  14.236  0.00  0.00    +0.000 NA
BRANCH   7   9
ATOM      9  C   UNL     1      46.396   5.735  12.600  0.00  0.00    +0.000 A 
ATOM     10  C   UNL     1      46.027   4.482  13.127  0.00  0.00    +0.000 A 
ATOM     11  C   UNL     1      45.303   3.550  12.377  0.00  0.00    +0.000 A 
ATOM     12  C   UNL     1      44.900   3.863  11.082  0.00  0.00    +0.000 A 
ATOM     13  C   UNL     1      45.270   5.089  10.532  0.00  0.00    +0.000 A 
ATOM     14  C   UNL     1      46.000   6.019  11.283  0.00  0.00    +0.000 A 
BRANCH  12  15
ATOM     15  O   UNL     1      44.167   3.049  10.267  0.00  0.00    +0.000 OA
BRANCH  15  16
ATOM     16  C   UNL     1      44.863   2.522   9.150  0.00  0.00    +0.000 C 
ATOM     17  F   UNL     1      44.547   1.206   9.060  0.00  0.00    +0.000 F 
ATOM     18  F   UNL     1      44.391   3.115   8.024  0.00  0.00    +0.000 F 
ENDBRANCH  15  16
ENDBRANCH  12  15
ENDBRANCH   7   9
ENDBRANCH   2   3
BRANCH   2  19
ATOM     19  C   UNL     1      49.311   6.100  17.217  0.00  0.00    +0.000 C 
BRANCH  19  20
ATOM     20  N   UNL     1      48.890   4.694  17.245  0.00  0.00    +0.000 N 
ATOM     21  H   UNL     1      48.131   4.466  16.609  0.00  0.00    +0.000 HD
BRANCH  20  22
ATOM     22  C   UNL     1      49.860   3.697  17.355  0.00  0.00    +0.000 A 
ATOM     23  C   UNL     1      51.134   4.029  17.821  0.00  0.00    +0.000 A 
ATOM     24  C   UNL     1      52.122   3.050  17.948  0.00  0.00    +0.000 A 
ATOM     25  C   UNL     1      51.812   1.755  17.564  0.00  0.00    +0.000 A 
ATOM     26  N   UNL     1      50.617   1.389  17.034  0.00  0.00    +0.000 NA
ATOM     27  C   UNL     1      49.691   2.376  16.926  0.00  0.00    +0.000 A 
BRANCH  25  28
ATOM     28  C   UNL     1      52.815   0.659  17.746  0.00  0.00    +0.000 C 
ATOM     29  N   UNL     1      52.361  -0.437  18.431  0.00  0.00    +0.000 N 
ATOM     30  O   UNL     1      53.964   0.733  17.330  0.00  0.00    +0.000 OA
ATOM     31  H   UNL     1      51.406  -0.447  18.770  0.00  0.00    +0.000 HD
ATOM     32  H   UNL     1      52.986  -1.205  18.621  0.00  0.00    +0.000 HD
ENDBRANCH  25  28
ENDBRANCH  20  22
ENDBRANCH  19  20
ENDBRANCH   2  19
TORSDOF 8
ENDMDL
MODEL 7
REMARK VINA RESULT:    -6.651      4.899      8.469
REMARK INTER + INTRA:         -11.066
REMARK INTER:                  -9.375
REMARK INTRA:                  -1.691
REMARK UNBOUND:                -1.304
REMARK  Name = 
REMARK  9 active torsions:
REMARK  status: ('A' for Active; 'I' for Inactive)
REMARK    1  A    between atoms: C_1  and  C_2
REMARK    2  A    between atoms: C_2  and  C_3
REMARK    3  A    between atoms: C_2  and  C_14
REMARK    4  A    between atoms: C_3  and  N_4
REMARK    5  A    between atoms: N_4  and  C_5
REMARK    6  A    between atoms: C_8  and  C_9
REMARK    7  A    between atoms: C_18  and  C_19
REMARK    8  A    between atoms: C_22  and  O_23
REMARK    9  A    between atoms: O_23  and  C_24
REMARK                            x       y       z     vdW  Elec       q    Type
REMARK                         _______ _______ _______ _____ _____    ______ ____
ROOT
ATOM      1  C   UNL     1      52.728   8.760  14.538  0.00  0.00    +0.000 C 
ATOM      2  C   UNL     1      51.429   8.040  14.923  0.00  0.00    +0.000 C 
ENDROOT
BRANCH   2   3
ATOM      3  C   UNL     1      50.491   8.009  13.734  0.00  0.00    +0.000 A 
ATOM      4  N   UNL     1      50.749   8.813  12.690  0.00  0.00    +0.000 NA
ATOM      5  C   UNL     1      49.848   8.848  11.705  0.00  0.00    +0.000 A 
ATOM      6  C   UNL     1      48.731   8.053  11.685  0.00  0.00    +0.000 A 
ATOM      7  C   UNL     1      48.571   7.183  12.747  0.00  0.00    +0.000 A 
ATOM      8  N   UNL     1      49.427   7.180  13.797  0.00  0.00    +0.000 NA
BRANCH   7   9
ATOM      9  C   UNL     1      47.484   6.183  12.784  0.00  0.00    +0.000 A 
ATOM     10  C   UNL     1      47.400   5.235  13.822  0.00  0.00    +0.000 A 
ATOM     11  C   UNL     1      46.370   4.290  13.878  0.00  0.00    +0.000 A 
ATOM     12  C   UNL     1      45.375   4.290  12.905  0.00  0.00    +0.000 A 
ATOM     13  C   UNL     1      45.448   5.206  11.857  0.00  0.00    +0.000 A 
ATOM     14  C   UNL     1      46.482   6.148  11.801  0.00  0.00    +0.000 A 
BRANCH  12  15
ATOM     15  O   UNL     1      44.308   3.439  12.871  0.00  0.00    +0.000 OA
BRANCH  15  16
ATOM     16  C   UNL     1      43.646   3.344  11.621  0.00  0.00    +0.000 C 
ATOM     17  F   UNL     1      43.147   2.087  11.521  0.00  0.00    +0.000 F 
ATOM     18  F   UNL     1      42.583   4.188  11.627  0.00  0.00    +0.000 F 
ENDBRANCH  15  16
ENDBRANCH  12  15
ENDBRANCH   7   9
ENDBRANCH   2   3
BRANCH   2  19
ATOM     19  C   UNL     1      50.824   8.736  16.159  0.00  0.00    +0.000 C 
BRANCH  19  20
ATOM     20  N   UNL     1      50.782   7.872  17.345  0.00  0.00    +0.000 N 
ATOM     21  H   UNL     1      50.652   8.366  18.224  0.00  0.00    +0.000 HD
BRANCH  20  22
ATOM     22  C   UNL     1      50.111   6.652  17.273  0.00  0.00    +0.000 A 
ATOM     23  C   UNL     1      48.728   6.616  17.468  0.00  0.00    +0.000 A 
ATOM     24  C   UNL     1      48.031   5.409  17.395  0.00  0.00    +0.000 A 
ATOM     25  C   UNL     1      48.754   4.249  17.162  0.00  0.00    +0.000 A 
ATOM     26  N   UNL     1      50.105   4.213  17.041  0.00  0.00    +0.000 NA
ATOM     27  C   UNL     1      50.739   5.410  17.123  0.00  0.00    +0.000 A 
BRANCH  25  28
ATOM     28  C   UNL     1      48.042   2.941  17.007  0.00  0.00    +0.000 C 
ATOM     29  N   UNL     1      48.749   1.969  16.352  0.00  0.00    +0.000 N 
ATOM     30  O   UNL     1      46.905   2.749  17.419  0.00  0.00    +0.000 OA
ATOM     31  H   UNL     1      49.683   2.179  16.014  0.00  0.00    +0.000 HD
ATOM     32  H   UNL     1      48.327   1.069  16.181  0.00  0.00    +0.000 HD
ENDBRANCH  25  28
ENDBRANCH  20  22
ENDBRANCH  19  20
ENDBRANCH   2  19
TORSDOF 8
ENDMDL
MODEL 8
REMARK VINA RESULT:    -6.519      4.794      6.838
REMARK INTER + INTRA:         -10.872
REMARK INTER:                  -9.209
REMARK INTRA:                  -1.663
REMARK UNBOUND:                -1.304
REMARK  Name = 
REMARK  9 active torsions:
REMARK  status: ('A' for Active; 'I' for Inactive)
REMARK    1  A    between atoms: C_1  and  C_2
REMARK    2  A    between atoms: C_2  and  C_3
REMARK    3  A    between atoms: C_2  and  C_14
REMARK    4  A    between atoms: C_3  and  N_4
REMARK    5  A    between atoms: N_4  and  C_5
REMARK    6  A    between atoms: C_8  and  C_9
REMARK    7  A    between atoms: C_18  and  C_19
REMARK    8  A    between atoms: C_22  and  O_23
REMARK    9  A    between atoms: O_23  and  C_24
REMARK                            x       y       z     vdW  Elec       q    Type
REMARK                         _______ _______ _______ _____ _____    ______ ____
ROOT
ATOM      1  C   UNL     1      47.131   4.478  17.785  0.00  0.00    +0.000 C 
ATOM      2  C   UNL     1      48.083   4.512  16.583  0.00  0.00    +0.000 C 
ENDROOT
BRANCH   2   3
ATOM      3  C   UNL     1      48.654   5.906  16.423  0.00  0.00    +0.000 A 
ATOM      4  N   UNL     1      48.647   6.730  17.483  0.00  0.00    +0.000 NA
ATOM      5  C   UNL     1      49.053   7.986  17.287  0.00  0.00    +0.000 A 
ATOM      6  C   UNL     1      49.538   8.437  16.086  0.00  0.00    +0.000 A 
ATOM      7  C   UNL     1      49.603   7.513  15.060  0.00  0.00    +0.000 A 
ATOM      8  N   UNL     1      49.128   6.254  15.207  0.00  0.00    +0.000 NA
BRANCH   7   9
ATOM      9  C   UNL     1      50.225   7.832  13.758  0.00  0.00    +0.000 A 
ATOM     10  C   UNL     1      49.603   7.475  12.545  0.00  0.00    +0.000 A 
ATOM     11  C   UNL     1      50.173   7.781  11.305  0.00  0.00    +0.000 A 
ATOM     12  C   UNL     1      51.374   8.481  11.247  0.00  0.00    +0.000 A 
ATOM     13  C   UNL     1      52.018   8.827  12.434  0.00  0.00    +0.000 A 
ATOM     14  C   UNL     1      51.448   8.516  13.674  0.00  0.00    +0.000 A 
BRANCH  12  15
ATOM     15  O   UNL     1      52.009   8.860  10.099  0.00  0.00    +0.000 OA
BRANCH  15  16
ATOM     16  C   UNL     1      52.974   7.943   9.609  0.00  0.00    +0.000 C 
ATOM     17  F   UNL     1      52.357   7.159   8.690  0.00  0.00    +0.000 F 
ATOM     18  F   UNL     1      53.936   8.637   8.948  0.00  0.00    +0.000 F 
ENDBRANCH  15  16
ENDBRANCH  12  15
ENDBRANCH   7   9
ENDBRANCH   2   3
BRANCH   2  19
ATOM     19  C   UNL     1      47.324   4.017  15.334  0.00  0.00    +0.000 C 
BRANCH  19  20
ATOM     20  N   UNL     1      46.423   5.027  14.768  0.00  0.00    +0.000 N 
ATOM     21  H   UNL     1      46.562   5.968  15.125  0.00  0.00    +0.000 HD
BRANCH  20  22
ATOM     22  C   UNL     1      46.111   4.973  13.409  0.00  0.00    +0.000 A 
ATOM     23  C   UNL     1      46.313   6.104  12.614  0.00  0.00    +0.000 A 
ATOM     24  C   UNL     1      46.016   6.077  11.250  0.00  0.00    +0.000 A 
ATOM     25  C   UNL     1      45.483   4.912  10.721  0.00  0.00    +0.000 A 
ATOM     26  N   UNL     1      45.195   3.809  11.458  0.00  0.00    +0.000 NA
ATOM     27  C   UNL     1      45.497   3.886  12.779  0.00  0.00    +0.000 A 
BRANCH  25  28
ATOM     28  C   UNL     1      45.213   4.811   9.251  0.00  0.00    +0.000 C 
ATOM     29  N   UNL     1      43.956   4.381   8.920  0.00  0.00    +0.000 N 
ATOM     30  O   UNL     1      46.053   5.077   8.401  0.00  0.00    +0.000 OA
ATOM     31  H   UNL     1      43.299   4.157   9.659  0.00  0.00    +0.000 HD
ATOM     32  H   UNL     1      43.707   4.258   7.950  0.00  0.00    +0.000 HD
ENDBRANCH  25  28
ENDBRANCH  20  22
ENDBRANCH  19  20
ENDBRANCH   2  19
TORSDOF 8
ENDMDL
MODEL 9
REMARK VINA RESULT:    -6.421      4.918      8.397
REMARK INTER + INTRA:         -10.728
REMARK INTER:                  -8.920
REMARK INTRA:                  -1.808
REMARK UNBOUND:                -1.304
REMARK  Name = 
REMARK  9 active torsions:
REMARK  status: ('A' for Active; 'I' for Inactive)
REMARK    1  A    between atoms: C_1  and  C_2
REMARK    2  A    between atoms: C_2  and  C_3
REMARK    3  A    between atoms: C_2  and  C_14
REMARK    4  A    between atoms: C_3  and  N_4
REMARK    5  A    between atoms: N_4  and  C_5
REMARK    6  A    between atoms: C_8  and  C_9
REMARK    7  A    between atoms: C_18  and  C_19
REMARK    8  A    between atoms: C_22  and  O_23
REMARK    9  A    between atoms: O_23  and  C_24
REMARK                            x       y       z     vdW  Elec       q    Type
REMARK                         _______ _______ _______ _____ _____    ______ ____
ROOT
ATOM      1  C   UNL     1      51.992   9.198  14.125  0.00  0.00    +0.000 C 
ATOM      2  C   UNL     1      50.807   8.443  14.741  0.00  0.00    +0.000 C 
ENDROOT
BRANCH   2   3
ATOM      3  C   UNL     1      49.585   8.602  13.860  0.00  0.00    +0.000 A 
ATOM      4  N   UNL     1      49.479   9.705  13.102  0.00  0.00    +0.000 NA
ATOM      5  C   UNL     1      48.344   9.874  12.420  0.00  0.00    +0.000 A 
ATOM      6  C   UNL     1      47.334   8.946  12.407  0.00  0.00    +0.000 A 
ATOM      7  C   UNL     1      47.545   7.792  13.137  0.00  0.00    +0.000 A 
ATOM      8  N   UNL     1      48.652   7.627  13.899  0.00  0.00    +0.000 NA
BRANCH   7   9
ATOM      9  C   UNL     1      46.597   6.659  13.103  0.00  0.00    +0.000 A 
ATOM     10  C   UNL     1      45.270   6.831  12.665  0.00  0.00    +0.000 A 
ATOM     11  C   UNL     1      44.364   5.767  12.615  0.00  0.00    +0.000 A 
ATOM     12  C   UNL     1      44.777   4.488  12.976  0.00  0.00    +0.000 A 
ATOM     13  C   UNL     1      46.080   4.296  13.432  0.00  0.00    +0.000 A 
ATOM     14  C   UNL     1      46.983   5.364  13.486  0.00  0.00    +0.000 A 
BRANCH  12  15
ATOM     15  O   UNL     1      43.994   3.369  12.941  0.00  0.00    +0.000 OA
BRANCH  15  16
ATOM     16  C   UNL     1      43.456   3.044  11.670  0.00  0.00    +0.000 C 
ATOM     17  F   UNL     1      44.488   3.017  10.789  0.00  0.00    +0.000 F 
ATOM     18  F   UNL     1      42.952   1.785  11.721  0.00  0.00    +0.000 F 
ENDBRANCH  15  16
ENDBRANCH  12  15
ENDBRANCH   7   9
ENDBRANCH   2   3
BRANCH   2  19
ATOM     19  C   UNL     1      50.590   8.950  16.182  0.00  0.00    +0.000 C 
BRANCH  19  20
ATOM     20  N   UNL     1      50.835   7.922  17.200  0.00  0.00    +0.000 N 
ATOM     21  H   UNL     1      50.969   8.281  18.141  0.00  0.00    +0.000 HD
BRANCH  20  22
ATOM     22  C   UNL     1      50.121   6.726  17.142  0.00  0.00    +0.000 A 
ATOM     23  C   UNL     1      48.736   6.745  17.326  0.00  0.00    +0.000 A 
ATOM     24  C   UNL     1      47.995   5.563  17.267  0.00  0.00    +0.000 A 
ATOM     25  C   UNL     1      48.677   4.373  17.059  0.00  0.00    +0.000 A 
ATOM     26  N   UNL     1      50.027   4.285  16.950  0.00  0.00    +0.000 NA
ATOM     27  C   UNL     1      50.704   5.460  17.018  0.00  0.00    +0.000 A 
BRANCH  25  28
ATOM     28  C   UNL     1      47.919   3.090  16.920  0.00  0.00    +0.000 C 
ATOM     29  N   UNL     1      48.600   2.078  16.297  0.00  0.00    +0.000 N 
ATOM     30  O   UNL     1      46.769   2.950  17.316  0.00  0.00    +0.000 OA
ATOM     31  H   UNL     1      49.546   2.245  15.972  0.00  0.00    +0.000 HD
ATOM     32  H   UNL     1      48.147   1.191  16.138  0.00  0.00    +0.000 HD
ENDBRANCH  25  28
ENDBRANCH  20  22
ENDBRANCH  19  20
ENDBRANCH   2  19
TORSDOF 8
ENDMDL
