MODEL 1
REMARK VINA RESULT:    -8.294      0.000      0.000
REMARK INTER + INTRA:         -10.542
REMARK INTER:                 -10.234
REMARK INTRA:                  -0.308
REMARK UNBOUND:                -0.308
REMARK  Name = 
REMARK  6 active torsions:
REMARK  status: ('A' for Active; 'I' for Inactive)
REMARK    1  A    between atoms: C_1  and  C_2
REMARK    2  A    between atoms: C_2  and  C_3
REMARK    3  A    between atoms: C_2  and  N_4
REMARK    4  A    between atoms: C_2  and  C_14
REMARK    5  A    between atoms: N_4  and  C_5
REMARK    6  A    between atoms: C_8  and  C_9
REMARK                            x       y       z     vdW  Elec       q    Type
REMARK                         _______ _______ _______ _____ _____    ______ ____
ROOT
ATOM      1  N   UNL     1      43.750   4.673   9.842  0.00  0.00    +0.000 N 
ATOM      2  H   UNL     1      43.632   5.555   9.346  0.00  0.00    +0.000 HD
ENDROOT
BRANCH   1   3
ATOM      3  C   UNL     1      44.692   3.869   9.200  0.00  0.00    +0.000 A 
ATOM      4  C   UNL     1      45.634   4.477   8.364  0.00  0.00    +0.000 A 
ATOM      5  C   UNL     1      46.524   3.700   7.614  0.00  0.00    +0.000 A 
ATOM      6  C   UNL     1      46.465   2.322   7.756  0.00  0.00    +0.000 A 
ATOM      7  N   UNL     1      45.637   1.689   8.625  0.00  0.00    +0.000 NA
ATOM      8  C   UNL     1      44.791   2.483   9.320  0.00  0.00    +0.000 A 
BRANCH   6   9
ATOM      9  C   UNL     1      47.324   1.431   6.918  0.00  0.00    +0.000 C 
ATOM     10  N   UNL     1      48.381   2.056   6.312  0.00  0.00    +0.000 N 
ATOM     11  O   UNL     1      47.112   0.235   6.775  0.00  0.00    +0.000 OA
ATOM     12  H   UNL     1      48.528   3.047   6.487  0.00  0.00    +0.000 HD
ATOM     13  H   UNL     1      49.035   1.522   5.761  0.00  0.00    +0.000 HD
ENDBRANCH   6   9
ENDBRANCH   1   3
BRANCH   1  15
ATOM     14  C   UNL     1      42.484   5.754  11.659  0.00  0.00    +0.000 C 
ATOM     15  C   UNL     1      43.673   4.829  11.317  0.00  0.00    +0.000 C 
ATOM     16  C   UNL     1      43.317   3.435  11.896  0.00  0.00    +0.000 C 
BRANCH  15  17
ATOM     17  C   UNL     1      45.016   5.262  11.915  0.00  0.00    +0.000 A 
ATOM     18  C   UNL     1      45.718   6.400  11.493  0.00  0.00    +0.000 A 
ATOM     19  C   UNL     1      46.965   6.704  12.035  0.00  0.00    +0.000 A 
ATOM     20  C   UNL     1      47.478   5.870  13.009  0.00  0.00    +0.000 A 
ATOM     21  N   UNL     1      46.844   4.770  13.458  0.00  0.00    +0.000 NA
ATOM     22  C   UNL     1      45.645   4.486  12.895  0.00  0.00    +0.000 A 
ENDBRANCH  15  17
ENDBRANCH   1  15
TORSDOF 4
ENDMDL
MODEL 2
REMARK VINA RESULT:    -7.675      1.583      2.071
REMARK INTER + INTRA:          -9.778
REMARK INTER:                  -9.345
REMARK INTRA:                  -0.433
REMARK UNBOUND:                -0.308
REMARK  Name = 
REMARK  6 active torsions:
REMARK  status: ('A' for Active; 'I' for Inactive)
REMARK    1  A    between atoms: C_1  and  C_2
REMARK    2  A    between atoms: C_2  and  C_3
REMARK    3  A    between atoms: C_2  and  N_4
REMARK    4  A    between atoms: C_2  and  C_14
REMARK    5  A    between atoms: N_4  and  C_5
REMARK    6  A    between atoms: C_8  and  C_9
REMARK                            x       y       z     vdW  Elec       q    Type
REMARK                         _______ _______ _______ _____ _____    ______ ____
ROOT
ATOM      1  N   UNL     1      43.905   3.801  10.593  0.00  0.00    +0.000 N 
ATOM      2  H   UNL     1      43.114   4.356  10.270  0.00  0.00    +0.000 HD
ENDROOT
BRANCH   1   3
ATOM      3  C   UNL     1      44.737   3.463   9.527  0.00  0.00    +0.000 A 
ATOM      4  C   UNL     1      44.976   2.110   9.266  0.00  0.00    +0.000 A 
ATOM      5  C   UNL     1      45.892   1.727   8.280  0.00  0.00    +0.000 A 
ATOM      6  C   UNL     1      46.520   2.726   7.551  0.00  0.00    +0.000 A 
ATOM      7  N   UNL     1      46.252   4.048   7.699  0.00  0.00    +0.000 NA
ATOM      8  C   UNL     1      45.366   4.366   8.670  0.00  0.00    +0.000 A 
BRANCH   6   9
ATOM      9  C   UNL     1      47.574   2.390   6.546  0.00  0.00    +0.000 C 
ATOM     10  N   UNL     1      47.458   3.047   5.351  0.00  0.00    +0.000 N 
ATOM     11  O   UNL     1      48.476   1.593   6.760  0.00  0.00    +0.000 OA
ATOM     12  H   UNL     1      46.705   3.721   5.235  0.00  0.00    +0.000 HD
ATOM     13  H   UNL     1      48.150   2.911   4.631  0.00  0.00    +0.000 HD
ENDBRANCH   6   9
ENDBRANCH   1   3
BRANCH   1  15
ATOM     14  C   UNL     1      43.273   4.084  12.958  0.00  0.00    +0.000 C 
ATOM     15  C   UNL     1      44.408   4.236  11.922  0.00  0.00    +0.000 C 
ATOM     16  C   UNL     1      45.511   3.228  12.334  0.00  0.00    +0.000 C 
BRANCH  15  17
ATOM     17  C   UNL     1      45.039   5.632  11.862  0.00  0.00    +0.000 A 
ATOM     18  C   UNL     1      46.399   5.876  12.104  0.00  0.00    +0.000 A 
ATOM     19  C   UNL     1      46.897   7.176  12.096  0.00  0.00    +0.000 A 
ATOM     20  C   UNL     1      46.024   8.212  11.824  0.00  0.00    +0.000 A 
ATOM     21  N   UNL     1      44.712   8.035  11.576  0.00  0.00    +0.000 NA
ATOM     22  C   UNL     1      44.251   6.762  11.617  0.00  0.00    +0.000 A 
ENDBRANCH  15  17
ENDBRANCH   1  15
TORSDOF 4
ENDMDL
MODEL 3
REMARK VINA RESULT:    -6.574      3.203      6.233
REMARK INTER + INTRA:          -8.420
REMARK INTER:                  -7.975
REMARK INTRA:                  -0.444
REMARK UNBOUND:                -0.308
REMARK  Name = 
REMARK  6 active torsions:
REMARK  status: ('A' for Active; 'I' for Inactive)
REMARK    1  A    between atoms: C_1  and  C_2
REMARK    2  A    between atoms: C_2  and  C_3
REMARK    3  A    between atoms: C_2  and  N_4
REMARK    4  A    between atoms: C_2  and  C_14
REMARK    5  A    between atoms: N_4  and  C_5
REMARK    6  A    between atoms: C_8  and  C_9
REMARK                            x       y       z     vdW  Elec       q    Type
REMARK                         _______ _______ _______ _____ _____    ______ ____
ROOT
ATOM      1  N   UNL     1      46.389   5.911  12.389  0.00  0.00    +0.000 N 
ATOM      2  H   UNL     1      46.713   6.868  12.526  0.00  0.00    +0.000 HD
ENDROOT
BRANCH   1   3
ATOM      3  C   UNL     1      46.810   5.094  13.437  0.00  0.00    +0.000 A 
ATOM      4  C   UNL     1      47.205   5.694  14.637  0.00  0.00    +0.000 A 
ATOM      5  C   UNL     1      47.740   4.921  15.675  0.00  0.00    +0.000 A 
ATOM      6  C   UNL     1      47.828   3.551  15.488  0.00  0.00    +0.000 A 
ATOM      7  N   UNL     1      47.370   2.910  14.383  0.00  0.00    +0.000 NA
ATOM      8  C   UNL     1      46.870   3.701  13.407  0.00  0.00    +0.000 A 
BRANCH   6   9
ATOM      9  C   UNL     1      48.472   2.679  16.518  0.00  0.00    +0.000 C 
ATOM     10  N   UNL     1      48.118   2.959  17.810  0.00  0.00    +0.000 N 
ATOM     11  O   UNL     1      49.256   1.782  16.243  0.00  0.00    +0.000 OA
ATOM     12  H   UNL     1      47.440   3.699  17.981  0.00  0.00    +0.000 HD
ATOM     13  H   UNL     1      48.474   2.395  18.565  0.00  0.00    +0.000 HD
ENDBRANCH   6   9
ENDBRANCH   1   3
BRANCH   1  15
ATOM     14  C   UNL     1      44.017   5.477  12.895  0.00  0.00    +0.000 C 
ATOM     15  C   UNL     1      45.031   5.844  11.790  0.00  0.00    +0.000 C 
ATOM     16  C   UNL     1      44.673   7.281  11.332  0.00  0.00    +0.000 C 
BRANCH  15  17
ATOM     17  C   UNL     1      44.997   4.932  10.559  0.00  0.00    +0.000 A 
ATOM     18  C   UNL     1      44.387   3.668  10.551  0.00  0.00    +0.000 A 
ATOM     19  C   UNL     1      44.446   2.862   9.417  0.00  0.00    +0.000 A 
ATOM     20  C   UNL     1      45.098   3.346   8.299  0.00  0.00    +0.000 A 
ATOM     21  N   UNL     1      45.693   4.553   8.249  0.00  0.00    +0.000 NA
ATOM     22  C   UNL     1      45.642   5.304   9.375  0.00  0.00    +0.000 A 
ENDBRANCH  15  17
ENDBRANCH   1  15
TORSDOF 4
ENDMDL
MODEL 4
REMARK VINA RESULT:    -6.387      3.388      6.549
REMARK INTER + INTRA:          -8.189
REMARK INTER:                  -7.877
REMARK INTRA:                  -0.312
REMARK UNBOUND:                -0.308
REMARK  Name = 
REMARK  6 active torsions:
REMARK  status: ('A' for Active; 'I' for Inactive)
REMARK    1  A    between atoms: C_1  and  C_2
REMARK    2  A    between atoms: C_2  and  C_3
REMARK    3  A    between atoms: C_2  and  N_4
REMARK    4  A    between atoms: C_2  and  C_14
REMARK    5  A    between atoms: N_4  and  C_5
REMARK    6  A    between atoms: C_8  and  C_9
REMARK                            x       y       z     vdW  Elec       q    Type
REMARK                         _______ _______ _______ _____ _____    ______ ____
ROOT
ATOM      1  N   UNL     1      44.837   6.221  10.726  0.00  0.00    +0.000 N 
ATOM      2  H   UNL     1      43.980   6.733  10.518  0.00  0.00    +0.000 HD
ENDROOT
BRANCH   1   3
ATOM      3  C   UNL     1      45.668   6.969  11.558  0.00  0.00    +0.000 A 
ATOM      4  C   UNL     1      47.048   6.749  11.499  0.00  0.00    +0.000 A 
ATOM      5  C   UNL     1      47.909   7.395  12.395  0.00  0.00    +0.000 A 
ATOM      6  C   UNL     1      47.355   8.281  13.306  0.00  0.00    +0.000 A 
ATOM      7  N   UNL     1      46.037   8.602  13.340  0.00  0.00    +0.000 NA
ATOM      8  C   UNL     1      45.247   7.945  12.461  0.00  0.00    +0.000 A 
BRANCH   6   9
ATOM      9  C   UNL     1      48.205   8.935  14.348  0.00  0.00    +0.000 C 
ATOM     10  N   UNL     1      47.574   9.166  15.541  0.00  0.00    +0.000 N 
ATOM     11  O   UNL     1      49.373   9.246  14.164  0.00  0.00    +0.000 OA
ATOM     12  H   UNL     1      46.609   8.863  15.650  0.00  0.00    +0.000 HD
ATOM     13  H   UNL     1      48.084   9.567  16.312  0.00  0.00    +0.000 HD
ENDBRANCH   6   9
ENDBRANCH   1   3
BRANCH   1  15
ATOM     14  C   UNL     1      45.178   4.319  12.255  0.00  0.00    +0.000 C 
ATOM     15  C   UNL     1      44.609   4.762  10.889  0.00  0.00    +0.000 C 
ATOM     16  C   UNL     1      43.075   4.555  10.970  0.00  0.00    +0.000 C 
BRANCH  15  17
ATOM     17  C   UNL     1      45.133   3.966   9.688  0.00  0.00    +0.000 A 
ATOM     18  C   UNL     1      45.124   2.565   9.627  0.00  0.00    +0.000 A 
ATOM     19  C   UNL     1      45.673   1.901   8.533  0.00  0.00    +0.000 A 
ATOM     20  C   UNL     1      46.203   2.657   7.504  0.00  0.00    +0.000 A 
ATOM     21  N   UNL     1      46.230   4.003   7.507  0.00  0.00    +0.000 NA
ATOM     22  C   UNL     1      45.713   4.620   8.596  0.00  0.00    +0.000 A 
ENDBRANCH  15  17
ENDBRANCH   1  15
TORSDOF 4
ENDMDL
MODEL 5
REMARK VINA RESULT:    -5.878      3.244      6.469
REMARK INTER + INTRA:          -7.561
REMARK INTER:                  -7.729
REMARK INTRA:                   0.168
REMARK UNBOUND:                -0.308
REMARK  Name = 
REMARK  6 active torsions:
REMARK  status: ('A' for Active; 'I' for Inactive)
REMARK    1  A    between atoms: C_1  and  C_2
REMARK    2  A    between atoms: C_2  and  C_3
REMARK    3  A    between atoms: C_2  and  N_4
REMARK    4  A    between atoms: C_2  and  C_14
REMARK    5  A    between atoms: N_4  and  C_5
REMARK    6  A    between atoms: C_8  and  C_9
REMARK                            x       y       z     vdW  Elec       q    Type
REMARK                         _______ _______ _______ _____ _____    ______ ____
ROOT
ATOM      1  N   UNL     1      45.827   3.413  12.806  0.00  0.00    +0.000 N 
ATOM      2  H   UNL     1      46.433   2.742  12.336  0.00  0.00    +0.000 HD
ENDROOT
BRANCH   1   3
ATOM      3  C   UNL     1      46.582   4.324  13.546  0.00  0.00    +0.000 A 
ATOM      4  C   UNL     1      47.082   5.459  12.901  0.00  0.00    +0.000 A 
ATOM      5  C   UNL     1      47.936   6.340  13.575  0.00  0.00    +0.000 A 
ATOM      6  C   UNL     1      48.235   6.071  14.901  0.00  0.00    +0.000 A 
ATOM      7  N   UNL     1      47.699   5.038  15.600  0.00  0.00    +0.000 NA
ATOM      8  C   UNL     1      46.887   4.212  14.902  0.00  0.00    +0.000 A 
BRANCH   6   9
ATOM      9  C   UNL     1      49.211   6.919  15.652  0.00  0.00    +0.000 C 
ATOM     10  N   UNL     1      48.648   7.773  16.562  0.00  0.00    +0.000 N 
ATOM     11  O   UNL     1      50.420   6.866  15.477  0.00  0.00    +0.000 OA
ATOM     12  H   UNL     1      47.638   7.757  16.687  0.00  0.00    +0.000 HD
ATOM     13  H   UNL     1      49.235   8.353  17.140  0.00  0.00    +0.000 HD
ENDBRANCH   6   9
ENDBRANCH   1   3
BRANCH   1  15
ATOM     14  C   UNL     1      43.449   2.915  12.394  0.00  0.00    +0.000 C 
ATOM     15  C   UNL     1      44.650   3.798  11.986  0.00  0.00    +0.000 C 
ATOM     16  C   UNL     1      44.278   5.248  12.390  0.00  0.00    +0.000 C 
BRANCH  15  17
ATOM     17  C   UNL     1      44.972   3.790  10.488  0.00  0.00    +0.000 A 
ATOM     18  C   UNL     1      44.919   2.636   9.692  0.00  0.00    +0.000 A 
ATOM     19  C   UNL     1      45.286   2.685   8.350  0.00  0.00    +0.000 A 
ATOM     20  C   UNL     1      45.680   3.898   7.820  0.00  0.00    +0.000 A 
ATOM     21  N   UNL     1      45.741   5.038   8.535  0.00  0.00    +0.000 NA
ATOM     22  C   UNL     1      45.404   4.955   9.844  0.00  0.00    +0.000 A 
ENDBRANCH  15  17
ENDBRANCH   1  15
TORSDOF 4
ENDMDL
MODEL 6
REMARK VINA RESULT:    -5.831      3.187      5.308
REMARK INTER + INTRA:          -7.503
REMARK INTER:                  -7.210
REMARK INTRA:                  -0.294
REMARK UNBOUND:                -0.308
REMARK  Name = 
REMARK  6 active torsions:
REMARK  status: ('A' for Active; 'I' for Inactive)
REMARK    1  A    between atoms: C_1  and  C_2
REMARK    2  A    between atoms: C_2  and  C_3
REMARK    3  A    between atoms: C_2  and  N_4
REMARK    4  A    between atoms: C_2  and  C_14
REMARK    5  A    between atoms: N_4  and  C_5
REMARK    6  A    between atoms: C_8  and  C_9
REMARK                            x       y       z     vdW  Elec       q    Type
REMARK                         _______ _______ _______ _____ _____    ______ ____
ROOT
ATOM      1  N   UNL     1      46.452   7.281  13.507  0.00  0.00    +0.000 N 
ATOM      2  H   UNL     1      45.758   8.027  13.518  0.00  0.00    +0.000 HD
ENDROOT
BRANCH   1   3
ATOM      3  C   UNL     1      45.943   6.142  12.886  0.00  0.00    +0.000 A 
ATOM      4  C   UNL     1      45.600   6.213  11.532  0.00  0.00    +0.000 A 
ATOM      5  C   UNL     1      44.981   5.130  10.897  0.00  0.00    +0.000 A 
ATOM      6  C   UNL     1      44.757   3.981  11.640  0.00  0.00    +0.000 A 
ATOM      7  N   UNL     1      45.157   3.827  12.928  0.00  0.00    +0.000 NA
ATOM      8  C   UNL     1      45.743   4.905  13.498  0.00  0.00    +0.000 A 
BRANCH   6   9
ATOM      9  C   UNL     1      44.020   2.822  11.051  0.00  0.00    +0.000 C 
ATOM     10  N   UNL     1      44.625   2.249   9.965  0.00  0.00    +0.000 N 
ATOM     11  O   UNL     1      42.958   2.407  11.493  0.00  0.00    +0.000 OA
ATOM     12  H   UNL     1      45.522   2.616   9.655  0.00  0.00    +0.000 HD
ATOM     13  H   UNL     1      44.217   1.436   9.530  0.00  0.00    +0.000 HD
ENDBRANCH   6   9
ENDBRANCH   1   3
BRANCH   1  15
ATOM     14  C   UNL     1      48.516   7.970  14.665  0.00  0.00    +0.000 C 
ATOM     15  C   UNL     1      47.834   7.785  13.292  0.00  0.00    +0.000 C 
ATOM     16  C   UNL     1      48.613   6.657  12.568  0.00  0.00    +0.000 C 
BRANCH  15  17
ATOM     17  C   UNL     1      47.853   9.027  12.394  0.00  0.00    +0.000 A 
ATOM     18  C   UNL     1      49.009   9.502  11.757  0.00  0.00    +0.000 A 
ATOM     19  C   UNL     1      48.972  10.673  11.004  0.00  0.00    +0.000 A 
ATOM     20  C   UNL     1      47.767  11.339  10.885  0.00  0.00    +0.000 A 
ATOM     21  N   UNL     1      46.626  10.924  11.467  0.00  0.00    +0.000 NA
ATOM     22  C   UNL     1      46.698   9.797  12.214  0.00  0.00    +0.000 A 
ENDBRANCH  15  17
ENDBRANCH   1  15
TORSDOF 4
ENDMDL
MODEL 7
REMARK VINA RESULT:    -5.699      3.029      5.222
REMARK INTER + INTRA:          -7.340
REMARK INTER:                  -7.140
REMARK INTRA:                  -0.200
REMARK UNBOUND:                -0.308
REMARK  Name = 
REMARK  6 active torsions:
REMARK  status: ('A' for Active; 'I' for Inactive)
REMARK    1  A    between atoms: C_1  and  C_2
REMARK    2  A    between atoms: C_2  and  C_3
REMARK    3  A    between atoms: C_2  and  N_4
REMARK    4  A    between atoms: C_2  and  C_14
REMARK    5  A    between atoms: N_4  and  C_5
REMARK    6  A    between atoms: C_8  and  C_9
REMARK                            x       y       z     vdW  Elec       q    Type
REMARK                         _______ _______ _______ _____ _____    ______ ____
ROOT
ATOM      1  N   UNL     1      46.660   7.170  13.621  0.00  0.00    +0.000 N 
ATOM      2  H   UNL     1      45.961   7.898  13.763  0.00  0.00    +0.000 HD
ENDROOT
BRANCH   1   3
ATOM      3  C   UNL     1      46.116   6.094  12.921  0.00  0.00    +0.000 A 
ATOM      4  C   UNL     1      45.487   6.341  11.696  0.00  0.00    +0.000 A 
ATOM      5  C   UNL     1      44.830   5.310  11.015  0.00  0.00    +0.000 A 
ATOM      6  C   UNL     1      44.856   4.041  11.571  0.00  0.00    +0.000 A 
ATOM      7  N   UNL     1      45.533   3.729  12.706  0.00  0.00    +0.000 NA
ATOM      8  C   UNL     1      46.145   4.761  13.330  0.00  0.00    +0.000 A 
BRANCH   6   9
ATOM      9  C   UNL     1      44.099   2.915  10.943  0.00  0.00    +0.000 C 
ATOM     10  N   UNL     1      44.715   2.341   9.863  0.00  0.00    +0.000 N 
ATOM     11  O   UNL     1      43.014   2.526  11.349  0.00  0.00    +0.000 OA
ATOM     12  H   UNL     1      45.631   2.685   9.583  0.00  0.00    +0.000 HD
ATOM     13  H   UNL     1      44.294   1.549   9.404  0.00  0.00    +0.000 HD
ENDBRANCH   6   9
ENDBRANCH   1   3
BRANCH   1  15
ATOM     14  C   UNL     1      48.443   7.331  11.928  0.00  0.00    +0.000 C 
ATOM     15  C   UNL     1      48.016   7.718  13.361  0.00  0.00    +0.000 C 
ATOM     16  C   UNL     1      47.884   9.262  13.372  0.00  0.00    +0.000 C 
BRANCH  15  17
ATOM     17  C   UNL     1      49.011   7.318  14.456  0.00  0.00    +0.000 A 
ATOM     18  C   UNL     1      50.332   7.788  14.509  0.00  0.00    +0.000 A 
ATOM     19  C   UNL     1      51.204   7.336  15.496  0.00  0.00    +0.000 A 
ATOM     20  C   UNL     1      50.730   6.435  16.430  0.00  0.00    +0.000 A 
ATOM     21  N   UNL     1      49.471   5.958  16.432  0.00  0.00    +0.000 NA
ATOM     22  C   UNL     1      48.653   6.395  15.445  0.00  0.00    +0.000 A 
ENDBRANCH  15  17
ENDBRANCH   1  15
TORSDOF 4
ENDMDL
MODEL 8
REMARK VINA RESULT:    -5.317      4.223      6.475
REMARK INTER + INTRA:          -6.869
REMARK INTER:                  -6.347
REMARK INTRA:                  -0.522
REMARK UNBOUND:                -0.308
REMARK  Name = 
REMARK  6 active torsions:
REMARK  status: ('A' for Active; 'I' for Inactive)
REMARK    1  A    between atoms: C_1  and  C_2
REMARK    2  A    between atoms: C_2  and  C_3
REMARK    3  A    between atoms: C_2  and  N_4
REMARK    4  A    between atoms: C_2  and  C_14
REMARK    5  A    between atoms: N_4  and  C_5
REMARK    6  A    between atoms: C_8  and  C_9
REMARK                            x       y       z     vdW  Elec       q    Type
REMARK                         _______ _______ _______ _____ _____    ______ ____
ROOT
ATOM      1  N   UNL     1      48.837   6.796  12.814  0.00  0.00    +0.000 N 
ATOM      2  H   UNL     1      49.599   6.137  12.967  0.00  0.00    +0.000 HD
ENDROOT
BRANCH   1   3
ATOM      3  C   UNL     1      47.607   6.139  12.826  0.00  0.00    +0.000 A 
ATOM      4  C   UNL     1      46.662   6.467  11.849  0.00  0.00    +0.000 A 
ATOM      5  C   UNL     1      45.376   5.916  11.891  0.00  0.00    +0.000 A 
ATOM      6  C   UNL     1      45.088   5.012  12.902  0.00  0.00    +0.000 A 
ATOM      7  N   UNL     1      45.998   4.588  13.816  0.00  0.00    +0.000 NA
ATOM      8  C   UNL     1      47.222   5.156  13.737  0.00  0.00    +0.000 A 
BRANCH   6   9
ATOM      9  C   UNL     1      43.709   4.456  13.059  0.00  0.00    +0.000 C 
ATOM     10  N   UNL     1      42.713   5.394  13.108  0.00  0.00    +0.000 N 
ATOM     11  O   UNL     1      43.474   3.259  13.139  0.00  0.00    +0.000 OA
ATOM     12  H   UNL     1      42.962   6.376  13.009  0.00  0.00    +0.000 HD
ATOM     13  H   UNL     1      41.750   5.105  13.172  0.00  0.00    +0.000 HD
ENDBRANCH   6   9
ENDBRANCH   1   3
BRANCH   1  15
ATOM     14  C   UNL     1      48.221   8.186  14.753  0.00  0.00    +0.000 C 
ATOM     15  C   UNL     1      49.073   8.110  13.467  0.00  0.00    +0.000 C 
ATOM     16  C   UNL     1      50.554   8.121  13.926  0.00  0.00    +0.000 C 
BRANCH  15  17
ATOM     17  C   UNL     1      48.869   9.275  12.493  0.00  0.00    +0.000 A 
ATOM     18  C   UNL     1      47.647   9.947  12.337  0.00  0.00    +0.000 A 
ATOM     19  C   UNL     1      47.511  10.957  11.388  0.00  0.00    +0.000 A 
ATOM     20  C   UNL     1      48.612  11.293  10.624  0.00  0.00    +0.000 A 
ATOM     21  N   UNL     1      49.810  10.688  10.738  0.00  0.00    +0.000 NA
ATOM     22  C   UNL     1      49.905   9.692  11.650  0.00  0.00    +0.000 A 
ENDBRANCH  15  17
ENDBRANCH   1  15
TORSDOF 4
ENDMDL
