MODEL 1
REMARK VINA RESULT:    -9.049      0.000      0.000
REMARK INTER + INTRA:         -11.790
REMARK INTER:                 -11.165
REMARK INTRA:                  -0.625
REMARK UNBOUND:                -0.625
REMARK  Name = 
REMARK  4 active torsions:
REMARK  status: ('A' for Active; 'I' for Inactive)
REMARK    1  A    between atoms: C_2  and  C_4
REMARK    2  A    between atoms: N_9  and  C_10
REMARK    3  A    between atoms: C_10  and  C_11
REMARK    4  A    between atoms: C_16  and  C_17
REMARK                            x       y       z     vdW  Elec       q    Type
REMARK                         _______ _______ _______ _____ _____    ______ ____
ROOT
ATOM      1  C   UNL     1      46.008   5.017  14.012  0.00  0.00    +0.000 C 
ENDROOT
BRANCH   1   7
ATOM      2  C   UNL     1      48.007   4.085  17.722  0.00  0.00    +0.000 A 
ATOM      3  C   UNL     1      48.812   2.955  17.765  0.00  0.00    +0.000 A 
ATOM      4  C   UNL     1      48.922   2.224  16.602  0.00  0.00    +0.000 A 
ATOM      5  N   UNL     1      48.304   2.545  15.439  0.00  0.00    +0.000 NA
ATOM      6  C   UNL     1      47.510   3.633  15.414  0.00  0.00    +0.000 A 
ATOM      7  N   UNL     1      46.907   3.910  14.211  0.00  0.00    +0.000 N 
ATOM      8  C   UNL     1      47.338   4.413  16.544  0.00  0.00    +0.000 A 
ATOM      9  H   UNL     1      47.140   3.281  13.454  0.00  0.00    +0.000 HD
BRANCH   2  11
ATOM     10  N   UNL     1      46.666   5.724  18.927  0.00  0.00    +0.000 N 
ATOM     11  C   UNL     1      47.806   4.969  18.895  0.00  0.00    +0.000 C 
ATOM     12  O   UNL     1      48.602   4.991  19.824  0.00  0.00    +0.000 OA
ATOM     13  H   UNL     1      46.490   6.218  19.793  0.00  0.00    +0.000 HD
ATOM     14  H   UNL     1      45.877   5.539  18.327  0.00  0.00    +0.000 HD
ENDBRANCH   2  11
ENDBRANCH   1   7
BRANCH   1  15
ATOM     15  C   UNL     1      45.099   4.797  12.830  0.00  0.00    +0.000 A 
ATOM     16  C   UNL     1      43.769   5.228  12.849  0.00  0.00    +0.000 A 
ATOM     17  C   UNL     1      42.982   5.068  11.716  0.00  0.00    +0.000 A 
ATOM     18  F   UNL     1      41.718   5.510  11.726  0.00  0.00    +0.000 F 
ATOM     19  C   UNL     1      43.487   4.476  10.561  0.00  0.00    +0.000 A 
ATOM     20  C   UNL     1      44.816   4.028  10.502  0.00  0.00    +0.000 A 
ATOM     21  C   UNL     1      45.600   4.192  11.663  0.00  0.00    +0.000 A 
BRANCH  20  22
ATOM     22  C   UNL     1      45.389   3.435   9.269  0.00  0.00    +0.000 A 
ATOM     23  C   UNL     1      45.801   4.239   8.186  0.00  0.00    +0.000 A 
ATOM     24  C   UNL     1      46.356   3.683   7.027  0.00  0.00    +0.000 A 
ATOM     25  C   UNL     1      46.523   2.306   6.929  0.00  0.00    +0.000 A 
ATOM     26  C   UNL     1      46.130   1.501   7.987  0.00  0.00    +0.000 A 
ATOM     27  F   UNL     1      46.298   0.174   7.905  0.00  0.00    +0.000 F 
ATOM     28  C   UNL     1      45.564   2.047   9.137  0.00  0.00    +0.000 A 
ENDBRANCH  20  22
ENDBRANCH   1  15
TORSDOF 4
ENDMDL
MODEL 2
REMARK VINA RESULT:    -8.665      3.223      4.278
REMARK INTER + INTRA:         -11.316
REMARK INTER:                 -10.595
REMARK INTRA:                  -0.720
REMARK UNBOUND:                -0.625
REMARK  Name = 
REMARK  4 active torsions:
REMARK  status: ('A' for Active; 'I' for Inactive)
REMARK    1  A    between atoms: C_2  and  C_4
REMARK    2  A    between atoms: N_9  and  C_10
REMARK    3  A    between atoms: C_10  and  C_11
REMARK    4  A    between atoms: C_16  and  C_17
REMARK                            x       y       z     vdW  Elec       q    Type
REMARK                         _______ _______ _______ _____ _____    ______ ____
ROOT
ATOM      1  C   UNL     1      45.932   4.776  13.988  0.00  0.00    +0.000 C 
ENDROOT
BRANCH   1   7
ATOM      2  C   UNL     1      47.109   8.613  12.400  0.00  0.00    +0.000 A 
ATOM      3  C   UNL     1      48.456   8.829  12.142  0.00  0.00    +0.000 A 
ATOM      4  C   UNL     1      49.315   7.782  12.402  0.00  0.00    +0.000 A 
ATOM      5  N   UNL     1      48.924   6.575  12.879  0.00  0.00    +0.000 NA
ATOM      6  C   UNL     1      47.617   6.383  13.144  0.00  0.00    +0.000 A 
ATOM      7  N   UNL     1      47.277   5.144  13.628  0.00  0.00    +0.000 N 
ATOM      8  C   UNL     1      46.692   7.389  12.922  0.00  0.00    +0.000 A 
ATOM      9  H   UNL     1      48.042   4.487  13.715  0.00  0.00    +0.000 HD
BRANCH   2  11
ATOM     10  N   UNL     1      44.899   9.533  12.852  0.00  0.00    +0.000 N 
ATOM     11  C   UNL     1      46.073   9.645  12.160  0.00  0.00    +0.000 C 
ATOM     12  O   UNL     1      46.274  10.590  11.407  0.00  0.00    +0.000 OA
ATOM     13  H   UNL     1      44.264  10.316  12.768  0.00  0.00    +0.000 HD
ATOM     14  H   UNL     1      44.801   8.937  13.660  0.00  0.00    +0.000 HD
ENDBRANCH   2  11
ENDBRANCH   1   7
BRANCH   1  15
ATOM     15  C   UNL     1      45.051   4.614  12.776  0.00  0.00    +0.000 A 
ATOM     16  C   UNL     1      43.735   5.086  12.769  0.00  0.00    +0.000 A 
ATOM     17  C   UNL     1      42.976   4.980  11.612  0.00  0.00    +0.000 A 
ATOM     18  F   UNL     1      41.726   5.462  11.598  0.00  0.00    +0.000 F 
ATOM     19  C   UNL     1      43.495   4.401  10.456  0.00  0.00    +0.000 A 
ATOM     20  C   UNL     1      44.810   3.912  10.422  0.00  0.00    +0.000 A 
ATOM     21  C   UNL     1      45.565   4.022  11.608  0.00  0.00    +0.000 A 
BRANCH  20  22
ATOM     22  C   UNL     1      45.399   3.332   9.191  0.00  0.00    +0.000 A 
ATOM     23  C   UNL     1      45.805   4.145   8.112  0.00  0.00    +0.000 A 
ATOM     24  C   UNL     1      46.375   3.602   6.955  0.00  0.00    +0.000 A 
ATOM     25  C   UNL     1      46.564   2.229   6.854  0.00  0.00    +0.000 A 
ATOM     26  C   UNL     1      46.177   1.413   7.907  0.00  0.00    +0.000 A 
ATOM     27  F   UNL     1      46.367   0.090   7.822  0.00  0.00    +0.000 F 
ATOM     28  C   UNL     1      45.597   1.947   9.055  0.00  0.00    +0.000 A 
ENDBRANCH  20  22
ENDBRANCH   1  15
TORSDOF 4
ENDMDL
MODEL 3
REMARK VINA RESULT:    -8.596      2.500      3.662
REMARK INTER + INTRA:         -11.230
REMARK INTER:                 -11.155
REMARK INTRA:                  -0.075
REMARK UNBOUND:                -0.625
REMARK  Name = 
REMARK  4 active torsions:
REMARK  status: ('A' for Active; 'I' for Inactive)
REMARK    1  A    between atoms: C_2  and  C_4
REMARK    2  A    between atoms: N_9  and  C_10
REMARK    3  A    between atoms: C_10  and  C_11
REMARK    4  A    between atoms: C_16  and  C_17
REMARK                            x       y       z     vdW  Elec       q    Type
REMARK                         _______ _______ _______ _____ _____    ______ ____
ROOT
ATOM      1  C   UNL     1      43.549   6.540  11.235  0.00  0.00    +0.000 C 
ENDROOT
BRANCH   1   7
ATOM      2  C   UNL     1      47.015   5.667  13.654  0.00  0.00    +0.000 A 
ATOM      3  C   UNL     1      48.133   6.478  13.512  0.00  0.00    +0.000 A 
ATOM      4  C   UNL     1      48.038   7.518  12.611  0.00  0.00    +0.000 A 
ATOM      5  N   UNL     1      46.932   7.791  11.876  0.00  0.00    +0.000 NA
ATOM      6  C   UNL     1      45.859   6.986  12.009  0.00  0.00    +0.000 A 
ATOM      7  N   UNL     1      44.768   7.306  11.239  0.00  0.00    +0.000 N 
ATOM      8  C   UNL     1      45.880   5.912  12.883  0.00  0.00    +0.000 A 
ATOM      9  H   UNL     1      44.870   8.133  10.665  0.00  0.00    +0.000 HD
BRANCH   2  11
ATOM     10  N   UNL     1      47.151   4.786  15.921  0.00  0.00    +0.000 N 
ATOM     11  C   UNL     1      46.974   4.520  14.591  0.00  0.00    +0.000 C 
ATOM     12  O   UNL     1      46.743   3.383  14.201  0.00  0.00    +0.000 OA
ATOM     13  H   UNL     1      46.990   4.009  16.549  0.00  0.00    +0.000 HD
ATOM     14  H   UNL     1      47.078   5.717  16.301  0.00  0.00    +0.000 HD
ENDBRANCH   2  11
ENDBRANCH   1   7
BRANCH   1  15
ATOM     15  C   UNL     1      43.810   5.069  11.034  0.00  0.00    +0.000 A 
ATOM     16  C   UNL     1      43.245   4.111  11.880  0.00  0.00    +0.000 A 
ATOM     17  C   UNL     1      43.454   2.762  11.623  0.00  0.00    +0.000 A 
ATOM     18  F   UNL     1      42.885   1.845  12.417  0.00  0.00    +0.000 F 
ATOM     19  C   UNL     1      44.226   2.342  10.543  0.00  0.00    +0.000 A 
ATOM     20  C   UNL     1      44.813   3.272   9.671  0.00  0.00    +0.000 A 
ATOM     21  C   UNL     1      44.596   4.638   9.950  0.00  0.00    +0.000 A 
BRANCH  20  22
ATOM     22  C   UNL     1      45.602   2.848   8.489  0.00  0.00    +0.000 A 
ATOM     23  C   UNL     1      45.967   3.762   7.478  0.00  0.00    +0.000 A 
ATOM     24  C   UNL     1      46.724   3.368   6.368  0.00  0.00    +0.000 A 
ATOM     25  C   UNL     1      47.146   2.049   6.250  0.00  0.00    +0.000 A 
ATOM     26  C   UNL     1      46.803   1.138   7.237  0.00  0.00    +0.000 A 
ATOM     27  F   UNL     1      47.215  -0.132   7.136  0.00  0.00    +0.000 F 
ATOM     28  C   UNL     1      46.038   1.521   8.336  0.00  0.00    +0.000 A 
ENDBRANCH  20  22
ENDBRANCH   1  15
TORSDOF 4
ENDMDL
MODEL 4
REMARK VINA RESULT:    -8.383      1.520      1.564
REMARK INTER + INTRA:         -10.968
REMARK INTER:                 -10.393
REMARK INTRA:                  -0.574
REMARK UNBOUND:                -0.625
REMARK  Name = 
REMARK  4 active torsions:
REMARK  status: ('A' for Active; 'I' for Inactive)
REMARK    1  A    between atoms: C_2  and  C_4
REMARK    2  A    between atoms: N_9  and  C_10
REMARK    3  A    between atoms: C_10  and  C_11
REMARK    4  A    between atoms: C_16  and  C_17
REMARK                            x       y       z     vdW  Elec       q    Type
REMARK                         _______ _______ _______ _____ _____    ______ ____
ROOT
ATOM      1  C   UNL     1      46.124   5.480  13.821  0.00  0.00    +0.000 C 
ENDROOT
BRANCH   1   7
ATOM      2  C   UNL     1      49.121   5.182  16.913  0.00  0.00    +0.000 A 
ATOM      3  C   UNL     1      49.054   4.105  17.786  0.00  0.00    +0.000 A 
ATOM      4  C   UNL     1      48.034   3.200  17.583  0.00  0.00    +0.000 A 
ATOM      5  N   UNL     1      47.115   3.298  16.592  0.00  0.00    +0.000 NA
ATOM      6  C   UNL     1      47.179   4.357  15.761  0.00  0.00    +0.000 A 
ATOM      7  N   UNL     1      46.221   4.408  14.777  0.00  0.00    +0.000 N 
ATOM      8  C   UNL     1      48.165   5.317  15.907  0.00  0.00    +0.000 A 
ATOM      9  H   UNL     1      45.576   3.628  14.759  0.00  0.00    +0.000 HD
BRANCH   2  11
ATOM     10  N   UNL     1      50.106   7.087  18.067  0.00  0.00    +0.000 N 
ATOM     11  C   UNL     1      50.169   6.225  17.008  0.00  0.00    +0.000 C 
ATOM     12  O   UNL     1      51.086   6.287  16.199  0.00  0.00    +0.000 OA
ATOM     13  H   UNL     1      50.901   7.704  18.180  0.00  0.00    +0.000 HD
ATOM     14  H   UNL     1      49.537   6.906  18.880  0.00  0.00    +0.000 HD
ENDBRANCH   2  11
ENDBRANCH   1   7
BRANCH   1  15
ATOM     15  C   UNL     1      45.186   5.142  12.691  0.00  0.00    +0.000 A 
ATOM     16  C   UNL     1      43.841   5.520  12.728  0.00  0.00    +0.000 A 
ATOM     17  C   UNL     1      43.024   5.250  11.638  0.00  0.00    +0.000 A 
ATOM     18  F   UNL     1      41.743   5.641  11.662  0.00  0.00    +0.000 F 
ATOM     19  C   UNL     1      43.515   4.598  10.508  0.00  0.00    +0.000 A 
ATOM     20  C   UNL     1      44.858   4.199  10.433  0.00  0.00    +0.000 A 
ATOM     21  C   UNL     1      45.673   4.476  11.551  0.00  0.00    +0.000 A 
BRANCH  20  22
ATOM     22  C   UNL     1      45.414   3.544   9.224  0.00  0.00    +0.000 A 
ATOM     23  C   UNL     1      45.852   4.294   8.113  0.00  0.00    +0.000 A 
ATOM     24  C   UNL     1      46.391   3.679   6.976  0.00  0.00    +0.000 A 
ATOM     25  C   UNL     1      46.517   2.295   6.930  0.00  0.00    +0.000 A 
ATOM     26  C   UNL     1      46.098   1.542   8.017  0.00  0.00    +0.000 A 
ATOM     27  F   UNL     1      46.227   0.209   7.985  0.00  0.00    +0.000 F 
ATOM     28  C   UNL     1      45.548   2.147   9.144  0.00  0.00    +0.000 A 
ENDBRANCH  20  22
ENDBRANCH   1  15
TORSDOF 4
ENDMDL
MODEL 5
REMARK VINA RESULT:    -7.874      2.820      3.557
REMARK INTER + INTRA:         -10.341
REMARK INTER:                  -9.454
REMARK INTRA:                  -0.886
REMARK UNBOUND:                -0.625
REMARK  Name = 
REMARK  4 active torsions:
REMARK  status: ('A' for Active; 'I' for Inactive)
REMARK    1  A    between atoms: C_2  and  C_4
REMARK    2  A    between atoms: N_9  and  C_10
REMARK    3  A    between atoms: C_10  and  C_11
REMARK    4  A    between atoms: C_16  and  C_17
REMARK                            x       y       z     vdW  Elec       q    Type
REMARK                         _______ _______ _______ _____ _____    ______ ____
ROOT
ATOM      1  C   UNL     1      48.904   7.399  13.475  0.00  0.00    +0.000 C 
ENDROOT
BRANCH   1   7
ATOM      2  C   UNL     1      48.018   4.844  16.839  0.00  0.00    +0.000 A 
ATOM      3  C   UNL     1      48.108   5.386  18.113  0.00  0.00    +0.000 A 
ATOM      4  C   UNL     1      48.462   6.715  18.202  0.00  0.00    +0.000 A 
ATOM      5  N   UNL     1      48.715   7.509  17.132  0.00  0.00    +0.000 NA
ATOM      6  C   UNL     1      48.642   6.967  15.901  0.00  0.00    +0.000 A 
ATOM      7  N   UNL     1      48.910   7.816  14.854  0.00  0.00    +0.000 N 
ATOM      8  C   UNL     1      48.305   5.636  15.728  0.00  0.00    +0.000 A 
ATOM      9  H   UNL     1      49.112   8.773  15.112  0.00  0.00    +0.000 HD
BRANCH   2  11
ATOM     10  N   UNL     1      46.908   2.799  17.562  0.00  0.00    +0.000 N 
ATOM     11  C   UNL     1      47.639   3.432  16.595  0.00  0.00    +0.000 C 
ATOM     12  O   UNL     1      47.925   2.864  15.549  0.00  0.00    +0.000 OA
ATOM     13  H   UNL     1      46.554   1.884  17.317  0.00  0.00    +0.000 HD
ATOM     14  H   UNL     1      46.435   3.300  18.299  0.00  0.00    +0.000 HD
ENDBRANCH   2  11
ENDBRANCH   1   7
BRANCH   1  15
ATOM     15  C   UNL     1      47.519   7.439  12.883  0.00  0.00    +0.000 A 
ATOM     16  C   UNL     1      46.696   8.558  13.039  0.00  0.00    +0.000 A 
ATOM     17  C   UNL     1      45.453   8.585  12.421  0.00  0.00    +0.000 A 
ATOM     18  F   UNL     1      44.679   9.672  12.546  0.00  0.00    +0.000 F 
ATOM     19  C   UNL     1      45.000   7.512  11.656  0.00  0.00    +0.000 A 
ATOM     20  C   UNL     1      45.795   6.369  11.476  0.00  0.00    +0.000 A 
ATOM     21  C   UNL     1      47.052   6.356  12.116  0.00  0.00    +0.000 A 
BRANCH  20  22
ATOM     22  C   UNL     1      45.355   5.234  10.630  0.00  0.00    +0.000 A 
ATOM     23  C   UNL     1      45.699   5.154   9.265  0.00  0.00    +0.000 A 
ATOM     24  C   UNL     1      45.297   4.076   8.467  0.00  0.00    +0.000 A 
ATOM     25  C   UNL     1      44.549   3.043   9.021  0.00  0.00    +0.000 A 
ATOM     26  C   UNL     1      44.207   3.102  10.364  0.00  0.00    +0.000 A 
ATOM     27  F   UNL     1      43.497   2.105  10.908  0.00  0.00    +0.000 F 
ATOM     28  C   UNL     1      44.592   4.179  11.159  0.00  0.00    +0.000 A 
ENDBRANCH  20  22
ENDBRANCH   1  15
TORSDOF 4
ENDMDL
MODEL 6
REMARK VINA RESULT:    -7.605      2.762      3.984
REMARK INTER + INTRA:         -10.009
REMARK INTER:                  -9.236
REMARK INTRA:                  -0.773
REMARK UNBOUND:                -0.625
REMARK  Name = 
REMARK  4 active torsions:
REMARK  status: ('A' for Active; 'I' for Inactive)
REMARK    1  A    between atoms: C_2  and  C_4
REMARK    2  A    between atoms: N_9  and  C_10
REMARK    3  A    between atoms: C_10  and  C_11
REMARK    4  A    between atoms: C_16  and  C_17
REMARK                            x       y       z     vdW  Elec       q    Type
REMARK                         _______ _______ _______ _____ _____    ______ ____
ROOT
ATOM      1  C   UNL     1      48.749   6.947  14.868  0.00  0.00    +0.000 C 
ENDROOT
BRANCH   1   7
ATOM      2  C   UNL     1      49.174   3.557  17.505  0.00  0.00    +0.000 A 
ATOM      3  C   UNL     1      48.727   3.686  18.813  0.00  0.00    +0.000 A 
ATOM      4  C   UNL     1      48.163   4.895  19.163  0.00  0.00    +0.000 A 
ATOM      5  N   UNL     1      48.017   5.941  18.313  0.00  0.00    +0.000 NA
ATOM      6  C   UNL     1      48.471   5.811  17.052  0.00  0.00    +0.000 A 
ATOM      7  N   UNL     1      48.301   6.903  16.236  0.00  0.00    +0.000 N 
ATOM      8  C   UNL     1      49.062   4.634  16.627  0.00  0.00    +0.000 A 
ATOM      9  H   UNL     1      47.826   7.690  16.658  0.00  0.00    +0.000 HD
BRANCH   2  11
ATOM     10  N   UNL     1      50.825   1.778  17.709  0.00  0.00    +0.000 N 
ATOM     11  C   UNL     1      49.792   2.312  16.990  0.00  0.00    +0.000 C 
ATOM     12  O   UNL     1      49.365   1.754  15.988  0.00  0.00    +0.000 OA
ATOM     13  H   UNL     1      51.142   0.865  17.409  0.00  0.00    +0.000 HD
ATOM     14  H   UNL     1      51.024   2.052  18.658  0.00  0.00    +0.000 HD
ENDBRANCH   2  11
ENDBRANCH   1   7
BRANCH   1  15
ATOM     15  C   UNL     1      47.616   7.224  13.914  0.00  0.00    +0.000 A 
ATOM     16  C   UNL     1      47.213   8.532  13.628  0.00  0.00    +0.000 A 
ATOM     17  C   UNL     1      46.210   8.749  12.692  0.00  0.00    +0.000 A 
ATOM     18  F   UNL     1      45.847  10.004  12.397  0.00  0.00    +0.000 F 
ATOM     19  C   UNL     1      45.587   7.689  12.038  0.00  0.00    +0.000 A 
ATOM     20  C   UNL     1      45.962   6.362  12.298  0.00  0.00    +0.000 A 
ATOM     21  C   UNL     1      46.977   6.158  13.255  0.00  0.00    +0.000 A 
BRANCH  20  22
ATOM     22  C   UNL     1      45.345   5.219  11.581  0.00  0.00    +0.000 A 
ATOM     23  C   UNL     1      44.850   4.094  12.273  0.00  0.00    +0.000 A 
ATOM     24  C   UNL     1      44.254   3.020  11.600  0.00  0.00    +0.000 A 
ATOM     25  C   UNL     1      44.128   3.053  10.216  0.00  0.00    +0.000 A 
ATOM     26  C   UNL     1      44.602   4.154   9.520  0.00  0.00    +0.000 A 
ATOM     27  F   UNL     1      44.474   4.198   8.187  0.00  0.00    +0.000 F 
ATOM     28  C   UNL     1      45.209   5.219  10.182  0.00  0.00    +0.000 A 
ENDBRANCH  20  22
ENDBRANCH   1  15
TORSDOF 4
ENDMDL
MODEL 7
REMARK VINA RESULT:    -7.582      4.375      8.219
REMARK INTER + INTRA:          -9.980
REMARK INTER:                  -9.096
REMARK INTRA:                  -0.883
REMARK UNBOUND:                -0.625
REMARK  Name = 
REMARK  4 active torsions:
REMARK  status: ('A' for Active; 'I' for Inactive)
REMARK    1  A    between atoms: C_2  and  C_4
REMARK    2  A    between atoms: N_9  and  C_10
REMARK    3  A    between atoms: C_10  and  C_11
REMARK    4  A    between atoms: C_16  and  C_17
REMARK                            x       y       z     vdW  Elec       q    Type
REMARK                         _______ _______ _______ _____ _____    ______ ____
ROOT
ATOM      1  C   UNL     1      45.162   6.709  11.338  0.00  0.00    +0.000 C 
ENDROOT
BRANCH   1   7
ATOM      2  C   UNL     1      45.449   3.264   8.753  0.00  0.00    +0.000 A 
ATOM      3  C   UNL     1      44.749   2.119   9.109  0.00  0.00    +0.000 A 
ATOM      4  C   UNL     1      43.998   2.182  10.263  0.00  0.00    +0.000 A 
ATOM      5  N   UNL     1      43.902   3.281  11.051  0.00  0.00    +0.000 NA
ATOM      6  C   UNL     1      44.600   4.380  10.706  0.00  0.00    +0.000 A 
ATOM      7  N   UNL     1      44.468   5.463  11.541  0.00  0.00    +0.000 N 
ATOM      8  C   UNL     1      45.388   4.394   9.568  0.00  0.00    +0.000 A 
ATOM      9  H   UNL     1      43.838   5.335  12.321  0.00  0.00    +0.000 HD
BRANCH   2  11
ATOM     10  N   UNL     1      46.846   2.180   7.077  0.00  0.00    +0.000 N 
ATOM     11  C   UNL     1      46.288   3.342   7.534  0.00  0.00    +0.000 C 
ATOM     12  O   UNL     1      46.439   4.395   6.927  0.00  0.00    +0.000 OA
ATOM     13  H   UNL     1      47.304   2.237   6.176  0.00  0.00    +0.000 HD
ATOM     14  H   UNL     1      46.534   1.272   7.385  0.00  0.00    +0.000 HD
ENDBRANCH   2  11
ENDBRANCH   1   7
BRANCH   1  15
ATOM     15  C   UNL     1      46.508   6.720  12.017  0.00  0.00    +0.000 A 
ATOM     16  C   UNL     1      47.613   7.336  11.424  0.00  0.00    +0.000 A 
ATOM     17  C   UNL     1      48.819   7.384  12.110  0.00  0.00    +0.000 A 
ATOM     18  F   UNL     1      49.869   8.003  11.553  0.00  0.00    +0.000 F 
ATOM     19  C   UNL     1      48.956   6.821  13.377  0.00  0.00    +0.000 A 
ATOM     20  C   UNL     1      47.870   6.191  14.006  0.00  0.00    +0.000 A 
ATOM     21  C   UNL     1      46.654   6.145  13.293  0.00  0.00    +0.000 A 
BRANCH  20  22
ATOM     22  C   UNL     1      47.978   5.624  15.372  0.00  0.00    +0.000 A 
ATOM     23  C   UNL     1      48.755   6.246  16.371  0.00  0.00    +0.000 A 
ATOM     24  C   UNL     1      48.847   5.720  17.665  0.00  0.00    +0.000 A 
ATOM     25  C   UNL     1      48.152   4.563  17.995  0.00  0.00    +0.000 A 
ATOM     26  C   UNL     1      47.377   3.940  17.027  0.00  0.00    +0.000 A 
ATOM     27  F   UNL     1      46.695   2.831  17.340  0.00  0.00    +0.000 F 
ATOM     28  C   UNL     1      47.293   4.451  15.734  0.00  0.00    +0.000 A 
ENDBRANCH  20  22
ENDBRANCH   1  15
TORSDOF 4
ENDMDL
MODEL 8
REMARK VINA RESULT:    -7.418      4.188      7.915
REMARK INTER + INTRA:          -9.778
REMARK INTER:                  -8.869
REMARK INTRA:                  -0.909
REMARK UNBOUND:                -0.625
REMARK  Name = 
REMARK  4 active torsions:
REMARK  status: ('A' for Active; 'I' for Inactive)
REMARK    1  A    between atoms: C_2  and  C_4
REMARK    2  A    between atoms: N_9  and  C_10
REMARK    3  A    between atoms: C_10  and  C_11
REMARK    4  A    between atoms: C_16  and  C_17
REMARK                            x       y       z     vdW  Elec       q    Type
REMARK                         _______ _______ _______ _____ _____    ______ ____
ROOT
ATOM      1  C   UNL     1      45.773   7.085  11.410  0.00  0.00    +0.000 C 
ENDROOT
BRANCH   1   7
ATOM      2  C   UNL     1      44.250   3.139  10.549  0.00  0.00    +0.000 A 
ATOM      3  C   UNL     1      44.424   2.636   9.267  0.00  0.00    +0.000 A 
ATOM      4  C   UNL     1      45.091   3.441   8.368  0.00  0.00    +0.000 A 
ATOM      5  N   UNL     1      45.583   4.669   8.663  0.00  0.00    +0.000 NA
ATOM      6  C   UNL     1      45.392   5.154   9.905  0.00  0.00    +0.000 A 
ATOM      7  N   UNL     1      45.908   6.404  10.148  0.00  0.00    +0.000 N 
ATOM      8  C   UNL     1      44.720   4.414  10.862  0.00  0.00    +0.000 A 
ATOM      9  H   UNL     1      46.404   6.826   9.374  0.00  0.00    +0.000 HD
BRANCH   2  11
ATOM     10  N   UNL     1      43.856   2.706  12.914  0.00  0.00    +0.000 N 
ATOM     11  C   UNL     1      43.560   2.380  11.619  0.00  0.00    +0.000 C 
ATOM     12  O   UNL     1      42.721   1.527  11.360  0.00  0.00    +0.000 OA
ATOM     13  H   UNL     1      43.280   2.266  13.620  0.00  0.00    +0.000 HD
ATOM     14  H   UNL     1      44.327   3.562  13.163  0.00  0.00    +0.000 HD
ENDBRANCH   2  11
ENDBRANCH   1   7
BRANCH   1  15
ATOM     15  C   UNL     1      47.053   7.051  12.206  0.00  0.00    +0.000 A 
ATOM     16  C   UNL     1      48.203   7.707  11.757  0.00  0.00    +0.000 A 
ATOM     17  C   UNL     1      49.342   7.710  12.550  0.00  0.00    +0.000 A 
ATOM     18  F   UNL     1      50.433   8.366  12.132  0.00  0.00    +0.000 F 
ATOM     19  C   UNL     1      49.369   7.062  13.783  0.00  0.00    +0.000 A 
ATOM     20  C   UNL     1      48.236   6.391  14.269  0.00  0.00    +0.000 A 
ATOM     21  C   UNL     1      47.089   6.392  13.448  0.00  0.00    +0.000 A 
BRANCH  20  22
ATOM     22  C   UNL     1      48.226   5.732  15.597  0.00  0.00    +0.000 A 
ATOM     23  C   UNL     1      48.977   6.238  16.678  0.00  0.00    +0.000 A 
ATOM     24  C   UNL     1      48.958   5.627  17.938  0.00  0.00    +0.000 A 
ATOM     25  C   UNL     1      48.174   4.499  18.149  0.00  0.00    +0.000 A 
ATOM     26  C   UNL     1      47.423   3.991  17.100  0.00  0.00    +0.000 A 
ATOM     27  F   UNL     1      46.656   2.910  17.299  0.00  0.00    +0.000 F 
ATOM     28  C   UNL     1      47.449   4.586  15.841  0.00  0.00    +0.000 A 
ENDBRANCH  20  22
ENDBRANCH   1  15
TORSDOF 4
ENDMDL
MODEL 9
REMARK VINA RESULT:    -7.301      4.456      8.484
REMARK INTER + INTRA:          -9.634
REMARK INTER:                  -8.821
REMARK INTRA:                  -0.812
REMARK UNBOUND:                -0.625
REMARK  Name = 
REMARK  4 active torsions:
REMARK  status: ('A' for Active; 'I' for Inactive)
REMARK    1  A    between atoms: C_2  and  C_4
REMARK    2  A    between atoms: N_9  and  C_10
REMARK    3  A    between atoms: C_10  and  C_11
REMARK    4  A    between atoms: C_16  and  C_17
REMARK                            x       y       z     vdW  Elec       q    Type
REMARK                         _______ _______ _______ _____ _____    ______ ____
ROOT
ATOM      1  C   UNL     1      46.943   7.532  12.605  0.00  0.00    +0.000 C 
ENDROOT
BRANCH   1   7
ATOM      2  C   UNL     1      44.614   4.689  10.341  0.00  0.00    +0.000 A 
ATOM      3  C   UNL     1      43.493   4.135  10.943  0.00  0.00    +0.000 A 
ATOM      4  C   UNL     1      43.203   4.554  12.225  0.00  0.00    +0.000 A 
ATOM      5  N   UNL     1      43.934   5.465  12.912  0.00  0.00    +0.000 NA
ATOM      6  C   UNL     1      45.030   5.983  12.324  0.00  0.00    +0.000 A 
ATOM      7  N   UNL     1      45.735   6.899  13.066  0.00  0.00    +0.000 N 
ATOM      8  C   UNL     1      45.396   5.604  11.044  0.00  0.00    +0.000 A 
ATOM      9  H   UNL     1      45.345   7.113  13.975  0.00  0.00    +0.000 HD
BRANCH   2  11
ATOM     10  N   UNL     1      44.344   3.350   8.324  0.00  0.00    +0.000 N 
ATOM     11  C   UNL     1      45.038   4.338   8.965  0.00  0.00    +0.000 C 
ATOM     12  O   UNL     1      45.943   4.940   8.401  0.00  0.00    +0.000 OA
ATOM     13  H   UNL     1      44.568   3.219   7.346  0.00  0.00    +0.000 HD
ATOM     14  H   UNL     1      43.445   3.024   8.644  0.00  0.00    +0.000 HD
ENDBRANCH   2  11
ENDBRANCH   1   7
BRANCH   1  15
ATOM     15  C   UNL     1      48.072   7.374  13.591  0.00  0.00    +0.000 A 
ATOM     16  C   UNL     1      49.197   8.202  13.542  0.00  0.00    +0.000 A 
ATOM     17  C   UNL     1      50.185   8.071  14.509  0.00  0.00    +0.000 A 
ATOM     18  F   UNL     1      51.247   8.887  14.479  0.00  0.00    +0.000 F 
ATOM     19  C   UNL     1      50.085   7.122  15.524  0.00  0.00    +0.000 A 
ATOM     20  C   UNL     1      48.973   6.270  15.607  0.00  0.00    +0.000 A 
ATOM     21  C   UNL     1      47.981   6.412  14.613  0.00  0.00    +0.000 A 
BRANCH  20  22
ATOM     22  C   UNL     1      48.822   5.283  16.703  0.00  0.00    +0.000 A 
ATOM     23  C   UNL     1      49.647   5.317  17.846  0.00  0.00    +0.000 A 
ATOM     24  C   UNL     1      49.497   4.395  18.889  0.00  0.00    +0.000 A 
ATOM     25  C   UNL     1      48.507   3.422  18.818  0.00  0.00    +0.000 A 
ATOM     26  C   UNL     1      47.681   3.378  17.705  0.00  0.00    +0.000 A 
ATOM     27  F   UNL     1      46.717   2.450  17.634  0.00  0.00    +0.000 F 
ATOM     28  C   UNL     1      47.835   4.283  16.657  0.00  0.00    +0.000 A 
ENDBRANCH  20  22
ENDBRANCH   1  15
TORSDOF 4
ENDMDL
