MODEL 1
REMARK VINA RESULT:    -8.474      0.000      0.000
REMARK INTER + INTRA:         -12.172
REMARK INTER:                 -11.447
REMARK INTRA:                  -0.725
REMARK UNBOUND:                -0.725
REMARK  Name = 
REMARK  6 active torsions:
REMARK  status: ('A' for Active; 'I' for Inactive)
REMARK    1  A    between atoms: C_2  and  C_25
REMARK    2  A    between atoms: N_3  and  C_4
REMARK    3  A    between atoms: C_4  and  C_5
REMARK    4  A    between atoms: C_8  and  C_9
REMARK    5  A    between atoms: C_9  and  N_10
REMARK    6  A    between atoms: C_11  and  C_13
REMARK                            x       y       z     vdW  Elec       q    Type
REMARK                         _______ _______ _______ _____ _____    ______ ____
ROOT
ATOM      1  C   UNL     1      44.565   5.469  11.349  0.00  0.00    +0.000 A 
ATOM      2  C   UNL     1      45.615   4.907  12.077  0.00  0.00    +0.000 A 
ATOM      3  C   UNL     1      46.464   5.727  12.817  0.00  0.00    +0.000 A 
ATOM      4  C   UNL     1      46.264   7.104  12.787  0.00  0.00    +0.000 A 
ATOM      5  N   UNL     1      45.251   7.674  12.086  0.00  0.00    +0.000 NA
ATOM      6  C   UNL     1      44.430   6.852  11.393  0.00  0.00    +0.000 A 
ENDROOT
BRANCH   1   7
ATOM      7  C   UNL     1      43.638   4.625  10.528  0.00  0.00    +0.000 C 
BRANCH   7  10
ATOM      8  O   UNL     1      45.440   5.164   8.463  0.00  0.00    +0.000 OA
ATOM      9  C   UNL     1      45.233   3.999   8.777  0.00  0.00    +0.000 C 
ATOM     10  N   UNL     1      44.358   3.623   9.774  0.00  0.00    +0.000 N 
ATOM     11  H   UNL     1      44.385   2.678  10.134  0.00  0.00    +0.000 HD
BRANCH   9  12
ATOM     12  C   UNL     1      45.961   2.903   8.104  0.00  0.00    +0.000 A 
ATOM     13  C   UNL     1      46.810   3.119   7.016  0.00  0.00    +0.000 A 
ATOM     14  C   UNL     1      47.455   2.032   6.428  0.00  0.00    +0.000 A 
ATOM     15  C   UNL     1      47.231   0.768   6.955  0.00  0.00    +0.000 A 
ATOM     16  N   UNL     1      46.430   0.529   8.016  0.00  0.00    +0.000 NA
ATOM     17  C   UNL     1      45.820   1.604   8.576  0.00  0.00    +0.000 A 
ENDBRANCH   9  12
ENDBRANCH   7  10
ENDBRANCH   1   7
BRANCH   4  18
ATOM     18  C   UNL     1      47.186   8.023  13.551  0.00  0.00    +0.000 C 
BRANCH  18  19
ATOM     19  N   UNL     1      47.701   7.419  14.757  0.00  0.00    +0.000 N 
ATOM     20  C   UNL     1      48.988   6.971  14.876  0.00  0.00    +0.000 C 
ATOM     21  O   UNL     1      49.789   7.034  13.946  0.00  0.00    +0.000 OA
ATOM     22  H   UNL     1      47.005   7.153  15.448  0.00  0.00    +0.000 HD
BRANCH  20  23
ATOM     23  C   UNL     1      49.389   6.481  16.201  0.00  0.00    +0.000 A 
ATOM     24  C   UNL     1      50.376   7.148  16.915  0.00  0.00    +0.000 A 
ATOM     25  S   UNL     1      50.692   6.470  18.447  0.00  0.00    +0.000 S 
ATOM     26  C   UNL     1      49.553   5.233  18.195  0.00  0.00    +0.000 A 
ATOM     27  N   UNL     1      49.347   4.269  19.133  0.00  0.00    +0.000 NA
ATOM     28  C   UNL     1      48.478   3.373  18.800  0.00  0.00    +0.000 A 
ATOM     29  N   UNL     1      47.788   3.362  17.613  0.00  0.00    +0.000 N 
ATOM     30  C   UNL     1      47.920   4.346  16.665  0.00  0.00    +0.000 A 
ATOM     31  O   UNL     1      47.214   4.358  15.663  0.00  0.00    +0.000 OA
ATOM     32  C   UNL     1      48.918   5.353  16.972  0.00  0.00    +0.000 A 
ATOM     33  H   UNL     1      47.102   2.647  17.421  0.00  0.00    +0.000 HD
ENDBRANCH  20  23
ENDBRANCH  18  19
ENDBRANCH   4  18
TORSDOF 6
ENDMDL
MODEL 2
REMARK VINA RESULT:    -8.181      1.905      2.260
REMARK INTER + INTRA:         -11.776
REMARK INTER:                 -10.834
REMARK INTRA:                  -0.942
REMARK UNBOUND:                -0.725
REMARK  Name = 
REMARK  6 active torsions:
REMARK  status: ('A' for Active; 'I' for Inactive)
REMARK    1  A    between atoms: C_2  and  C_25
REMARK    2  A    between atoms: N_3  and  C_4
REMARK    3  A    between atoms: C_4  and  C_5
REMARK    4  A    between atoms: C_8  and  C_9
REMARK    5  A    between atoms: C_9  and  N_10
REMARK    6  A    between atoms: C_11  and  C_13
REMARK                            x       y       z     vdW  Elec       q    Type
REMARK                         _______ _______ _______ _____ _____    ______ ____
ROOT
ATOM      1  C   UNL     1      45.568   4.388  12.558  0.00  0.00    +0.000 A 
ATOM      2  C   UNL     1      45.328   5.760  12.460  0.00  0.00    +0.000 A 
ATOM      3  C   UNL     1      46.163   6.659  13.122  0.00  0.00    +0.000 A 
ATOM      4  C   UNL     1      47.204   6.163  13.900  0.00  0.00    +0.000 A 
ATOM      5  N   UNL     1      47.456   4.833  14.012  0.00  0.00    +0.000 NA
ATOM      6  C   UNL     1      46.643   3.985  13.341  0.00  0.00    +0.000 A 
ENDROOT
BRANCH   1   7
ATOM      7  C   UNL     1      44.687   3.387  11.874  0.00  0.00    +0.000 C 
BRANCH   7  10
ATOM      8  O   UNL     1      44.236   4.338   9.287  0.00  0.00    +0.000 OA
ATOM      9  C   UNL     1      45.019   3.410   9.448  0.00  0.00    +0.000 C 
ATOM     10  N   UNL     1      45.306   2.860  10.679  0.00  0.00    +0.000 N 
ATOM     11  H   UNL     1      46.108   2.252  10.781  0.00  0.00    +0.000 HD
BRANCH   9  12
ATOM     12  C   UNL     1      45.746   2.838   8.295  0.00  0.00    +0.000 A 
ATOM     13  C   UNL     1      46.050   3.581   7.151  0.00  0.00    +0.000 A 
ATOM     14  C   UNL     1      46.730   2.969   6.101  0.00  0.00    +0.000 A 
ATOM     15  C   UNL     1      47.087   1.635   6.235  0.00  0.00    +0.000 A 
ATOM     16  N   UNL     1      46.823   0.894   7.334  0.00  0.00    +0.000 NA
ATOM     17  C   UNL     1      46.167   1.516   8.347  0.00  0.00    +0.000 A 
ENDBRANCH   9  12
ENDBRANCH   7  10
ENDBRANCH   1   7
BRANCH   4  18
ATOM     18  C   UNL     1      48.105   7.109  14.657  0.00  0.00    +0.000 C 
BRANCH  18  19
ATOM     19  N   UNL     1      49.200   6.432  15.312  0.00  0.00    +0.000 N 
ATOM     20  C   UNL     1      49.212   6.157  16.652  0.00  0.00    +0.000 C 
ATOM     21  O   UNL     1      48.292   6.494  17.395  0.00  0.00    +0.000 OA
ATOM     22  H   UNL     1      50.055   6.351  14.769  0.00  0.00    +0.000 HD
BRANCH  20  23
ATOM     23  C   UNL     1      50.347   5.368  17.147  0.00  0.00    +0.000 A 
ATOM     24  C   UNL     1      51.478   6.014  17.629  0.00  0.00    +0.000 A 
ATOM     25  S   UNL     1      52.684   4.951  18.199  0.00  0.00    +0.000 S 
ATOM     26  C   UNL     1      51.759   3.588  17.780  0.00  0.00    +0.000 A 
ATOM     27  N   UNL     1      52.235   2.329  17.980  0.00  0.00    +0.000 NA
ATOM     28  C   UNL     1      51.443   1.387  17.588  0.00  0.00    +0.000 A 
ATOM     29  N   UNL     1      50.208   1.594  17.024  0.00  0.00    +0.000 N 
ATOM     30  C   UNL     1      49.663   2.843  16.859  0.00  0.00    +0.000 A 
ATOM     31  O   UNL     1      48.518   2.984  16.446  0.00  0.00    +0.000 OA
ATOM     32  C   UNL     1      50.532   3.939  17.242  0.00  0.00    +0.000 A 
ATOM     33  H   UNL     1      49.624   0.814  16.761  0.00  0.00    +0.000 HD
ENDBRANCH  20  23
ENDBRANCH  18  19
ENDBRANCH   4  18
TORSDOF 6
ENDMDL
MODEL 3
REMARK VINA RESULT:    -7.598      4.828      9.492
REMARK INTER + INTRA:         -10.989
REMARK INTER:                 -10.135
REMARK INTRA:                  -0.854
REMARK UNBOUND:                -0.725
REMARK  Name = 
REMARK  6 active torsions:
REMARK  status: ('A' for Active; 'I' for Inactive)
REMARK    1  A    between atoms: C_2  and  C_25
REMARK    2  A    between atoms: N_3  and  C_4
REMARK    3  A    between atoms: C_4  and  C_5
REMARK    4  A    between atoms: C_8  and  C_9
REMARK    5  A    between atoms: C_9  and  N_10
REMARK    6  A    between atoms: C_11  and  C_13
REMARK                            x       y       z     vdW  Elec       q    Type
REMARK                         _______ _______ _______ _____ _____    ______ ____
ROOT
ATOM      1  C   UNL     1      51.291   3.301  17.677  0.00  0.00    +0.000 A 
ATOM      2  C   UNL     1      50.625   2.161  17.224  0.00  0.00    +0.000 A 
ATOM      3  C   UNL     1      49.263   2.223  16.934  0.00  0.00    +0.000 A 
ATOM      4  C   UNL     1      48.586   3.422  17.135  0.00  0.00    +0.000 A 
ATOM      5  N   UNL     1      49.212   4.543  17.576  0.00  0.00    +0.000 NA
ATOM      6  C   UNL     1      50.538   4.459  17.830  0.00  0.00    +0.000 A 
ENDROOT
BRANCH   1   7
ATOM      7  C   UNL     1      52.751   3.274  18.016  0.00  0.00    +0.000 C 
BRANCH   7  10
ATOM      8  O   UNL     1      54.185   1.554  19.685  0.00  0.00    +0.000 OA
ATOM      9  C   UNL     1      54.053   1.258  18.504  0.00  0.00    +0.000 C 
ATOM     10  N   UNL     1      53.373   2.039  17.594  0.00  0.00    +0.000 N 
ATOM     11  H   UNL     1      53.112   1.652  16.698  0.00  0.00    +0.000 HD
BRANCH   9  12
ATOM     12  C   UNL     1      54.605  -0.012  17.986  0.00  0.00    +0.000 A 
ATOM     13  C   UNL     1      54.712  -0.286  16.621  0.00  0.00    +0.000 A 
ATOM     14  C   UNL     1      55.234  -1.511  16.211  0.00  0.00    +0.000 A 
ATOM     15  C   UNL     1      55.635  -2.416  17.183  0.00  0.00    +0.000 A 
ATOM     16  N   UNL     1      55.560  -2.174  18.509  0.00  0.00    +0.000 NA
ATOM     17  C   UNL     1      55.056  -0.971  18.884  0.00  0.00    +0.000 A 
ENDBRANCH   9  12
ENDBRANCH   7  10
ENDBRANCH   1   7
BRANCH   4  18
ATOM     18  C   UNL     1      47.104   3.513  16.862  0.00  0.00    +0.000 C 
BRANCH  18  19
ATOM     19  N   UNL     1      46.785   4.472  15.831  0.00  0.00    +0.000 N 
ATOM     20  C   UNL     1      46.856   4.181  14.496  0.00  0.00    +0.000 C 
ATOM     21  O   UNL     1      47.221   3.082  14.085  0.00  0.00    +0.000 OA
ATOM     22  H   UNL     1      46.705   5.437  16.137  0.00  0.00    +0.000 HD
BRANCH  20  23
ATOM     23  C   UNL     1      46.397   5.229  13.574  0.00  0.00    +0.000 A 
ATOM     24  C   UNL     1      47.249   6.272  13.236  0.00  0.00    +0.000 A 
ATOM     25  S   UNL     1      46.573   7.379  12.128  0.00  0.00    +0.000 S 
ATOM     26  C   UNL     1      45.100   6.530  12.095  0.00  0.00    +0.000 A 
ATOM     27  N   UNL     1      44.053   6.972  11.347  0.00  0.00    +0.000 NA
ATOM     28  C   UNL     1      42.986   6.251  11.438  0.00  0.00    +0.000 A 
ATOM     29  N   UNL     1      42.877   5.116  12.204  0.00  0.00    +0.000 N 
ATOM     30  C   UNL     1      43.925   4.601  12.926  0.00  0.00    +0.000 A 
ATOM     31  O   UNL     1      43.820   3.532  13.518  0.00  0.00    +0.000 OA
ATOM     32  C   UNL     1      45.134   5.400  12.893  0.00  0.00    +0.000 A 
ATOM     33  H   UNL     1      42.022   4.581  12.214  0.00  0.00    +0.000 HD
ENDBRANCH  20  23
ENDBRANCH  18  19
ENDBRANCH   4  18
TORSDOF 6
ENDMDL
MODEL 4
REMARK VINA RESULT:    -7.460      2.226      3.029
REMARK INTER + INTRA:         -10.802
REMARK INTER:                  -9.902
REMARK INTRA:                  -0.900
REMARK UNBOUND:                -0.725
REMARK  Name = 
REMARK  6 active torsions:
REMARK  status: ('A' for Active; 'I' for Inactive)
REMARK    1  A    between atoms: C_2  and  C_25
REMARK    2  A    between atoms: N_3  and  C_4
REMARK    3  A    between atoms: C_4  and  C_5
REMARK    4  A    between atoms: C_8  and  C_9
REMARK    5  A    between atoms: C_9  and  N_10
REMARK    6  A    between atoms: C_11  and  C_13
REMARK                            x       y       z     vdW  Elec       q    Type
REMARK                         _______ _______ _______ _____ _____    ______ ____
ROOT
ATOM      1  C   UNL     1      45.074   3.839  12.200  0.00  0.00    +0.000 A 
ATOM      2  C   UNL     1      44.761   5.186  12.389  0.00  0.00    +0.000 A 
ATOM      3  C   UNL     1      45.537   5.965  13.245  0.00  0.00    +0.000 A 
ATOM      4  C   UNL     1      46.596   5.369  13.923  0.00  0.00    +0.000 A 
ATOM      5  N   UNL     1      46.919   4.061  13.756  0.00  0.00    +0.000 NA
ATOM      6  C   UNL     1      46.161   3.334  12.904  0.00  0.00    +0.000 A 
ENDROOT
BRANCH   1   7
ATOM      7  C   UNL     1      44.257   2.962  11.301  0.00  0.00    +0.000 C 
BRANCH   7  10
ATOM      8  O   UNL     1      44.384   4.253   8.827  0.00  0.00    +0.000 OA
ATOM      9  C   UNL     1      45.023   3.221   8.989  0.00  0.00    +0.000 C 
ATOM     10  N   UNL     1      45.024   2.501  10.165  0.00  0.00    +0.000 N 
ATOM     11  H   UNL     1      45.725   1.789  10.316  0.00  0.00    +0.000 HD
BRANCH   9  12
ATOM     12  C   UNL     1      45.883   2.697   7.906  0.00  0.00    +0.000 A 
ATOM     13  C   UNL     1      46.209   3.447   6.774  0.00  0.00    +0.000 A 
ATOM     14  C   UNL     1      47.018   2.880   5.791  0.00  0.00    +0.000 A 
ATOM     15  C   UNL     1      47.475   1.584   5.979  0.00  0.00    +0.000 A 
ATOM     16  N   UNL     1      47.192   0.840   7.070  0.00  0.00    +0.000 NA
ATOM     17  C   UNL     1      46.410   1.417   8.018  0.00  0.00    +0.000 A 
ENDBRANCH   9  12
ENDBRANCH   7  10
ENDBRANCH   1   7
BRANCH   4  18
ATOM     18  C   UNL     1      47.435   6.178  14.883  0.00  0.00    +0.000 C 
BRANCH  18  19
ATOM     19  N   UNL     1      48.501   5.406  15.478  0.00  0.00    +0.000 N 
ATOM     20  C   UNL     1      48.347   4.692  16.635  0.00  0.00    +0.000 C 
ATOM     21  O   UNL     1      47.289   4.682  17.260  0.00  0.00    +0.000 OA
ATOM     22  H   UNL     1      49.431   5.583  15.110  0.00  0.00    +0.000 HD
BRANCH  20  23
ATOM     23  C   UNL     1      49.493   3.873  17.053  0.00  0.00    +0.000 A 
ATOM     24  C   UNL     1      49.381   2.489  17.072  0.00  0.00    +0.000 A 
ATOM     25  S   UNL     1      50.813   1.691  17.544  0.00  0.00    +0.000 S 
ATOM     26  C   UNL     1      51.621   3.168  17.785  0.00  0.00    +0.000 A 
ATOM     27  N   UNL     1      52.906   3.199  18.230  0.00  0.00    +0.000 NA
ATOM     28  C   UNL     1      53.387   4.386  18.399  0.00  0.00    +0.000 A 
ATOM     29  N   UNL     1      52.698   5.547  18.150  0.00  0.00    +0.000 N 
ATOM     30  C   UNL     1      51.422   5.563  17.644  0.00  0.00    +0.000 A 
ATOM     31  O   UNL     1      50.876   6.617  17.339  0.00  0.00    +0.000 OA
ATOM     32  C   UNL     1      50.820   4.254  17.478  0.00  0.00    +0.000 A 
ATOM     33  H   UNL     1      53.139   6.446  18.279  0.00  0.00    +0.000 HD
ENDBRANCH  20  23
ENDBRANCH  18  19
ENDBRANCH   4  18
TORSDOF 6
ENDMDL
MODEL 5
REMARK VINA RESULT:    -7.329      2.065      2.744
REMARK INTER + INTRA:         -10.625
REMARK INTER:                  -9.941
REMARK INTRA:                  -0.684
REMARK UNBOUND:                -0.725
REMARK  Name = 
REMARK  6 active torsions:
REMARK  status: ('A' for Active; 'I' for Inactive)
REMARK    1  A    between atoms: C_2  and  C_25
REMARK    2  A    between atoms: N_3  and  C_4
REMARK    3  A    between atoms: C_4  and  C_5
REMARK    4  A    between atoms: C_8  and  C_9
REMARK    5  A    between atoms: C_9  and  N_10
REMARK    6  A    between atoms: C_11  and  C_13
REMARK                            x       y       z     vdW  Elec       q    Type
REMARK                         _______ _______ _______ _____ _____    ______ ____
ROOT
ATOM      1  C   UNL     1      44.696   5.526  10.798  0.00  0.00    +0.000 A 
ATOM      2  C   UNL     1      46.017   5.916  10.571  0.00  0.00    +0.000 A 
ATOM      3  C   UNL     1      46.678   6.707  11.508  0.00  0.00    +0.000 A 
ATOM      4  C   UNL     1      45.989   7.123  12.643  0.00  0.00    +0.000 A 
ATOM      5  N   UNL     1      44.704   6.758  12.886  0.00  0.00    +0.000 NA
ATOM      6  C   UNL     1      44.095   5.972  11.969  0.00  0.00    +0.000 A 
ENDROOT
BRANCH   1   7
ATOM      7  C   UNL     1      43.944   4.688   9.809  0.00  0.00    +0.000 C 
BRANCH   7  10
ATOM      8  O   UNL     1      45.346   2.274   9.709  0.00  0.00    +0.000 OA
ATOM      9  C   UNL     1      45.432   3.048   8.764  0.00  0.00    +0.000 C 
ATOM     10  N   UNL     1      44.789   4.267   8.715  0.00  0.00    +0.000 N 
ATOM     11  H   UNL     1      44.720   4.762   7.836  0.00  0.00    +0.000 HD
BRANCH   9  12
ATOM     12  C   UNL     1      46.227   2.684   7.572  0.00  0.00    +0.000 A 
ATOM     13  C   UNL     1      46.316   3.506   6.446  0.00  0.00    +0.000 A 
ATOM     14  C   UNL     1      47.079   3.090   5.357  0.00  0.00    +0.000 A 
ATOM     15  C   UNL     1      47.730   1.867   5.436  0.00  0.00    +0.000 A 
ATOM     16  N   UNL     1      47.678   1.058   6.517  0.00  0.00    +0.000 NA
ATOM     17  C   UNL     1      46.936   1.490   7.568  0.00  0.00    +0.000 A 
ENDBRANCH   9  12
ENDBRANCH   7  10
ENDBRANCH   1   7
BRANCH   4  18
ATOM     18  C   UNL     1      46.666   8.009  13.662  0.00  0.00    +0.000 C 
BRANCH  18  19
ATOM     19  N   UNL     1      47.625   7.295  14.472  0.00  0.00    +0.000 N 
ATOM     20  C   UNL     1      48.611   7.920  15.185  0.00  0.00    +0.000 C 
ATOM     21  O   UNL     1      48.759   9.140  15.161  0.00  0.00    +0.000 OA
ATOM     22  H   UNL     1      47.663   6.290  14.326  0.00  0.00    +0.000 HD
BRANCH  20  23
ATOM     23  C   UNL     1      49.438   7.064  16.044  0.00  0.00    +0.000 A 
ATOM     24  C   UNL     1      48.838   6.281  17.022  0.00  0.00    +0.000 A 
ATOM     25  S   UNL     1      49.937   5.319  17.902  0.00  0.00    +0.000 S 
ATOM     26  C   UNL     1      51.262   5.948  17.041  0.00  0.00    +0.000 A 
ATOM     27  N   UNL     1      52.533   5.558  17.327  0.00  0.00    +0.000 NA
ATOM     28  C   UNL     1      53.445   6.137  16.619  0.00  0.00    +0.000 A 
ATOM     29  N   UNL     1      53.195   7.066  15.639  0.00  0.00    +0.000 N 
ATOM     30  C   UNL     1      51.927   7.444  15.276  0.00  0.00    +0.000 A 
ATOM     31  O   UNL     1      51.738   8.200  14.329  0.00  0.00    +0.000 OA
ATOM     32  C   UNL     1      50.868   6.856  16.073  0.00  0.00    +0.000 A 
ATOM     33  H   UNL     1      53.951   7.465  15.102  0.00  0.00    +0.000 HD
ENDBRANCH  20  23
ENDBRANCH  18  19
ENDBRANCH   4  18
TORSDOF 6
ENDMDL
MODEL 6
REMARK VINA RESULT:    -7.213      3.413      3.743
REMARK INTER + INTRA:         -10.469
REMARK INTER:                  -9.908
REMARK INTRA:                  -0.561
REMARK UNBOUND:                -0.725
REMARK  Name = 
REMARK  6 active torsions:
REMARK  status: ('A' for Active; 'I' for Inactive)
REMARK    1  A    between atoms: C_2  and  C_25
REMARK    2  A    between atoms: N_3  and  C_4
REMARK    3  A    between atoms: C_4  and  C_5
REMARK    4  A    between atoms: C_8  and  C_9
REMARK    5  A    between atoms: C_9  and  N_10
REMARK    6  A    between atoms: C_11  and  C_13
REMARK                            x       y       z     vdW  Elec       q    Type
REMARK                         _______ _______ _______ _____ _____    ______ ____
ROOT
ATOM      1  C   UNL     1      44.683   4.509  11.541  0.00  0.00    +0.000 A 
ATOM      2  C   UNL     1      45.576   5.341  10.864  0.00  0.00    +0.000 A 
ATOM      3  C   UNL     1      45.846   6.617  11.357  0.00  0.00    +0.000 A 
ATOM      4  C   UNL     1      45.186   7.049  12.504  0.00  0.00    +0.000 A 
ATOM      5  N   UNL     1      44.313   6.258  13.178  0.00  0.00    +0.000 NA
ATOM      6  C   UNL     1      44.086   5.018  12.689  0.00  0.00    +0.000 A 
ENDROOT
BRANCH   1   7
ATOM      7  C   UNL     1      44.354   3.137  11.038  0.00  0.00    +0.000 C 
BRANCH   7  10
ATOM      8  O   UNL     1      44.046   3.758   8.332  0.00  0.00    +0.000 OA
ATOM      9  C   UNL     1      45.014   3.093   8.680  0.00  0.00    +0.000 C 
ATOM     10  N   UNL     1      45.256   2.724   9.986  0.00  0.00    +0.000 N 
ATOM     11  H   UNL     1      46.165   2.368  10.246  0.00  0.00    +0.000 HD
BRANCH   9  12
ATOM     12  C   UNL     1      46.025   2.670   7.688  0.00  0.00    +0.000 A 
ATOM     13  C   UNL     1      46.364   3.449   6.578  0.00  0.00    +0.000 A 
ATOM     14  C   UNL     1      47.320   2.976   5.681  0.00  0.00    +0.000 A 
ATOM     15  C   UNL     1      47.906   1.744   5.929  0.00  0.00    +0.000 A 
ATOM     16  N   UNL     1      47.612   0.975   7.001  0.00  0.00    +0.000 NA
ATOM     17  C   UNL     1      46.684   1.461   7.865  0.00  0.00    +0.000 A 
ENDBRANCH   9  12
ENDBRANCH   7  10
ENDBRANCH   1   7
BRANCH   4  18
ATOM     18  C   UNL     1      45.431   8.437  13.044  0.00  0.00    +0.000 C 
BRANCH  18  19
ATOM     19  N   UNL     1      46.702   8.557  13.718  0.00  0.00    +0.000 N 
ATOM     20  C   UNL     1      47.732   9.317  13.236  0.00  0.00    +0.000 C 
ATOM     21  O   UNL     1      47.648   9.932  12.175  0.00  0.00    +0.000 OA
ATOM     22  H   UNL     1      46.870   7.888  14.463  0.00  0.00    +0.000 HD
BRANCH  20  23
ATOM     23  C   UNL     1      48.921   9.423  14.091  0.00  0.00    +0.000 A 
ATOM     24  C   UNL     1      48.832  10.062  15.321  0.00  0.00    +0.000 A 
ATOM     25  S   UNL     1      50.293  10.061  16.202  0.00  0.00    +0.000 S 
ATOM     26  C   UNL     1      51.110   9.247  14.953  0.00  0.00    +0.000 A 
ATOM     27  N   UNL     1      52.435   8.956  15.055  0.00  0.00    +0.000 NA
ATOM     28  C   UNL     1      52.936   8.364  14.022  0.00  0.00    +0.000 A 
ATOM     29  N   UNL     1      52.225   8.028  12.898  0.00  0.00    +0.000 N 
ATOM     30  C   UNL     1      50.875   8.248  12.775  0.00  0.00    +0.000 A 
ATOM     31  O   UNL     1      50.254   7.843  11.799  0.00  0.00    +0.000 OA
ATOM     32  C   UNL     1      50.272   8.951  13.891  0.00  0.00    +0.000 A 
ATOM     33  H   UNL     1      52.669   7.543  12.132  0.00  0.00    +0.000 HD
ENDBRANCH  20  23
ENDBRANCH  18  19
ENDBRANCH   4  18
TORSDOF 6
ENDMDL
MODEL 7
REMARK VINA RESULT:    -7.172      2.554      3.984
REMARK INTER + INTRA:         -10.413
REMARK INTER:                  -9.326
REMARK INTRA:                  -1.087
REMARK UNBOUND:                -0.725
REMARK  Name = 
REMARK  6 active torsions:
REMARK  status: ('A' for Active; 'I' for Inactive)
REMARK    1  A    between atoms: C_2  and  C_25
REMARK    2  A    between atoms: N_3  and  C_4
REMARK    3  A    between atoms: C_4  and  C_5
REMARK    4  A    between atoms: C_8  and  C_9
REMARK    5  A    between atoms: C_9  and  N_10
REMARK    6  A    between atoms: C_11  and  C_13
REMARK                            x       y       z     vdW  Elec       q    Type
REMARK                         _______ _______ _______ _____ _____    ______ ____
ROOT
ATOM      1  C   UNL     1      45.090   4.660  11.585  0.00  0.00    +0.000 A 
ATOM      2  C   UNL     1      45.508   3.600  12.392  0.00  0.00    +0.000 A 
ATOM      3  C   UNL     1      46.254   3.855  13.541  0.00  0.00    +0.000 A 
ATOM      4  C   UNL     1      46.598   5.169  13.843  0.00  0.00    +0.000 A 
ATOM      5  N   UNL     1      46.204   6.216  13.073  0.00  0.00    +0.000 NA
ATOM      6  C   UNL     1      45.463   5.941  11.975  0.00  0.00    +0.000 A 
ENDROOT
BRANCH   1   7
ATOM      7  C   UNL     1      44.300   4.429  10.333  0.00  0.00    +0.000 C 
BRANCH   7  10
ATOM      8  O   UNL     1      44.726   1.847   9.357  0.00  0.00    +0.000 OA
ATOM      9  C   UNL     1      45.290   2.787   8.810  0.00  0.00    +0.000 C 
ATOM     10  N   UNL     1      45.155   4.097   9.216  0.00  0.00    +0.000 N 
ATOM     11  H   UNL     1      45.463   4.844   8.608  0.00  0.00    +0.000 HD
BRANCH   9  12
ATOM     12  C   UNL     1      46.142   2.558   7.624  0.00  0.00    +0.000 A 
ATOM     13  C   UNL     1      46.181   3.441   6.542  0.00  0.00    +0.000 A 
ATOM     14  C   UNL     1      47.003   3.151   5.455  0.00  0.00    +0.000 A 
ATOM     15  C   UNL     1      47.762   1.989   5.493  0.00  0.00    +0.000 A 
ATOM     16  N   UNL     1      47.759   1.125   6.531  0.00  0.00    +0.000 NA
ATOM     17  C   UNL     1      46.957   1.434   7.581  0.00  0.00    +0.000 A 
ENDBRANCH   9  12
ENDBRANCH   7  10
ENDBRANCH   1   7
BRANCH   4  18
ATOM     18  C   UNL     1      47.433   5.476  15.062  0.00  0.00    +0.000 C 
BRANCH  18  19
ATOM     19  N   UNL     1      48.661   6.163  14.738  0.00  0.00    +0.000 N 
ATOM     20  C   UNL     1      49.117   7.245  15.439  0.00  0.00    +0.000 C 
ATOM     21  O   UNL     1      48.492   7.721  16.385  0.00  0.00    +0.000 OA
ATOM     22  H   UNL     1      49.069   5.934  13.836  0.00  0.00    +0.000 HD
BRANCH  20  23
ATOM     23  C   UNL     1      50.436   7.765  15.053  0.00  0.00    +0.000 A 
ATOM     24  C   UNL     1      51.446   7.858  16.002  0.00  0.00    +0.000 A 
ATOM     25  S   UNL     1      52.921   8.444  15.378  0.00  0.00    +0.000 S 
ATOM     26  C   UNL     1      52.251   8.639  13.828  0.00  0.00    +0.000 A 
ATOM     27  N   UNL     1      52.991   9.143  12.803  0.00  0.00    +0.000 NA
ATOM     28  C   UNL     1      52.350   9.267  11.688  0.00  0.00    +0.000 A 
ATOM     29  N   UNL     1      51.035   8.919  11.505  0.00  0.00    +0.000 N 
ATOM     30  C   UNL     1      50.269   8.351  12.493  0.00  0.00    +0.000 A 
ATOM     31  O   UNL     1      49.130   7.960  12.264  0.00  0.00    +0.000 OA
ATOM     32  C   UNL     1      50.929   8.232  13.778  0.00  0.00    +0.000 A 
ATOM     33  H   UNL     1      50.596   9.016  10.601  0.00  0.00    +0.000 HD
ENDBRANCH  20  23
ENDBRANCH  18  19
ENDBRANCH   4  18
TORSDOF 6
ENDMDL
MODEL 8
REMARK VINA RESULT:    -6.987      4.944      9.348
REMARK INTER + INTRA:         -10.163
REMARK INTER:                  -9.088
REMARK INTRA:                  -1.075
REMARK UNBOUND:                -0.725
REMARK  Name = 
REMARK  6 active torsions:
REMARK  status: ('A' for Active; 'I' for Inactive)
REMARK    1  A    between atoms: C_2  and  C_25
REMARK    2  A    between atoms: N_3  and  C_4
REMARK    3  A    between atoms: C_4  and  C_5
REMARK    4  A    between atoms: C_8  and  C_9
REMARK    5  A    between atoms: C_9  and  N_10
REMARK    6  A    between atoms: C_11  and  C_13
REMARK                            x       y       z     vdW  Elec       q    Type
REMARK                         _______ _______ _______ _____ _____    ______ ____
ROOT
ATOM      1  C   UNL     1      51.405   2.976  17.639  0.00  0.00    +0.000 A 
ATOM      2  C   UNL     1      50.623   1.915  17.180  0.00  0.00    +0.000 A 
ATOM      3  C   UNL     1      49.280   2.125  16.872  0.00  0.00    +0.000 A 
ATOM      4  C   UNL     1      48.736   3.392  17.063  0.00  0.00    +0.000 A 
ATOM      5  N   UNL     1      49.476   4.438  17.509  0.00  0.00    +0.000 NA
ATOM      6  C   UNL     1      50.782   4.210  17.780  0.00  0.00    +0.000 A 
ENDROOT
BRANCH   1   7
ATOM      7  C   UNL     1      52.849   2.790  17.995  0.00  0.00    +0.000 C 
BRANCH   7  10
ATOM      8  O   UNL     1      54.273   0.935  19.523  0.00  0.00    +0.000 OA
ATOM      9  C   UNL     1      54.046   0.682  18.347  0.00  0.00    +0.000 C 
ATOM     10  N   UNL     1      53.361   1.531  17.503  0.00  0.00    +0.000 N 
ATOM     11  H   UNL     1      53.018   1.186  16.617  0.00  0.00    +0.000 HD
BRANCH   9  12
ATOM     12  C   UNL     1      54.480  -0.605  17.763  0.00  0.00    +0.000 A 
ATOM     13  C   UNL     1      54.630  -1.766  18.526  0.00  0.00    +0.000 A 
ATOM     14  C   UNL     1      55.053  -2.939  17.904  0.00  0.00    +0.000 A 
ATOM     15  C   UNL     1      55.305  -2.910  16.540  0.00  0.00    +0.000 A 
ATOM     16  N   UNL     1      55.153  -1.808  15.773  0.00  0.00    +0.000 NA
ATOM     17  C   UNL     1      54.732  -0.680  16.400  0.00  0.00    +0.000 A 
ENDBRANCH   9  12
ENDBRANCH   7  10
ENDBRANCH   1   7
BRANCH   4  18
ATOM     18  C   UNL     1      47.276   3.644  16.770  0.00  0.00    +0.000 C 
BRANCH  18  19
ATOM     19  N   UNL     1      47.077   4.672  15.776  0.00  0.00    +0.000 N 
ATOM     20  C   UNL     1      47.040   4.413  14.433  0.00  0.00    +0.000 C 
ATOM     21  O   UNL     1      47.200   3.280  13.983  0.00  0.00    +0.000 OA
ATOM     22  H   UNL     1      47.171   5.628  16.106  0.00  0.00    +0.000 HD
BRANCH  20  23
ATOM     23  C   UNL     1      46.722   5.548  13.558  0.00  0.00    +0.000 A 
ATOM     24  C   UNL     1      45.523   5.564  12.857  0.00  0.00    +0.000 A 
ATOM     25  S   UNL     1      45.295   6.971  11.920  0.00  0.00    +0.000 S 
ATOM     26  C   UNL     1      46.811   7.589  12.379  0.00  0.00    +0.000 A 
ATOM     27  N   UNL     1      47.259   8.778  11.894  0.00  0.00    +0.000 NA
ATOM     28  C   UNL     1      48.439   9.114  12.299  0.00  0.00    +0.000 A 
ATOM     29  N   UNL     1      49.206   8.368  13.159  0.00  0.00    +0.000 N 
ATOM     30  C   UNL     1      48.771   7.193  13.720  0.00  0.00    +0.000 A 
ATOM     31  O   UNL     1      49.442   6.606  14.561  0.00  0.00    +0.000 OA
ATOM     32  C   UNL     1      47.468   6.749  13.261  0.00  0.00    +0.000 A 
ATOM     33  H   UNL     1      50.112   8.696  13.459  0.00  0.00    +0.000 HD
ENDBRANCH  20  23
ENDBRANCH  18  19
ENDBRANCH   4  18
TORSDOF 6
ENDMDL
MODEL 9
REMARK VINA RESULT:    -6.864      2.634      3.413
REMARK INTER + INTRA:          -9.997
REMARK INTER:                  -9.154
REMARK INTRA:                  -0.844
REMARK UNBOUND:                -0.725
REMARK  Name = 
REMARK  6 active torsions:
REMARK  status: ('A' for Active; 'I' for Inactive)
REMARK    1  A    between atoms: C_2  and  C_25
REMARK    2  A    between atoms: N_3  and  C_4
REMARK    3  A    between atoms: C_4  and  C_5
REMARK    4  A    between atoms: C_8  and  C_9
REMARK    5  A    between atoms: C_9  and  N_10
REMARK    6  A    between atoms: C_11  and  C_13
REMARK                            x       y       z     vdW  Elec       q    Type
REMARK                         _______ _______ _______ _____ _____    ______ ____
ROOT
ATOM      1  C   UNL     1      45.030   4.533  11.487  0.00  0.00    +0.000 A 
ATOM      2  C   UNL     1      45.540   3.511  12.290  0.00  0.00    +0.000 A 
ATOM      3  C   UNL     1      46.264   3.826  13.439  0.00  0.00    +0.000 A 
ATOM      4  C   UNL     1      46.492   5.165  13.744  0.00  0.00    +0.000 A 
ATOM      5  N   UNL     1      46.007   6.175  12.978  0.00  0.00    +0.000 NA
ATOM      6  C   UNL     1      45.291   5.840  11.881  0.00  0.00    +0.000 A 
ENDROOT
BRANCH   1   7
ATOM      7  C   UNL     1      44.260   4.238  10.236  0.00  0.00    +0.000 C 
BRANCH   7  10
ATOM      8  O   UNL     1      44.912   1.704   9.258  0.00  0.00    +0.000 OA
ATOM      9  C   UNL     1      45.388   2.690   8.710  0.00  0.00    +0.000 C 
ATOM     10  N   UNL     1      45.139   3.983   9.117  0.00  0.00    +0.000 N 
ATOM     11  H   UNL     1      45.377   4.755   8.508  0.00  0.00    +0.000 HD
BRANCH   9  12
ATOM     12  C   UNL     1      46.255   2.538   7.522  0.00  0.00    +0.000 A 
ATOM     13  C   UNL     1      46.233   3.438   6.453  0.00  0.00    +0.000 A 
ATOM     14  C   UNL     1      47.074   3.222   5.363  0.00  0.00    +0.000 A 
ATOM     15  C   UNL     1      47.910   2.115   5.384  0.00  0.00    +0.000 A 
ATOM     16  N   UNL     1      47.966   1.236   6.409  0.00  0.00    +0.000 NA
ATOM     17  C   UNL     1      47.144   1.473   7.463  0.00  0.00    +0.000 A 
ENDBRANCH   9  12
ENDBRANCH   7  10
ENDBRANCH   1   7
BRANCH   4  18
ATOM     18  C   UNL     1      47.301   5.539  14.963  0.00  0.00    +0.000 C 
BRANCH  18  19
ATOM     19  N   UNL     1      48.598   6.077  14.627  0.00  0.00    +0.000 N 
ATOM     20  C   UNL     1      49.016   7.318  15.026  0.00  0.00    +0.000 C 
ATOM     21  O   UNL     1      48.297   8.069  15.682  0.00  0.00    +0.000 OA
ATOM     22  H   UNL     1      49.109   5.577  13.906  0.00  0.00    +0.000 HD
BRANCH  20  23
ATOM     23  C   UNL     1      50.401   7.677  14.696  0.00  0.00    +0.000 A 
ATOM     24  C   UNL     1      50.667   8.422  13.555  0.00  0.00    +0.000 A 
ATOM     25  S   UNL     1      52.320   8.784  13.342  0.00  0.00    +0.000 S 
ATOM     26  C   UNL     1      52.746   7.919  14.742  0.00  0.00    +0.000 A 
ATOM     27  N   UNL     1      54.046   7.805  15.127  0.00  0.00    +0.000 NA
ATOM     28  C   UNL     1      54.231   7.095  16.191  0.00  0.00    +0.000 A 
ATOM     29  N   UNL     1      53.226   6.499  16.912  0.00  0.00    +0.000 N 
ATOM     30  C   UNL     1      51.898   6.638  16.595  0.00  0.00    +0.000 A 
ATOM     31  O   UNL     1      51.023   6.175  17.319  0.00  0.00    +0.000 OA
ATOM     32  C   UNL     1      51.639   7.389  15.382  0.00  0.00    +0.000 A 
ATOM     33  H   UNL     1      53.433   5.977  17.750  0.00  0.00    +0.000 HD
ENDBRANCH  20  23
ENDBRANCH  18  19
ENDBRANCH   4  18
TORSDOF 6
ENDMDL
