MODEL 1
REMARK VINA RESULT:    -8.708      0.000      0.000
REMARK INTER + INTRA:         -11.284
REMARK INTER:                 -11.253
REMARK INTRA:                  -0.031
REMARK UNBOUND:                -0.031
REMARK  Name = 
REMARK  7 active torsions:
REMARK  status: ('A' for Active; 'I' for Inactive)
REMARK    1  A    between atoms: C_1  and  C_2
REMARK    2  A    between atoms: C_2  and  N_3
REMARK    3  A    between atoms: C_2  and  C_17
REMARK    4  A    between atoms: C_4  and  C_6
REMARK    5  A    between atoms: N_12  and  C_13
REMARK    6  A    between atoms: C_20  and  C_21
REMARK    7  A    between atoms: C_21  and  C_22
REMARK                            x       y       z     vdW  Elec       q    Type
REMARK                         _______ _______ _______ _____ _____    ______ ____
ROOT
ATOM      1  C   UNL     1      44.915   8.043  11.861  0.00  0.00    +0.000 C 
ATOM      2  C   UNL     1      44.796   6.775  12.712  0.00  0.00    +0.000 C 
ENDROOT
BRANCH   2   3
ATOM      3  C   UNL     1      44.732   5.527  11.850  0.00  0.00    +0.000 A 
ATOM      4  C   UNL     1      44.371   5.624  10.510  0.00  0.00    +0.000 A 
ATOM      5  N   UNL     1      44.310   4.552   9.682  0.00  0.00    +0.000 NA
ATOM      6  C   UNL     1      44.598   3.349  10.244  0.00  0.00    +0.000 A 
ATOM      7  C   UNL     1      44.914   3.244  11.592  0.00  0.00    +0.000 A 
ATOM      8  N   UNL     1      44.994   4.317  12.414  0.00  0.00    +0.000 NA
BRANCH   6   9
ATOM      9  C   UNL     1      44.549   2.130   9.362  0.00  0.00    +0.000 C 
BRANCH   9  10
ATOM     10  C   UNL     1      45.626   2.103   8.304  0.00  0.00    +0.000 A 
ATOM     11  C   UNL     1      45.863   3.220   7.504  0.00  0.00    +0.000 A 
ATOM     12  C   UNL     1      46.868   3.162   6.544  0.00  0.00    +0.000 A 
ATOM     13  C   UNL     1      47.620   2.003   6.416  0.00  0.00    +0.000 A 
ATOM     14  C   UNL     1      47.332   0.941   7.257  0.00  0.00    +0.000 A 
ATOM     15  N   UNL     1      46.353   0.962   8.190  0.00  0.00    +0.000 NA
ENDBRANCH   9  10
ENDBRANCH   6   9
ENDBRANCH   2   3
BRANCH   2  16
ATOM     16  N   UNL     1      45.920   6.717  13.627  0.00  0.00    +0.000 N 
ATOM     17  C   UNL     1      47.227   6.682  13.209  0.00  0.00    +0.000 C 
ATOM     18  O   UNL     1      47.531   6.590  12.024  0.00  0.00    +0.000 OA
ATOM     19  H   UNL     1      45.724   7.078  14.556  0.00  0.00    +0.000 HD
BRANCH  17  20
ATOM     20  C   UNL     1      48.242   6.687  14.271  0.00  0.00    +0.000 A 
ATOM     21  C   UNL     1      49.232   7.660  14.283  0.00  0.00    +0.000 A 
ATOM     22  S   UNL     1      50.353   7.475  15.556  0.00  0.00    +0.000 S 
ATOM     23  C   UNL     1      49.526   6.119  16.164  0.00  0.00    +0.000 A 
ATOM     24  N   UNL     1      49.959   5.474  17.277  0.00  0.00    +0.000 NA
ATOM     25  C   UNL     1      49.218   4.480  17.646  0.00  0.00    +0.000 A 
ATOM     26  N   UNL     1      48.074   4.055  17.002  0.00  0.00    +0.000 N 
ATOM     27  C   UNL     1      47.311   2.930  17.504  0.00  0.00    +0.000 C 
ATOM     28  C   UNL     1      47.622   4.674  15.846  0.00  0.00    +0.000 A 
ATOM     29  O   UNL     1      46.636   4.282  15.225  0.00  0.00    +0.000 OA
ATOM     30  C   UNL     1      48.419   5.803  15.402  0.00  0.00    +0.000 A 
ENDBRANCH  17  20
ENDBRANCH   2  16
TORSDOF 5
ENDMDL
MODEL 2
REMARK VINA RESULT:    -8.200      1.714      2.414
REMARK INTER + INTRA:         -10.628
REMARK INTER:                 -10.730
REMARK INTRA:                   0.102
REMARK UNBOUND:                -0.031
REMARK  Name = 
REMARK  7 active torsions:
REMARK  status: ('A' for Active; 'I' for Inactive)
REMARK    1  A    between atoms: C_1  and  C_2
REMARK    2  A    between atoms: C_2  and  N_3
REMARK    3  A    between atoms: C_2  and  C_17
REMARK    4  A    between atoms: C_4  and  C_6
REMARK    5  A    between atoms: N_12  and  C_13
REMARK    6  A    between atoms: C_20  and  C_21
REMARK    7  A    between atoms: C_21  and  C_22
REMARK                            x       y       z     vdW  Elec       q    Type
REMARK                         _______ _______ _______ _____ _____    ______ ____
ROOT
ATOM      1  C   UNL     1      46.841   7.635  12.218  0.00  0.00    +0.000 C 
ATOM      2  C   UNL     1      45.769   6.689  12.766  0.00  0.00    +0.000 C 
ENDROOT
BRANCH   2   3
ATOM      3  C   UNL     1      45.425   5.596  11.771  0.00  0.00    +0.000 A 
ATOM      4  C   UNL     1      45.654   5.793  10.413  0.00  0.00    +0.000 A 
ATOM      5  N   UNL     1      45.385   4.854   9.473  0.00  0.00    +0.000 NA
ATOM      6  C   UNL     1      44.843   3.695   9.930  0.00  0.00    +0.000 A 
ATOM      7  C   UNL     1      44.571   3.512  11.280  0.00  0.00    +0.000 A 
ATOM      8  N   UNL     1      44.858   4.443  12.220  0.00  0.00    +0.000 NA
BRANCH   6   9
ATOM      9  C   UNL     1      44.532   2.619   8.924  0.00  0.00    +0.000 C 
BRANCH   9  10
ATOM     10  C   UNL     1      45.656   2.353   7.953  0.00  0.00    +0.000 A 
ATOM     11  C   UNL     1      45.912   3.237   6.905  0.00  0.00    +0.000 A 
ATOM     12  C   UNL     1      46.961   2.965   6.033  0.00  0.00    +0.000 A 
ATOM     13  C   UNL     1      47.735   1.831   6.234  0.00  0.00    +0.000 A 
ATOM     14  C   UNL     1      47.426   1.010   7.305  0.00  0.00    +0.000 A 
ATOM     15  N   UNL     1      46.405   1.240   8.162  0.00  0.00    +0.000 NA
ENDBRANCH   9  10
ENDBRANCH   6   9
ENDBRANCH   2   3
BRANCH   2  16
ATOM     16  N   UNL     1      46.239   6.123  14.017  0.00  0.00    +0.000 N 
ATOM     17  C   UNL     1      47.504   5.619  14.184  0.00  0.00    +0.000 C 
ATOM     18  O   UNL     1      48.294   5.517  13.251  0.00  0.00    +0.000 OA
ATOM     19  H   UNL     1      45.742   6.452  14.840  0.00  0.00    +0.000 HD
BRANCH  17  20
ATOM     20  C   UNL     1      47.833   5.141  15.534  0.00  0.00    +0.000 A 
ATOM     21  C   UNL     1      47.401   3.890  15.954  0.00  0.00    +0.000 A 
ATOM     22  S   UNL     1      47.827   3.529  17.567  0.00  0.00    +0.000 S 
ATOM     23  C   UNL     1      48.644   5.010  17.743  0.00  0.00    +0.000 A 
ATOM     24  N   UNL     1      49.265   5.334  18.906  0.00  0.00    +0.000 NA
ATOM     25  C   UNL     1      49.874   6.475  18.890  0.00  0.00    +0.000 A 
ATOM     26  N   UNL     1      49.921   7.341  17.817  0.00  0.00    +0.000 N 
ATOM     27  C   UNL     1      50.639   8.597  17.904  0.00  0.00    +0.000 C 
ATOM     28  C   UNL     1      49.271   7.053  16.626  0.00  0.00    +0.000 A 
ATOM     29  O   UNL     1      49.255   7.830  15.674  0.00  0.00    +0.000 OA
ATOM     30  C   UNL     1      48.583   5.774  16.595  0.00  0.00    +0.000 A 
ENDBRANCH  17  20
ENDBRANCH   2  16
TORSDOF 5
ENDMDL
MODEL 3
REMARK VINA RESULT:    -8.125      1.662      2.275
REMARK INTER + INTRA:         -10.531
REMARK INTER:                  -9.505
REMARK INTRA:                  -1.026
REMARK UNBOUND:                -0.031
REMARK  Name = 
REMARK  7 active torsions:
REMARK  status: ('A' for Active; 'I' for Inactive)
REMARK    1  A    between atoms: C_1  and  C_2
REMARK    2  A    between atoms: C_2  and  N_3
REMARK    3  A    between atoms: C_2  and  C_17
REMARK    4  A    between atoms: C_4  and  C_6
REMARK    5  A    between atoms: N_12  and  C_13
REMARK    6  A    between atoms: C_20  and  C_21
REMARK    7  A    between atoms: C_21  and  C_22
REMARK                            x       y       z     vdW  Elec       q    Type
REMARK                         _______ _______ _______ _____ _____    ______ ____
ROOT
ATOM      1  C   UNL     1      47.338   9.260  12.616  0.00  0.00    +0.000 C 
ATOM      2  C   UNL     1      46.808   8.107  13.475  0.00  0.00    +0.000 C 
ENDROOT
BRANCH   2   3
ATOM      3  C   UNL     1      46.089   7.068  12.634  0.00  0.00    +0.000 A 
ATOM      4  C   UNL     1      45.011   7.441  11.839  0.00  0.00    +0.000 A 
ATOM      5  N   UNL     1      44.334   6.568  11.053  0.00  0.00    +0.000 NA
ATOM      6  C   UNL     1      44.753   5.276  11.103  0.00  0.00    +0.000 A 
ATOM      7  C   UNL     1      45.800   4.892  11.932  0.00  0.00    +0.000 A 
ATOM      8  N   UNL     1      46.487   5.769  12.701  0.00  0.00    +0.000 NA
BRANCH   6   9
ATOM      9  C   UNL     1      44.036   4.269  10.243  0.00  0.00    +0.000 C 
BRANCH   9  10
ATOM     10  C   UNL     1      44.931   3.582   9.240  0.00  0.00    +0.000 A 
ATOM     11  C   UNL     1      45.124   2.202   9.290  0.00  0.00    +0.000 A 
ATOM     12  C   UNL     1      45.950   1.602   8.345  0.00  0.00    +0.000 A 
ATOM     13  C   UNL     1      46.549   2.386   7.369  0.00  0.00    +0.000 A 
ATOM     14  C   UNL     1      46.297   3.747   7.379  0.00  0.00    +0.000 A 
ATOM     15  N   UNL     1      45.510   4.362   8.291  0.00  0.00    +0.000 NA
ENDBRANCH   9  10
ENDBRANCH   6   9
ENDBRANCH   2   3
BRANCH   2  16
ATOM     16  N   UNL     1      47.918   7.514  14.197  0.00  0.00    +0.000 N 
ATOM     17  C   UNL     1      48.411   8.028  15.370  0.00  0.00    +0.000 C 
ATOM     18  O   UNL     1      48.012   9.091  15.835  0.00  0.00    +0.000 OA
ATOM     19  H   UNL     1      48.060   6.525  14.011  0.00  0.00    +0.000 HD
BRANCH  17  20
ATOM     20  C   UNL     1      49.498   7.266  15.999  0.00  0.00    +0.000 A 
ATOM     21  C   UNL     1      50.757   7.833  16.138  0.00  0.00    +0.000 A 
ATOM     22  S   UNL     1      51.905   6.782  16.838  0.00  0.00    +0.000 S 
ATOM     23  C   UNL     1      50.747   5.550  17.025  0.00  0.00    +0.000 A 
ATOM     24  N   UNL     1      51.075   4.360  17.589  0.00  0.00    +0.000 NA
ATOM     25  C   UNL     1      50.091   3.527  17.698  0.00  0.00    +0.000 A 
ATOM     26  N   UNL     1      48.795   3.765  17.289  0.00  0.00    +0.000 N 
ATOM     27  C   UNL     1      47.762   2.763  17.464  0.00  0.00    +0.000 C 
ATOM     28  C   UNL     1      48.435   4.959  16.682  0.00  0.00    +0.000 A 
ATOM     29  O   UNL     1      47.300   5.175  16.263  0.00  0.00    +0.000 OA
ATOM     30  C   UNL     1      49.508   5.929  16.550  0.00  0.00    +0.000 A 
ENDBRANCH  17  20
ENDBRANCH   2  16
TORSDOF 5
ENDMDL
MODEL 4
REMARK VINA RESULT:    -8.100      3.002      3.912
REMARK INTER + INTRA:         -10.499
REMARK INTER:                  -9.549
REMARK INTRA:                  -0.951
REMARK UNBOUND:                -0.031
REMARK  Name = 
REMARK  7 active torsions:
REMARK  status: ('A' for Active; 'I' for Inactive)
REMARK    1  A    between atoms: C_1  and  C_2
REMARK    2  A    between atoms: C_2  and  N_3
REMARK    3  A    between atoms: C_2  and  C_17
REMARK    4  A    between atoms: C_4  and  C_6
REMARK    5  A    between atoms: N_12  and  C_13
REMARK    6  A    between atoms: C_20  and  C_21
REMARK    7  A    between atoms: C_21  and  C_22
REMARK                            x       y       z     vdW  Elec       q    Type
REMARK                         _______ _______ _______ _____ _____    ______ ____
ROOT
ATOM      1  C   UNL     1      47.149   4.171  16.372  0.00  0.00    +0.000 C 
ATOM      2  C   UNL     1      47.705   4.881  15.134  0.00  0.00    +0.000 C 
ENDROOT
BRANCH   2   3
ATOM      3  C   UNL     1      46.835   4.643  13.914  0.00  0.00    +0.000 A 
ATOM      4  C   UNL     1      46.429   5.717  13.128  0.00  0.00    +0.000 A 
ATOM      5  N   UNL     1      45.665   5.574  12.018  0.00  0.00    +0.000 NA
ATOM      6  C   UNL     1      45.284   4.304  11.719  0.00  0.00    +0.000 A 
ATOM      7  C   UNL     1      45.649   3.235  12.527  0.00  0.00    +0.000 A 
ATOM      8  N   UNL     1      46.428   3.377  13.625  0.00  0.00    +0.000 NA
BRANCH   6   9
ATOM      9  C   UNL     1      44.438   4.093  10.491  0.00  0.00    +0.000 C 
BRANCH   9  10
ATOM     10  C   UNL     1      45.205   3.538   9.315  0.00  0.00    +0.000 A 
ATOM     11  C   UNL     1      45.355   2.161   9.153  0.00  0.00    +0.000 A 
ATOM     12  C   UNL     1      46.063   1.685   8.054  0.00  0.00    +0.000 A 
ATOM     13  C   UNL     1      46.587   2.587   7.140  0.00  0.00    +0.000 A 
ATOM     14  C   UNL     1      46.384   3.938   7.365  0.00  0.00    +0.000 A 
ATOM     15  N   UNL     1      45.713   4.433   8.429  0.00  0.00    +0.000 NA
ENDBRANCH   9  10
ENDBRANCH   6   9
ENDBRANCH   2   3
BRANCH   2  16
ATOM     16  N   UNL     1      47.822   6.299  15.421  0.00  0.00    +0.000 N 
ATOM     17  C   UNL     1      49.027   6.935  15.587  0.00  0.00    +0.000 C 
ATOM     18  O   UNL     1      50.090   6.322  15.608  0.00  0.00    +0.000 OA
ATOM     19  H   UNL     1      47.025   6.854  15.125  0.00  0.00    +0.000 HD
BRANCH  17  20
ATOM     20  C   UNL     1      48.963   8.385  15.810  0.00  0.00    +0.000 A 
ATOM     21  C   UNL     1      49.367   9.262  14.813  0.00  0.00    +0.000 A 
ATOM     22  S   UNL     1      49.276  10.903  15.270  0.00  0.00    +0.000 S 
ATOM     23  C   UNL     1      48.648  10.501  16.799  0.00  0.00    +0.000 A 
ATOM     24  N   UNL     1      48.328  11.464  17.701  0.00  0.00    +0.000 NA
ATOM     25  C   UNL     1      47.831  11.019  18.809  0.00  0.00    +0.000 A 
ATOM     26  N   UNL     1      47.625   9.689  19.115  0.00  0.00    +0.000 N 
ATOM     27  C   UNL     1      47.054   9.297  20.388  0.00  0.00    +0.000 C 
ATOM     28  C   UNL     1      47.970   8.681  18.227  0.00  0.00    +0.000 A 
ATOM     29  O   UNL     1      47.844   7.488  18.496  0.00  0.00    +0.000 OA
ATOM     30  C   UNL     1      48.521   9.137  16.964  0.00  0.00    +0.000 A 
ENDBRANCH  17  20
ENDBRANCH   2  16
TORSDOF 5
ENDMDL
MODEL 5
REMARK VINA RESULT:    -7.797      2.256      3.350
REMARK INTER + INTRA:         -10.107
REMARK INTER:                  -9.335
REMARK INTRA:                  -0.772
REMARK UNBOUND:                -0.031
REMARK  Name = 
REMARK  7 active torsions:
REMARK  status: ('A' for Active; 'I' for Inactive)
REMARK    1  A    between atoms: C_1  and  C_2
REMARK    2  A    between atoms: C_2  and  N_3
REMARK    3  A    between atoms: C_2  and  C_17
REMARK    4  A    between atoms: C_4  and  C_6
REMARK    5  A    between atoms: N_12  and  C_13
REMARK    6  A    between atoms: C_20  and  C_21
REMARK    7  A    between atoms: C_21  and  C_22
REMARK                            x       y       z     vdW  Elec       q    Type
REMARK                         _______ _______ _______ _____ _____    ______ ____
ROOT
ATOM      1  C   UNL     1      49.313   8.181  13.091  0.00  0.00    +0.000 C 
ATOM      2  C   UNL     1      47.888   8.300  13.639  0.00  0.00    +0.000 C 
ENDROOT
BRANCH   2   3
ATOM      3  C   UNL     1      46.909   7.461  12.839  0.00  0.00    +0.000 A 
ATOM      4  C   UNL     1      47.006   6.074  12.854  0.00  0.00    +0.000 A 
ATOM      5  N   UNL     1      46.156   5.265  12.175  0.00  0.00    +0.000 NA
ATOM      6  C   UNL     1      45.199   5.892  11.441  0.00  0.00    +0.000 A 
ATOM      7  C   UNL     1      45.128   7.278  11.387  0.00  0.00    +0.000 A 
ATOM      8  N   UNL     1      45.966   8.084  12.081  0.00  0.00    +0.000 NA
BRANCH   6   9
ATOM      9  C   UNL     1      44.227   5.036  10.673  0.00  0.00    +0.000 C 
BRANCH   9  10
ATOM     10  C   UNL     1      44.886   4.124   9.667  0.00  0.00    +0.000 A 
ATOM     11  C   UNL     1      44.758   2.739   9.774  0.00  0.00    +0.000 A 
ATOM     12  C   UNL     1      45.374   1.929   8.826  0.00  0.00    +0.000 A 
ATOM     13  C   UNL     1      46.086   2.517   7.789  0.00  0.00    +0.000 A 
ATOM     14  C   UNL     1      46.155   3.898   7.745  0.00  0.00    +0.000 A 
ATOM     15  N   UNL     1      45.580   4.713   8.659  0.00  0.00    +0.000 NA
ENDBRANCH   9  10
ENDBRANCH   6   9
ENDBRANCH   2   3
BRANCH   2  16
ATOM     16  N   UNL     1      47.889   7.907  15.036  0.00  0.00    +0.000 N 
ATOM     17  C   UNL     1      48.471   8.657  16.027  0.00  0.00    +0.000 C 
ATOM     18  O   UNL     1      49.125   9.667  15.782  0.00  0.00    +0.000 OA
ATOM     19  H   UNL     1      47.139   7.272  15.294  0.00  0.00    +0.000 HD
BRANCH  17  20
ATOM     20  C   UNL     1      48.325   8.140  17.394  0.00  0.00    +0.000 A 
ATOM     21  C   UNL     1      47.908   8.982  18.416  0.00  0.00    +0.000 A 
ATOM     22  S   UNL     1      47.851   8.223  19.943  0.00  0.00    +0.000 S 
ATOM     23  C   UNL     1      48.334   6.732  19.284  0.00  0.00    +0.000 A 
ATOM     24  N   UNL     1      48.468   5.630  20.065  0.00  0.00    +0.000 NA
ATOM     25  C   UNL     1      48.810   4.557  19.428  0.00  0.00    +0.000 A 
ATOM     26  N   UNL     1      49.040   4.474  18.070  0.00  0.00    +0.000 N 
ATOM     27  C   UNL     1      49.414   3.216  17.454  0.00  0.00    +0.000 C 
ATOM     28  C   UNL     1      48.941   5.588  17.250  0.00  0.00    +0.000 A 
ATOM     29  O   UNL     1      49.191   5.551  16.047  0.00  0.00    +0.000 OA
ATOM     30  C   UNL     1      48.548   6.813  17.922  0.00  0.00    +0.000 A 
ENDBRANCH  17  20
ENDBRANCH   2  16
TORSDOF 5
ENDMDL
MODEL 6
REMARK VINA RESULT:    -7.693      2.790      3.860
REMARK INTER + INTRA:          -9.972
REMARK INTER:                  -9.520
REMARK INTRA:                  -0.452
REMARK UNBOUND:                -0.031
REMARK  Name = 
REMARK  7 active torsions:
REMARK  status: ('A' for Active; 'I' for Inactive)
REMARK    1  A    between atoms: C_1  and  C_2
REMARK    2  A    between atoms: C_2  and  N_3
REMARK    3  A    between atoms: C_2  and  C_17
REMARK    4  A    between atoms: C_4  and  C_6
REMARK    5  A    between atoms: N_12  and  C_13
REMARK    6  A    between atoms: C_20  and  C_21
REMARK    7  A    between atoms: C_21  and  C_22
REMARK                            x       y       z     vdW  Elec       q    Type
REMARK                         _______ _______ _______ _____ _____    ______ ____
ROOT
ATOM      1  C   UNL     1      45.257   8.248  12.873  0.00  0.00    +0.000 C 
ATOM      2  C   UNL     1      46.240   7.074  12.911  0.00  0.00    +0.000 C 
ENDROOT
BRANCH   2   3
ATOM      3  C   UNL     1      45.804   5.948  11.992  0.00  0.00    +0.000 A 
ATOM      4  C   UNL     1      45.672   4.656  12.489  0.00  0.00    +0.000 A 
ATOM      5  N   UNL     1      45.272   3.608  11.727  0.00  0.00    +0.000 NA
ATOM      6  C   UNL     1      45.028   3.884  10.419  0.00  0.00    +0.000 A 
ATOM      7  C   UNL     1      45.203   5.164   9.909  0.00  0.00    +0.000 A 
ATOM      8  N   UNL     1      45.584   6.213  10.676  0.00  0.00    +0.000 NA
BRANCH   6   9
ATOM      9  C   UNL     1      44.575   2.753   9.533  0.00  0.00    +0.000 C 
BRANCH   9  10
ATOM     10  C   UNL     1      45.555   2.414   8.436  0.00  0.00    +0.000 A 
ATOM     11  C   UNL     1      45.867   3.349   7.450  0.00  0.00    +0.000 A 
ATOM     12  C   UNL     1      46.779   3.004   6.457  0.00  0.00    +0.000 A 
ATOM     13  C   UNL     1      47.366   1.747   6.480  0.00  0.00    +0.000 A 
ATOM     14  C   UNL     1      47.013   0.880   7.500  0.00  0.00    +0.000 A 
ATOM     15  N   UNL     1      46.121   1.180   8.471  0.00  0.00    +0.000 NA
ENDBRANCH   9  10
ENDBRANCH   6   9
ENDBRANCH   2   3
BRANCH   2  16
ATOM     16  N   UNL     1      47.561   7.557  12.551  0.00  0.00    +0.000 N 
ATOM     17  C   UNL     1      48.718   7.043  13.079  0.00  0.00    +0.000 C 
ATOM     18  O   UNL     1      48.710   6.206  13.977  0.00  0.00    +0.000 OA
ATOM     19  H   UNL     1      47.608   8.010  11.643  0.00  0.00    +0.000 HD
BRANCH  17  20
ATOM     20  C   UNL     1      49.969   7.608  12.557  0.00  0.00    +0.000 A 
ATOM     21  C   UNL     1      50.318   7.418  11.227  0.00  0.00    +0.000 A 
ATOM     22  S   UNL     1      51.828   8.095  10.814  0.00  0.00    +0.000 S 
ATOM     23  C   UNL     1      52.047   8.708  12.385  0.00  0.00    +0.000 A 
ATOM     24  N   UNL     1      53.154   9.422  12.712  0.00  0.00    +0.000 NA
ATOM     25  C   UNL     1      53.175   9.854  13.931  0.00  0.00    +0.000 A 
ATOM     26  N   UNL     1      52.190   9.637  14.872  0.00  0.00    +0.000 N 
ATOM     27  C   UNL     1      52.310  10.174  16.214  0.00  0.00    +0.000 C 
ATOM     28  C   UNL     1      51.061   8.887  14.579  0.00  0.00    +0.000 A 
ATOM     29  O   UNL     1      50.195   8.637  15.414  0.00  0.00    +0.000 OA
ATOM     30  C   UNL     1      50.991   8.391  13.216  0.00  0.00    +0.000 A 
ENDBRANCH  17  20
ENDBRANCH   2  16
TORSDOF 5
ENDMDL
MODEL 7
REMARK VINA RESULT:    -7.613      2.608      4.480
REMARK INTER + INTRA:          -9.869
REMARK INTER:                  -8.853
REMARK INTRA:                  -1.016
REMARK UNBOUND:                -0.031
REMARK  Name = 
REMARK  7 active torsions:
REMARK  status: ('A' for Active; 'I' for Inactive)
REMARK    1  A    between atoms: C_1  and  C_2
REMARK    2  A    between atoms: C_2  and  N_3
REMARK    3  A    between atoms: C_2  and  C_17
REMARK    4  A    between atoms: C_4  and  C_6
REMARK    5  A    between atoms: N_12  and  C_13
REMARK    6  A    between atoms: C_20  and  C_21
REMARK    7  A    between atoms: C_21  and  C_22
REMARK                            x       y       z     vdW  Elec       q    Type
REMARK                         _______ _______ _______ _____ _____    ______ ____
ROOT
ATOM      1  C   UNL     1      47.144   4.468  16.528  0.00  0.00    +0.000 C 
ATOM      2  C   UNL     1      47.862   4.957  15.267  0.00  0.00    +0.000 C 
ENDROOT
BRANCH   2   3
ATOM      3  C   UNL     1      46.980   4.833  14.037  0.00  0.00    +0.000 A 
ATOM      4  C   UNL     1      46.803   5.924  13.194  0.00  0.00    +0.000 A 
ATOM      5  N   UNL     1      46.042   5.877  12.073  0.00  0.00    +0.000 NA
ATOM      6  C   UNL     1      45.426   4.692  11.823  0.00  0.00    +0.000 A 
ATOM      7  C   UNL     1      45.564   3.614  12.687  0.00  0.00    +0.000 A 
ATOM      8  N   UNL     1      46.340   3.657  13.797  0.00  0.00    +0.000 NA
BRANCH   6   9
ATOM      9  C   UNL     1      44.575   4.589  10.585  0.00  0.00    +0.000 C 
BRANCH   9  10
ATOM     10  C   UNL     1      45.249   3.866   9.444  0.00  0.00    +0.000 A 
ATOM     11  C   UNL     1      45.227   2.474   9.374  0.00  0.00    +0.000 A 
ATOM     12  C   UNL     1      45.853   1.842   8.305  0.00  0.00    +0.000 A 
ATOM     13  C   UNL     1      46.470   2.610   7.328  0.00  0.00    +0.000 A 
ATOM     14  C   UNL     1      46.438   3.987   7.462  0.00  0.00    +0.000 A 
ATOM     15  N   UNL     1      45.850   4.631   8.496  0.00  0.00    +0.000 NA
ENDBRANCH   9  10
ENDBRANCH   6   9
ENDBRANCH   2   3
BRANCH   2  16
ATOM     16  N   UNL     1      48.280   6.332  15.469  0.00  0.00    +0.000 N 
ATOM     17  C   UNL     1      49.521   6.678  15.942  0.00  0.00    +0.000 C 
ATOM     18  O   UNL     1      50.329   5.838  16.327  0.00  0.00    +0.000 OA
ATOM     19  H   UNL     1      47.776   7.011  14.906  0.00  0.00    +0.000 HD
BRANCH  17  20
ATOM     20  C   UNL     1      49.798   8.117  16.027  0.00  0.00    +0.000 A 
ATOM     21  C   UNL     1      49.981   8.719  17.265  0.00  0.00    +0.000 A 
ATOM     22  S   UNL     1      50.236  10.404  17.172  0.00  0.00    +0.000 S 
ATOM     23  C   UNL     1      50.161  10.380  15.473  0.00  0.00    +0.000 A 
ATOM     24  N   UNL     1      50.321  11.516  14.748  0.00  0.00    +0.000 NA
ATOM     25  C   UNL     1      50.272  11.347  13.466  0.00  0.00    +0.000 A 
ATOM     26  N   UNL     1      50.071  10.141  12.827  0.00  0.00    +0.000 N 
ATOM     27  C   UNL     1      50.040  10.061  11.380  0.00  0.00    +0.000 C 
ATOM     28  C   UNL     1      49.874   8.968  13.540  0.00  0.00    +0.000 A 
ATOM     29  O   UNL     1      49.642   7.891  12.995  0.00  0.00    +0.000 OA
ATOM     30  C   UNL     1      49.932   9.109  14.983  0.00  0.00    +0.000 A 
ENDBRANCH  17  20
ENDBRANCH   2  16
TORSDOF 5
ENDMDL
MODEL 8
REMARK VINA RESULT:    -7.191      2.591      4.074
REMARK INTER + INTRA:          -9.323
REMARK INTER:                  -8.256
REMARK INTRA:                  -1.068
REMARK UNBOUND:                -0.031
REMARK  Name = 
REMARK  7 active torsions:
REMARK  status: ('A' for Active; 'I' for Inactive)
REMARK    1  A    between atoms: C_1  and  C_2
REMARK    2  A    between atoms: C_2  and  N_3
REMARK    3  A    between atoms: C_2  and  C_17
REMARK    4  A    between atoms: C_4  and  C_6
REMARK    5  A    between atoms: N_12  and  C_13
REMARK    6  A    between atoms: C_20  and  C_21
REMARK    7  A    between atoms: C_21  and  C_22
REMARK                            x       y       z     vdW  Elec       q    Type
REMARK                         _______ _______ _______ _____ _____    ______ ____
ROOT
ATOM      1  C   UNL     1      48.691   9.400  12.218  0.00  0.00    +0.000 C 
ATOM      2  C   UNL     1      47.877   8.568  13.214  0.00  0.00    +0.000 C 
ENDROOT
BRANCH   2   3
ATOM      3  C   UNL     1      46.895   7.652  12.507  0.00  0.00    +0.000 A 
ATOM      4  C   UNL     1      47.131   6.282  12.458  0.00  0.00    +0.000 A 
ATOM      5  N   UNL     1      46.288   5.407  11.857  0.00  0.00    +0.000 NA
ATOM      6  C   UNL     1      45.190   5.950  11.269  0.00  0.00    +0.000 A 
ATOM      7  C   UNL     1      44.974   7.322  11.276  0.00  0.00    +0.000 A 
ATOM      8  N   UNL     1      45.807   8.193  11.893  0.00  0.00    +0.000 NA
BRANCH   6   9
ATOM      9  C   UNL     1      44.220   5.017  10.593  0.00  0.00    +0.000 C 
BRANCH   9  10
ATOM     10  C   UNL     1      44.872   4.070   9.615  0.00  0.00    +0.000 A 
ATOM     11  C   UNL     1      44.761   2.690   9.783  0.00  0.00    +0.000 A 
ATOM     12  C   UNL     1      45.369   1.846   8.859  0.00  0.00    +0.000 A 
ATOM     13  C   UNL     1      46.057   2.396   7.787  0.00  0.00    +0.000 A 
ATOM     14  C   UNL     1      46.111   3.775   7.683  0.00  0.00    +0.000 A 
ATOM     15  N   UNL     1      45.542   4.622   8.571  0.00  0.00    +0.000 NA
ENDBRANCH   9  10
ENDBRANCH   6   9
ENDBRANCH   2   3
BRANCH   2  16
ATOM     16  N   UNL     1      48.792   7.806  14.045  0.00  0.00    +0.000 N 
ATOM     17  C   UNL     1      48.824   7.908  15.413  0.00  0.00    +0.000 C 
ATOM     18  O   UNL     1      48.148   8.732  16.023  0.00  0.00    +0.000 OA
ATOM     19  H   UNL     1      49.128   6.948  13.620  0.00  0.00    +0.000 HD
BRANCH  17  20
ATOM     20  C   UNL     1      49.769   7.019  16.101  0.00  0.00    +0.000 A 
ATOM     21  C   UNL     1      49.305   6.077  17.009  0.00  0.00    +0.000 A 
ATOM     22  S   UNL     1      50.549   5.174  17.751  0.00  0.00    +0.000 S 
ATOM     23  C   UNL     1      51.747   5.977  16.848  0.00  0.00    +0.000 A 
ATOM     24  N   UNL     1      53.060   5.663  16.991  0.00  0.00    +0.000 NA
ATOM     25  C   UNL     1      53.858   6.328  16.221  0.00  0.00    +0.000 A 
ATOM     26  N   UNL     1      53.473   7.293  15.313  0.00  0.00    +0.000 N 
ATOM     27  C   UNL     1      54.451   7.976  14.491  0.00  0.00    +0.000 C 
ATOM     28  C   UNL     1      52.142   7.657  15.165  0.00  0.00    +0.000 A 
ATOM     29  O   UNL     1      51.779   8.549  14.401  0.00  0.00    +0.000 OA
ATOM     30  C   UNL     1      51.209   6.927  16.004  0.00  0.00    +0.000 A 
ENDBRANCH  17  20
ENDBRANCH   2  16
TORSDOF 5
ENDMDL
MODEL 9
REMARK VINA RESULT:    -7.127      2.772      8.549
REMARK INTER + INTRA:          -9.241
REMARK INTER:                  -9.045
REMARK INTRA:                  -0.197
REMARK UNBOUND:                -0.031
REMARK  Name = 
REMARK  7 active torsions:
REMARK  status: ('A' for Active; 'I' for Inactive)
REMARK    1  A    between atoms: C_1  and  C_2
REMARK    2  A    between atoms: C_2  and  N_3
REMARK    3  A    between atoms: C_2  and  C_17
REMARK    4  A    between atoms: C_4  and  C_6
REMARK    5  A    between atoms: N_12  and  C_13
REMARK    6  A    between atoms: C_20  and  C_21
REMARK    7  A    between atoms: C_21  and  C_22
REMARK                            x       y       z     vdW  Elec       q    Type
REMARK                         _______ _______ _______ _____ _____    ______ ____
ROOT
ATOM      1  C   UNL     1      45.846   9.026  12.931  0.00  0.00    +0.000 C 
ATOM      2  C   UNL     1      46.882   8.024  12.412  0.00  0.00    +0.000 C 
ENDROOT
BRANCH   2   3
ATOM      3  C   UNL     1      48.038   7.862  13.382  0.00  0.00    +0.000 A 
ATOM      4  C   UNL     1      48.278   6.629  13.980  0.00  0.00    +0.000 A 
ATOM      5  N   UNL     1      49.301   6.411  14.843  0.00  0.00    +0.000 NA
ATOM      6  C   UNL     1      50.082   7.488  15.121  0.00  0.00    +0.000 A 
ATOM      7  C   UNL     1      49.818   8.732  14.562  0.00  0.00    +0.000 A 
ATOM      8  N   UNL     1      48.807   8.943  13.686  0.00  0.00    +0.000 NA
BRANCH   6   9
ATOM      9  C   UNL     1      51.235   7.295  16.070  0.00  0.00    +0.000 C 
BRANCH   9  10
ATOM     10  C   UNL     1      50.920   6.380  17.229  0.00  0.00    +0.000 A 
ATOM     11  C   UNL     1      51.504   5.116  17.315  0.00  0.00    +0.000 A 
ATOM     12  C   UNL     1      51.195   4.303  18.400  0.00  0.00    +0.000 A 
ATOM     13  C   UNL     1      50.328   4.771  19.376  0.00  0.00    +0.000 A 
ATOM     14  C   UNL     1      49.799   6.042  19.225  0.00  0.00    +0.000 A 
ATOM     15  N   UNL     1      50.069   6.852  18.176  0.00  0.00    +0.000 NA
ENDBRANCH   9  10
ENDBRANCH   6   9
ENDBRANCH   2   3
BRANCH   2  16
ATOM     16  N   UNL     1      46.224   6.753  12.171  0.00  0.00    +0.000 N 
ATOM     17  C   UNL     1      45.071   6.633  11.438  0.00  0.00    +0.000 C 
ATOM     18  O   UNL     1      44.457   7.611  11.021  0.00  0.00    +0.000 OA
ATOM     19  H   UNL     1      46.835   5.945  12.240  0.00  0.00    +0.000 HD
BRANCH  17  20
ATOM     20  C   UNL     1      44.574   5.264  11.241  0.00  0.00    +0.000 A 
ATOM     21  C   UNL     1      43.731   4.688  12.182  0.00  0.00    +0.000 A 
ATOM     22  S   UNL     1      43.303   3.077  11.816  0.00  0.00    +0.000 S 
ATOM     23  C   UNL     1      44.188   3.111  10.364  0.00  0.00    +0.000 A 
ATOM     24  N   UNL     1      44.229   2.032   9.542  0.00  0.00    +0.000 NA
ATOM     25  C   UNL     1      44.912   2.207   8.458  0.00  0.00    +0.000 A 
ATOM     26  N   UNL     1      45.574   3.366   8.110  0.00  0.00    +0.000 N 
ATOM     27  C   UNL     1      46.309   3.459   6.863  0.00  0.00    +0.000 C 
ATOM     28  C   UNL     1      45.578   4.476   8.942  0.00  0.00    +0.000 A 
ATOM     29  O   UNL     1      46.202   5.501   8.679  0.00  0.00    +0.000 OA
ATOM     30  C   UNL     1      44.812   4.327  10.166  0.00  0.00    +0.000 A 
ENDBRANCH  17  20
ENDBRANCH   2  16
TORSDOF 5
ENDMDL
