MODEL 1
REMARK VINA RESULT:    -8.476      0.000      0.000
REMARK INTER + INTRA:         -11.631
REMARK INTER:                 -10.954
REMARK INTRA:                  -0.677
REMARK UNBOUND:                -0.677
REMARK  Name = 
REMARK  5 active torsions:
REMARK  status: ('A' for Active; 'I' for Inactive)
REMARK    1  A    between atoms: C_2  and  C_4
REMARK    2  A    between atoms: C_7  and  N_8
REMARK    3  A    between atoms: N_8  and  C_9
REMARK    4  A    between atoms: C_9  and  C_10
REMARK    5  A    between atoms: C_14  and  C_15
REMARK                            x       y       z     vdW  Elec       q    Type
REMARK                         _______ _______ _______ _____ _____    ______ ____
ROOT
ATOM      1  N   UNL     1      43.787   4.795   9.808  0.00  0.00    +0.000 N 
ATOM      2  H   UNL     1      44.034   5.775   9.710  0.00  0.00    +0.000 HD
ENDROOT
BRANCH   1   6
ATOM      3  C   UNL     1      46.361   2.312   7.792  0.00  0.00    +0.000 A 
ATOM      4  C   UNL     1      46.391   3.680   7.578  0.00  0.00    +0.000 A 
ATOM      5  N   UNL     1      45.549   4.541   8.213  0.00  0.00    +0.000 NA
ATOM      6  C   UNL     1      44.663   3.992   9.071  0.00  0.00    +0.000 A 
ATOM      7  C   UNL     1      44.654   2.603   9.275  0.00  0.00    +0.000 A 
ATOM      8  N   UNL     1      45.480   1.727   8.647  0.00  0.00    +0.000 NA
BRANCH   3  10
ATOM      9  N   UNL     1      48.401   2.051   6.516  0.00  0.00    +0.000 N 
ATOM     10  C   UNL     1      47.321   1.425   7.081  0.00  0.00    +0.000 C 
ATOM     11  O   UNL     1      47.160   0.215   7.000  0.00  0.00    +0.000 OA
ATOM     12  H   UNL     1      49.085   1.508   6.011  0.00  0.00    +0.000 HD
ATOM     13  H   UNL     1      48.504   3.057   6.600  0.00  0.00    +0.000 HD
ENDBRANCH   3  10
ENDBRANCH   1   6
BRANCH   1  14
ATOM     14  C   UNL     1      43.618   4.428  11.210  0.00  0.00    +0.000 C 
BRANCH  14  15
ATOM     15  C   UNL     1      44.874   4.820  11.963  0.00  0.00    +0.000 A 
ATOM     16  C   UNL     1      45.509   3.912  12.815  0.00  0.00    +0.000 A 
ATOM     17  C   UNL     1      46.672   4.282  13.488  0.00  0.00    +0.000 A 
ATOM     18  C   UNL     1      47.218   5.553  13.297  0.00  0.00    +0.000 A 
ATOM     19  C   UNL     1      46.629   6.485  12.425  0.00  0.00    +0.000 A 
ATOM     20  C   UNL     1      45.432   6.103  11.794  0.00  0.00    +0.000 A 
BRANCH  19  21
ATOM     21  C   UNL     1      47.284   7.782  12.129  0.00  0.00    +0.000 A 
ATOM     22  C   UNL     1      46.574   8.986  12.246  0.00  0.00    +0.000 A 
ATOM     23  C   UNL     1      47.219  10.190  12.009  0.00  0.00    +0.000 A 
ATOM     24  N   UNL     1      48.519  10.288  11.669  0.00  0.00    +0.000 NA
ATOM     25  C   UNL     1      49.199   9.129  11.561  0.00  0.00    +0.000 A 
ATOM     26  C   UNL     1      48.637   7.878  11.773  0.00  0.00    +0.000 A 
ENDBRANCH  19  21
ENDBRANCH  14  15
ENDBRANCH   1  14
TORSDOF 5
ENDMDL
MODEL 2
REMARK VINA RESULT:    -8.308      2.202      3.446
REMARK INTER + INTRA:         -11.414
REMARK INTER:                 -10.742
REMARK INTRA:                  -0.672
REMARK UNBOUND:                -0.677
REMARK  Name = 
REMARK  5 active torsions:
REMARK  status: ('A' for Active; 'I' for Inactive)
REMARK    1  A    between atoms: C_2  and  C_4
REMARK    2  A    between atoms: C_7  and  N_8
REMARK    3  A    between atoms: N_8  and  C_9
REMARK    4  A    between atoms: C_9  and  C_10
REMARK    5  A    between atoms: C_14  and  C_15
REMARK                            x       y       z     vdW  Elec       q    Type
REMARK                         _______ _______ _______ _____ _____    ______ ____
ROOT
ATOM      1  N   UNL     1      43.864   4.770   9.861  0.00  0.00    +0.000 N 
ATOM      2  H   UNL     1      44.001   5.754   9.647  0.00  0.00    +0.000 HD
ENDROOT
BRANCH   1   6
ATOM      3  C   UNL     1      46.388   2.323   7.740  0.00  0.00    +0.000 A 
ATOM      4  C   UNL     1      46.358   3.686   7.493  0.00  0.00    +0.000 A 
ATOM      5  N   UNL     1      45.529   4.534   8.161  0.00  0.00    +0.000 NA
ATOM      6  C   UNL     1      44.718   3.979   9.087  0.00  0.00    +0.000 A 
ATOM      7  C   UNL     1      44.769   2.596   9.322  0.00  0.00    +0.000 A 
ATOM      8  N   UNL     1      45.583   1.732   8.663  0.00  0.00    +0.000 NA
BRANCH   3  10
ATOM      9  N   UNL     1      48.477   2.056   6.549  0.00  0.00    +0.000 N 
ATOM     10  C   UNL     1      47.331   1.450   6.989  0.00  0.00    +0.000 C 
ATOM     11  O   UNL     1      47.100   0.268   6.773  0.00  0.00    +0.000 OA
ATOM     12  H   UNL     1      49.155   1.522   6.024  0.00  0.00    +0.000 HD
ATOM     13  H   UNL     1      48.638   3.038   6.743  0.00  0.00    +0.000 HD
ENDBRANCH   3  10
ENDBRANCH   1   6
BRANCH   1  14
ATOM     14  C   UNL     1      43.904   4.528  11.298  0.00  0.00    +0.000 C 
BRANCH  14  15
ATOM     15  C   UNL     1      45.052   5.323  11.887  0.00  0.00    +0.000 A 
ATOM     16  C   UNL     1      45.407   6.567  11.357  0.00  0.00    +0.000 A 
ATOM     17  C   UNL     1      46.455   7.293  11.920  0.00  0.00    +0.000 A 
ATOM     18  C   UNL     1      47.141   6.790  13.028  0.00  0.00    +0.000 A 
ATOM     19  C   UNL     1      46.796   5.558  13.612  0.00  0.00    +0.000 A 
ATOM     20  C   UNL     1      45.765   4.825  12.997  0.00  0.00    +0.000 A 
BRANCH  19  21
ATOM     21  C   UNL     1      47.441   5.092  14.862  0.00  0.00    +0.000 A 
ATOM     22  C   UNL     1      48.300   5.935  15.582  0.00  0.00    +0.000 A 
ATOM     23  C   UNL     1      48.857   5.494  16.774  0.00  0.00    +0.000 A 
ATOM     24  N   UNL     1      48.618   4.280  17.307  0.00  0.00    +0.000 NA
ATOM     25  C   UNL     1      47.787   3.475  16.614  0.00  0.00    +0.000 A 
ATOM     26  C   UNL     1      47.190   3.826  15.413  0.00  0.00    +0.000 A 
ENDBRANCH  19  21
ENDBRANCH  14  15
ENDBRANCH   1  14
TORSDOF 5
ENDMDL
MODEL 3
REMARK VINA RESULT:    -7.966      1.016      1.685
REMARK INTER + INTRA:         -10.972
REMARK INTER:                 -10.354
REMARK INTRA:                  -0.618
REMARK UNBOUND:                -0.677
REMARK  Name = 
REMARK  5 active torsions:
REMARK  status: ('A' for Active; 'I' for Inactive)
REMARK    1  A    between atoms: C_2  and  C_4
REMARK    2  A    between atoms: C_7  and  N_8
REMARK    3  A    between atoms: N_8  and  C_9
REMARK    4  A    between atoms: C_9  and  C_10
REMARK    5  A    between atoms: C_14  and  C_15
REMARK                            x       y       z     vdW  Elec       q    Type
REMARK                         _______ _______ _______ _____ _____    ______ ____
ROOT
ATOM      1  N   UNL     1      43.784   3.696  10.399  0.00  0.00    +0.000 N 
ATOM      2  H   UNL     1      42.849   3.416  10.116  0.00  0.00    +0.000 HD
ENDROOT
BRANCH   1   6
ATOM      3  C   UNL     1      46.463   2.720   7.445  0.00  0.00    +0.000 A 
ATOM      4  C   UNL     1      46.024   1.760   8.342  0.00  0.00    +0.000 A 
ATOM      5  N   UNL     1      45.147   2.039   9.345  0.00  0.00    +0.000 NA
ATOM      6  C   UNL     1      44.721   3.317   9.434  0.00  0.00    +0.000 A 
ATOM      7  C   UNL     1      45.176   4.272   8.511  0.00  0.00    +0.000 A 
ATOM      8  N   UNL     1      46.055   4.016   7.508  0.00  0.00    +0.000 NA
BRANCH   3  10
ATOM      9  N   UNL     1      47.313   3.089   5.210  0.00  0.00    +0.000 N 
ATOM     10  C   UNL     1      47.408   2.348   6.357  0.00  0.00    +0.000 C 
ATOM     11  O   UNL     1      48.217   1.437   6.476  0.00  0.00    +0.000 OA
ATOM     12  H   UNL     1      47.920   2.881   4.430  0.00  0.00    +0.000 HD
ATOM     13  H   UNL     1      46.631   3.836   5.143  0.00  0.00    +0.000 HD
ENDBRANCH   3  10
ENDBRANCH   1   6
BRANCH   1  14
ATOM     14  C   UNL     1      43.819   5.097  10.803  0.00  0.00    +0.000 C 
BRANCH  14  15
ATOM     15  C   UNL     1      44.983   5.292  11.754  0.00  0.00    +0.000 A 
ATOM     16  C   UNL     1      45.209   4.394  12.802  0.00  0.00    +0.000 A 
ATOM     17  C   UNL     1      46.292   4.579  13.658  0.00  0.00    +0.000 A 
ATOM     18  C   UNL     1      47.169   5.648  13.461  0.00  0.00    +0.000 A 
ATOM     19  C   UNL     1      46.997   6.556  12.401  0.00  0.00    +0.000 A 
ATOM     20  C   UNL     1      45.870   6.374  11.579  0.00  0.00    +0.000 A 
BRANCH  19  21
ATOM     21  C   UNL     1      48.001   7.610  12.120  0.00  0.00    +0.000 A 
ATOM     22  C   UNL     1      49.350   7.280  11.924  0.00  0.00    +0.000 A 
ATOM     23  C   UNL     1      50.263   8.277  11.617  0.00  0.00    +0.000 A 
ATOM     24  N   UNL     1      49.936   9.577  11.484  0.00  0.00    +0.000 NA
ATOM     25  C   UNL     1      48.637   9.889  11.669  0.00  0.00    +0.000 A 
ATOM     26  C   UNL     1      47.655   8.962  11.984  0.00  0.00    +0.000 A 
ENDBRANCH  19  21
ENDBRANCH  14  15
ENDBRANCH   1  14
TORSDOF 5
ENDMDL
MODEL 4
REMARK VINA RESULT:    -7.376      3.787      7.162
REMARK INTER + INTRA:         -10.210
REMARK INTER:                  -9.903
REMARK INTRA:                  -0.306
REMARK UNBOUND:                -0.677
REMARK  Name = 
REMARK  5 active torsions:
REMARK  status: ('A' for Active; 'I' for Inactive)
REMARK    1  A    between atoms: C_2  and  C_4
REMARK    2  A    between atoms: C_7  and  N_8
REMARK    3  A    between atoms: N_8  and  C_9
REMARK    4  A    between atoms: C_9  and  C_10
REMARK    5  A    between atoms: C_14  and  C_15
REMARK                            x       y       z     vdW  Elec       q    Type
REMARK                         _______ _______ _______ _____ _____    ______ ____
ROOT
ATOM      1  N   UNL     1      47.471   6.470  12.524  0.00  0.00    +0.000 N 
ATOM      2  H   UNL     1      48.262   7.101  12.437  0.00  0.00    +0.000 HD
ENDROOT
BRANCH   1   6
ATOM      3  C   UNL     1      47.464   4.364  16.049  0.00  0.00    +0.000 A 
ATOM      4  C   UNL     1      48.220   5.519  15.920  0.00  0.00    +0.000 A 
ATOM      5  N   UNL     1      48.264   6.242  14.767  0.00  0.00    +0.000 NA
ATOM      6  C   UNL     1      47.531   5.774  13.735  0.00  0.00    +0.000 A 
ATOM      7  C   UNL     1      46.770   4.604  13.890  0.00  0.00    +0.000 A 
ATOM      8  N   UNL     1      46.718   3.865  15.028  0.00  0.00    +0.000 NA
BRANCH   3  10
ATOM      9  N   UNL     1      48.453   3.933  18.214  0.00  0.00    +0.000 N 
ATOM     10  C   UNL     1      47.443   3.628  17.342  0.00  0.00    +0.000 C 
ATOM     11  O   UNL     1      46.582   2.802  17.612  0.00  0.00    +0.000 OA
ATOM     12  H   UNL     1      48.502   3.462  19.106  0.00  0.00    +0.000 HD
ATOM     13  H   UNL     1      49.152   4.622  17.960  0.00  0.00    +0.000 HD
ENDBRANCH   3  10
ENDBRANCH   1   6
BRANCH   1  14
ATOM     14  C   UNL     1      46.213   7.153  12.246  0.00  0.00    +0.000 C 
BRANCH  14  15
ATOM     15  C   UNL     1      45.303   6.197  11.500  0.00  0.00    +0.000 A 
ATOM     16  C   UNL     1      43.916   6.249  11.672  0.00  0.00    +0.000 A 
ATOM     17  C   UNL     1      43.092   5.375  10.967  0.00  0.00    +0.000 A 
ATOM     18  C   UNL     1      43.646   4.458  10.070  0.00  0.00    +0.000 A 
ATOM     19  C   UNL     1      45.032   4.394   9.844  0.00  0.00    +0.000 A 
ATOM     20  C   UNL     1      45.845   5.256  10.602  0.00  0.00    +0.000 A 
BRANCH  19  21
ATOM     21  C   UNL     1      45.601   3.509   8.799  0.00  0.00    +0.000 A 
ATOM     22  C   UNL     1      46.205   4.050   7.655  0.00  0.00    +0.000 A 
ATOM     23  C   UNL     1      46.772   3.205   6.712  0.00  0.00    +0.000 A 
ATOM     24  N   UNL     1      46.788   1.863   6.824  0.00  0.00    +0.000 NA
ATOM     25  C   UNL     1      46.209   1.347   7.927  0.00  0.00    +0.000 A 
ATOM     26  C   UNL     1      45.613   2.112   8.919  0.00  0.00    +0.000 A 
ENDBRANCH  19  21
ENDBRANCH  14  15
ENDBRANCH   1  14
TORSDOF 5
ENDMDL
MODEL 5
REMARK VINA RESULT:    -7.359      3.108      7.076
REMARK INTER + INTRA:         -10.187
REMARK INTER:                  -9.555
REMARK INTRA:                  -0.632
REMARK UNBOUND:                -0.677
REMARK  Name = 
REMARK  5 active torsions:
REMARK  status: ('A' for Active; 'I' for Inactive)
REMARK    1  A    between atoms: C_2  and  C_4
REMARK    2  A    between atoms: C_7  and  N_8
REMARK    3  A    between atoms: N_8  and  C_9
REMARK    4  A    between atoms: C_9  and  C_10
REMARK    5  A    between atoms: C_14  and  C_15
REMARK                            x       y       z     vdW  Elec       q    Type
REMARK                         _______ _______ _______ _____ _____    ______ ____
ROOT
ATOM      1  N   UNL     1      44.800   6.830  12.666  0.00  0.00    +0.000 N 
ATOM      2  H   UNL     1      44.378   6.050  13.161  0.00  0.00    +0.000 HD
ENDROOT
BRANCH   1   6
ATOM      3  C   UNL     1      48.644   7.258  14.046  0.00  0.00    +0.000 A 
ATOM      4  C   UNL     1      47.871   8.372  13.759  0.00  0.00    +0.000 A 
ATOM      5  N   UNL     1      46.597   8.279  13.287  0.00  0.00    +0.000 NA
ATOM      6  C   UNL     1      46.113   7.033  13.101  0.00  0.00    +0.000 A 
ATOM      7  C   UNL     1      46.914   5.919  13.402  0.00  0.00    +0.000 A 
ATOM      8  N   UNL     1      48.188   5.989  13.867  0.00  0.00    +0.000 NA
BRANCH   3  10
ATOM      9  N   UNL     1      50.790   8.371  13.950  0.00  0.00    +0.000 N 
ATOM     10  C   UNL     1      50.024   7.425  14.577  0.00  0.00    +0.000 C 
ATOM     11  O   UNL     1      50.451   6.762  15.512  0.00  0.00    +0.000 OA
ATOM     12  H   UNL     1      51.739   8.528  14.256  0.00  0.00    +0.000 HD
ATOM     13  H   UNL     1      50.406   8.904  13.177  0.00  0.00    +0.000 HD
ENDBRANCH   3  10
ENDBRANCH   1   6
BRANCH   1  14
ATOM     14  C   UNL     1      44.623   6.702  11.223  0.00  0.00    +0.000 C 
BRANCH  14  15
ATOM     15  C   UNL     1      44.461   5.233  10.888  0.00  0.00    +0.000 A 
ATOM     16  C   UNL     1      43.529   4.443  11.567  0.00  0.00    +0.000 A 
ATOM     17  C   UNL     1      43.380   3.098  11.236  0.00  0.00    +0.000 A 
ATOM     18  C   UNL     1      44.147   2.539  10.212  0.00  0.00    +0.000 A 
ATOM     19  C   UNL     1      45.074   3.305   9.483  0.00  0.00    +0.000 A 
ATOM     20  C   UNL     1      45.237   4.648   9.867  0.00  0.00    +0.000 A 
BRANCH  19  21
ATOM     21  C   UNL     1      45.790   2.740   8.314  0.00  0.00    +0.000 A 
ATOM     22  C   UNL     1      46.096   3.541   7.205  0.00  0.00    +0.000 A 
ATOM     23  C   UNL     1      46.807   3.003   6.142  0.00  0.00    +0.000 A 
ATOM     24  N   UNL     1      47.241   1.729   6.102  0.00  0.00    +0.000 NA
ATOM     25  C   UNL     1      46.949   0.962   7.172  0.00  0.00    +0.000 A 
ATOM     26  C   UNL     1      46.239   1.411   8.276  0.00  0.00    +0.000 A 
ENDBRANCH  19  21
ENDBRANCH  14  15
ENDBRANCH   1  14
TORSDOF 5
ENDMDL
MODEL 6
REMARK VINA RESULT:    -6.737      5.331      7.922
REMARK INTER + INTRA:          -9.384
REMARK INTER:                  -8.717
REMARK INTRA:                  -0.666
REMARK UNBOUND:                -0.677
REMARK  Name = 
REMARK  5 active torsions:
REMARK  status: ('A' for Active; 'I' for Inactive)
REMARK    1  A    between atoms: C_2  and  C_4
REMARK    2  A    between atoms: C_7  and  N_8
REMARK    3  A    between atoms: N_8  and  C_9
REMARK    4  A    between atoms: C_9  and  C_10
REMARK    5  A    between atoms: C_14  and  C_15
REMARK                            x       y       z     vdW  Elec       q    Type
REMARK                         _______ _______ _______ _____ _____    ______ ____
ROOT
ATOM      1  N   UNL     1      47.932   5.244  16.218  0.00  0.00    +0.000 N 
ATOM      2  H   UNL     1      47.217   4.821  15.633  0.00  0.00    +0.000 HD
ENDROOT
BRANCH   1   6
ATOM      3  C   UNL     1      50.846   2.566  17.310  0.00  0.00    +0.000 A 
ATOM      4  C   UNL     1      49.634   2.121  16.807  0.00  0.00    +0.000 A 
ATOM      5  N   UNL     1      48.634   2.970  16.444  0.00  0.00    +0.000 NA
ATOM      6  C   UNL     1      48.877   4.289  16.605  0.00  0.00    +0.000 A 
ATOM      7  C   UNL     1      50.114   4.716  17.113  0.00  0.00    +0.000 A 
ATOM      8  N   UNL     1      51.121   3.886  17.487  0.00  0.00    +0.000 NA
BRANCH   3  10
ATOM      9  N   UNL     1      51.465   0.355  18.075  0.00  0.00    +0.000 N 
ATOM     10  C   UNL     1      51.907   1.587  17.671  0.00  0.00    +0.000 C 
ATOM     11  O   UNL     1      53.099   1.861  17.616  0.00  0.00    +0.000 OA
ATOM     12  H   UNL     1      52.134  -0.352  18.343  0.00  0.00    +0.000 HD
ATOM     13  H   UNL     1      50.471   0.160  18.111  0.00  0.00    +0.000 HD
ENDBRANCH   3  10
ENDBRANCH   1   6
BRANCH   1  14
ATOM     14  C   UNL     1      48.469   6.456  15.607  0.00  0.00    +0.000 C 
BRANCH  14  15
ATOM     15  C   UNL     1      47.955   6.544  14.184  0.00  0.00    +0.000 A 
ATOM     16  C   UNL     1      48.576   7.378  13.250  0.00  0.00    +0.000 A 
ATOM     17  C   UNL     1      48.101   7.436  11.941  0.00  0.00    +0.000 A 
ATOM     18  C   UNL     1      47.018   6.646  11.553  0.00  0.00    +0.000 A 
ATOM     19  C   UNL     1      46.384   5.770  12.452  0.00  0.00    +0.000 A 
ATOM     20  C   UNL     1      46.854   5.764  13.778  0.00  0.00    +0.000 A 
BRANCH  19  21
ATOM     21  C   UNL     1      45.320   4.841  12.001  0.00  0.00    +0.000 A 
ATOM     22  C   UNL     1      45.076   4.641  10.634  0.00  0.00    +0.000 A 
ATOM     23  C   UNL     1      44.107   3.733  10.235  0.00  0.00    +0.000 A 
ATOM     24  N   UNL     1      43.366   3.004  11.091  0.00  0.00    +0.000 NA
ATOM     25  C   UNL     1      43.607   3.196  12.404  0.00  0.00    +0.000 A 
ATOM     26  C   UNL     1      44.551   4.085  12.897  0.00  0.00    +0.000 A 
ENDBRANCH  19  21
ENDBRANCH  14  15
ENDBRANCH   1  14
TORSDOF 5
ENDMDL
MODEL 7
REMARK VINA RESULT:    -6.528      2.968      6.754
REMARK INTER + INTRA:          -9.113
REMARK INTER:                  -8.399
REMARK INTRA:                  -0.714
REMARK UNBOUND:                -0.677
REMARK  Name = 
REMARK  5 active torsions:
REMARK  status: ('A' for Active; 'I' for Inactive)
REMARK    1  A    between atoms: C_2  and  C_4
REMARK    2  A    between atoms: C_7  and  N_8
REMARK    3  A    between atoms: N_8  and  C_9
REMARK    4  A    between atoms: C_9  and  C_10
REMARK    5  A    between atoms: C_14  and  C_15
REMARK                            x       y       z     vdW  Elec       q    Type
REMARK                         _______ _______ _______ _____ _____    ______ ____
ROOT
ATOM      1  N   UNL     1      46.015   6.807  13.263  0.00  0.00    +0.000 N 
ATOM      2  H   UNL     1      46.052   5.845  13.585  0.00  0.00    +0.000 HD
ENDROOT
BRANCH   1   6
ATOM      3  C   UNL     1      49.660   8.177  11.961  0.00  0.00    +0.000 A 
ATOM      4  C   UNL     1      49.557   6.955  12.606  0.00  0.00    +0.000 A 
ATOM      5  N   UNL     1      48.373   6.466  13.066  0.00  0.00    +0.000 NA
ATOM      6  C   UNL     1      47.285   7.241  12.870  0.00  0.00    +0.000 A 
ATOM      7  C   UNL     1      47.413   8.473  12.210  0.00  0.00    +0.000 A 
ATOM      8  N   UNL     1      48.585   8.982  11.749  0.00  0.00    +0.000 NA
BRANCH   3  10
ATOM      9  N   UNL     1      52.050   7.850  11.774  0.00  0.00    +0.000 N 
ATOM     10  C   UNL     1      50.981   8.648  11.463  0.00  0.00    +0.000 C 
ATOM     11  O   UNL     1      51.109   9.681  10.820  0.00  0.00    +0.000 OA
ATOM     12  H   UNL     1      52.977   8.118  11.474  0.00  0.00    +0.000 HD
ATOM     13  H   UNL     1      51.910   7.001  12.309  0.00  0.00    +0.000 HD
ENDBRANCH   3  10
ENDBRANCH   1   6
BRANCH   1  14
ATOM     14  C   UNL     1      44.948   7.001  12.287  0.00  0.00    +0.000 C 
BRANCH  14  15
ATOM     15  C   UNL     1      44.525   5.643  11.763  0.00  0.00    +0.000 A 
ATOM     16  C   UNL     1      43.417   4.982  12.302  0.00  0.00    +0.000 A 
ATOM     17  C   UNL     1      43.031   3.742  11.798  0.00  0.00    +0.000 A 
ATOM     18  C   UNL     1      43.736   3.164  10.740  0.00  0.00    +0.000 A 
ATOM     19  C   UNL     1      44.837   3.809  10.149  0.00  0.00    +0.000 A 
ATOM     20  C   UNL     1      45.234   5.038  10.705  0.00  0.00    +0.000 A 
BRANCH  19  21
ATOM     21  C   UNL     1      45.500   3.251   8.945  0.00  0.00    +0.000 A 
ATOM     22  C   UNL     1      45.971   4.097   7.931  0.00  0.00    +0.000 A 
ATOM     23  C   UNL     1      46.629   3.557   6.836  0.00  0.00    +0.000 A 
ATOM     24  N   UNL     1      46.859   2.240   6.676  0.00  0.00    +0.000 NA
ATOM     25  C   UNL     1      46.408   1.430   7.656  0.00  0.00    +0.000 A 
ATOM     26  C   UNL     1      45.735   1.878   8.783  0.00  0.00    +0.000 A 
ENDBRANCH  19  21
ENDBRANCH  14  15
ENDBRANCH   1  14
TORSDOF 5
ENDMDL
MODEL 8
REMARK VINA RESULT:    -6.184      5.158      6.614
REMARK INTER + INTRA:          -8.668
REMARK INTER:                  -8.076
REMARK INTRA:                  -0.592
REMARK UNBOUND:                -0.677
REMARK  Name = 
REMARK  5 active torsions:
REMARK  status: ('A' for Active; 'I' for Inactive)
REMARK    1  A    between atoms: C_2  and  C_4
REMARK    2  A    between atoms: C_7  and  N_8
REMARK    3  A    between atoms: N_8  and  C_9
REMARK    4  A    between atoms: C_9  and  C_10
REMARK    5  A    between atoms: C_14  and  C_15
REMARK                            x       y       z     vdW  Elec       q    Type
REMARK                         _______ _______ _______ _____ _____    ______ ____
ROOT
ATOM      1  N   UNL     1      47.236   5.076  15.156  0.00  0.00    +0.000 N 
ATOM      2  H   UNL     1      48.211   5.204  14.903  0.00  0.00    +0.000 HD
ENDROOT
BRANCH   1   6
ATOM      3  C   UNL     1      44.892   4.234  11.891  0.00  0.00    +0.000 A 
ATOM      4  C   UNL     1      45.572   3.222  12.549  0.00  0.00    +0.000 A 
ATOM      5  N   UNL     1      46.370   3.454  13.628  0.00  0.00    +0.000 NA
ATOM      6  C   UNL     1      46.478   4.738  14.030  0.00  0.00    +0.000 A 
ATOM      7  C   UNL     1      45.777   5.747  13.350  0.00  0.00    +0.000 A 
ATOM      8  N   UNL     1      44.981   5.537  12.270  0.00  0.00    +0.000 NA
BRANCH   3  10
ATOM      9  N   UNL     1      43.676   4.974   9.934  0.00  0.00    +0.000 N 
ATOM     10  C   UNL     1      44.019   3.913  10.730  0.00  0.00    +0.000 C 
ATOM     11  O   UNL     1      43.628   2.777  10.498  0.00  0.00    +0.000 OA
ATOM     12  H   UNL     1      43.078   4.825   9.135  0.00  0.00    +0.000 HD
ATOM     13  H   UNL     1      44.017   5.903  10.155  0.00  0.00    +0.000 HD
ENDBRANCH   3  10
ENDBRANCH   1   6
BRANCH   1  14
ATOM     14  C   UNL     1      47.097   4.186  16.304  0.00  0.00    +0.000 C 
BRANCH  14  15
ATOM     15  C   UNL     1      48.481   3.754  16.746  0.00  0.00    +0.000 A 
ATOM     16  C   UNL     1      48.845   2.404  16.740  0.00  0.00    +0.000 A 
ATOM     17  C   UNL     1      50.126   2.025  17.133  0.00  0.00    +0.000 A 
ATOM     18  C   UNL     1      51.058   2.992  17.515  0.00  0.00    +0.000 A 
ATOM     19  C   UNL     1      50.744   4.363  17.505  0.00  0.00    +0.000 A 
ATOM     20  C   UNL     1      49.430   4.716  17.148  0.00  0.00    +0.000 A 
BRANCH  19  21
ATOM     21  C   UNL     1      51.775   5.391  17.786  0.00  0.00    +0.000 A 
ATOM     22  C   UNL     1      52.622   5.270  18.898  0.00  0.00    +0.000 A 
ATOM     23  C   UNL     1      53.609   6.220  19.116  0.00  0.00    +0.000 A 
ATOM     24  N   UNL     1      53.822   7.276  18.309  0.00  0.00    +0.000 NA
ATOM     25  C   UNL     1      53.009   7.386  17.238  0.00  0.00    +0.000 A 
ATOM     26  C   UNL     1      51.991   6.490  16.943  0.00  0.00    +0.000 A 
ENDBRANCH  19  21
ENDBRANCH  14  15
ENDBRANCH   1  14
TORSDOF 5
ENDMDL
MODEL 9
REMARK VINA RESULT:    -6.147      4.880      8.009
REMARK INTER + INTRA:          -8.621
REMARK INTER:                  -8.097
REMARK INTRA:                  -0.524
REMARK UNBOUND:                -0.677
REMARK  Name = 
REMARK  5 active torsions:
REMARK  status: ('A' for Active; 'I' for Inactive)
REMARK    1  A    between atoms: C_2  and  C_4
REMARK    2  A    between atoms: C_7  and  N_8
REMARK    3  A    between atoms: N_8  and  C_9
REMARK    4  A    between atoms: C_9  and  C_10
REMARK    5  A    between atoms: C_14  and  C_15
REMARK                            x       y       z     vdW  Elec       q    Type
REMARK                         _______ _______ _______ _____ _____    ______ ____
ROOT
ATOM      1  N   UNL     1      48.242   7.430  15.095  0.00  0.00    +0.000 N 
ATOM      2  H   UNL     1      47.243   7.379  15.277  0.00  0.00    +0.000 HD
ENDROOT
BRANCH   1   6
ATOM      3  C   UNL     1      50.431   4.813  17.379  0.00  0.00    +0.000 A 
ATOM      4  C   UNL     1      49.052   4.702  17.309  0.00  0.00    +0.000 A 
ATOM      5  N   UNL     1      48.283   5.554  16.576  0.00  0.00    +0.000 NA
ATOM      6  C   UNL     1      48.935   6.533  15.914  0.00  0.00    +0.000 A 
ATOM      7  C   UNL     1      50.334   6.624  15.996  0.00  0.00    +0.000 A 
ATOM      8  N   UNL     1      51.118   5.789  16.726  0.00  0.00    +0.000 NA
BRANCH   3  10
ATOM      9  N   UNL     1      51.089   2.526  17.815  0.00  0.00    +0.000 N 
ATOM     10  C   UNL     1      51.218   3.838  18.183  0.00  0.00    +0.000 C 
ATOM     11  O   UNL     1      51.932   4.182  19.115  0.00  0.00    +0.000 OA
ATOM     12  H   UNL     1      51.589   1.813  18.326  0.00  0.00    +0.000 HD
ATOM     13  H   UNL     1      50.488   2.274  17.038  0.00  0.00    +0.000 HD
ENDBRANCH   3  10
ENDBRANCH   1   6
BRANCH   1  14
ATOM     14  C   UNL     1      48.527   7.337  13.668  0.00  0.00    +0.000 C 
BRANCH  14  15
ATOM     15  C   UNL     1      47.213   7.366  12.913  0.00  0.00    +0.000 A 
ATOM     16  C   UNL     1      46.421   8.518  12.902  0.00  0.00    +0.000 A 
ATOM     17  C   UNL     1      45.224   8.535  12.190  0.00  0.00    +0.000 A 
ATOM     18  C   UNL     1      44.820   7.409  11.468  0.00  0.00    +0.000 A 
ATOM     19  C   UNL     1      45.602   6.242  11.427  0.00  0.00    +0.000 A 
ATOM     20  C   UNL     1      46.784   6.235  12.191  0.00  0.00    +0.000 A 
BRANCH  19  21
ATOM     21  C   UNL     1      45.234   5.099  10.557  0.00  0.00    +0.000 A 
ATOM     22  C   UNL     1      45.605   5.079   9.205  0.00  0.00    +0.000 A 
ATOM     23  C   UNL     1      45.290   3.979   8.421  0.00  0.00    +0.000 A 
ATOM     24  N   UNL     1      44.638   2.895   8.882  0.00  0.00    +0.000 NA
ATOM     25  C   UNL     1      44.287   2.915  10.184  0.00  0.00    +0.000 A 
ATOM     26  C   UNL     1      44.554   3.972  11.041  0.00  0.00    +0.000 A 
ENDBRANCH  19  21
ENDBRANCH  14  15
ENDBRANCH   1  14
TORSDOF 5
ENDMDL
