MODEL 1
REMARK VINA RESULT:    -7.454      0.000      0.000
REMARK INTER + INTRA:         -11.134
REMARK INTER:                 -10.504
REMARK INTRA:                  -0.631
REMARK UNBOUND:                -0.631
REMARK  Name = 
REMARK  8 active torsions:
REMARK  status: ('A' for Active; 'I' for Inactive)
REMARK    1  A    between atoms: N_1  and  C_2
REMARK    2  A    between atoms: C_2  and  C_3
REMARK    3  A    between atoms: C_7  and  C_8
REMARK    4  A    between atoms: C_8  and  C_9
REMARK    5  A    between atoms: C_9  and  S_10
REMARK    6  A    between atoms: S_10  and  C_11
REMARK    7  A    between atoms: C_14  and  C_15
REMARK    8  A    between atoms: C_19  and  N_20
REMARK                            x       y       z     vdW  Elec       q    Type
REMARK                         _______ _______ _______ _____ _____    ______ ____
ROOT
ATOM      1  C   UNL     1      45.334   5.046  12.795  0.00  0.00    +0.000 A 
ATOM      2  N   UNL     1      45.204   6.155  12.022  0.00  0.00    +0.000 NA
ATOM      3  C   UNL     1      46.293   6.945  11.910  0.00  0.00    +0.000 A 
ATOM      4  C   UNL     1      47.478   6.654  12.555  0.00  0.00    +0.000 A 
ATOM      5  N   UNL     1      47.642   5.555  13.344  0.00  0.00    +0.000 NA
ATOM      6  C   UNL     1      46.554   4.755  13.462  0.00  0.00    +0.000 A 
ENDROOT
BRANCH   4   7
ATOM      7  C   UNL     1      48.637   7.575  12.393  0.00  0.00    +0.000 C 
ATOM      8  N   UNL     1      49.873   7.006  12.522  0.00  0.00    +0.000 N 
ATOM      9  O   UNL     1      48.496   8.769  12.161  0.00  0.00    +0.000 OA
ATOM     10  H   UNL     1      49.963   6.012  12.696  0.00  0.00    +0.000 HD
ATOM     11  H   UNL     1      50.696   7.582  12.414  0.00  0.00    +0.000 HD
ENDBRANCH   4   7
BRANCH   6  12
ATOM     12  N   UNL     1      46.762   3.620  14.248  0.00  0.00    +0.000 N 
ATOM     13  H   UNL     1      46.924   3.919  15.206  0.00  0.00    +0.000 HD
ATOM     14  H   UNL     1      45.998   2.957  14.170  0.00  0.00    +0.000 HD
ENDBRANCH   6  12
BRANCH   1  15
ATOM     15  S   UNL     1      43.869   4.009  12.926  0.00  0.00    +0.000 S 
BRANCH  15  16
ATOM     16  C   UNL     1      43.447   3.854  11.142  0.00  0.00    +0.000 C 
BRANCH  16  17
ATOM     17  C   UNL     1      44.005   2.589  10.483  0.00  0.00    +0.000 C 
BRANCH  17  22
ATOM     18  C   UNL     1      46.556   2.248   7.635  0.00  0.00    +0.000 A 
ATOM     19  C   UNL     1      46.738   3.588   7.278  0.00  0.00    +0.000 A 
ATOM     20  C   UNL     1      46.062   4.599   7.962  0.00  0.00    +0.000 A 
ATOM     21  C   UNL     1      45.195   4.282   9.010  0.00  0.00    +0.000 A 
ATOM     22  C   UNL     1      44.997   2.949   9.394  0.00  0.00    +0.000 A 
ATOM     23  C   UNL     1      45.688   1.941   8.700  0.00  0.00    +0.000 A 
BRANCH  18  24
ATOM     24  C   UNL     1      47.282   1.150   6.898  0.00  0.00    +0.000 C 
BRANCH  24  25
ATOM     25  N   UNL     1      48.336   1.682   6.043  0.00  0.00    +0.000 NA
ATOM     26  H   UNL     1      48.105   2.639   5.784  0.00  0.00    +0.000 HD
ATOM     27  H   UNL     1      48.356   1.144   5.177  0.00  0.00    +0.000 HD
ENDBRANCH  24  25
ENDBRANCH  18  24
ENDBRANCH  17  22
ENDBRANCH  16  17
ENDBRANCH  15  16
ENDBRANCH   1  15
TORSDOF 8
ENDMDL
MODEL 2
REMARK VINA RESULT:    -7.242      3.203      6.811
REMARK INTER + INTRA:         -10.836
REMARK INTER:                 -10.367
REMARK INTRA:                  -0.470
REMARK UNBOUND:                -0.631
REMARK  Name = 
REMARK  8 active torsions:
REMARK  status: ('A' for Active; 'I' for Inactive)
REMARK    1  A    between atoms: N_1  and  C_2
REMARK    2  A    between atoms: C_2  and  C_3
REMARK    3  A    between atoms: C_7  and  C_8
REMARK    4  A    between atoms: C_8  and  C_9
REMARK    5  A    between atoms: C_9  and  S_10
REMARK    6  A    between atoms: S_10  and  C_11
REMARK    7  A    between atoms: C_14  and  C_15
REMARK    8  A    between atoms: C_19  and  N_20
REMARK                            x       y       z     vdW  Elec       q    Type
REMARK                         _______ _______ _______ _____ _____    ______ ____
ROOT
ATOM      1  C   UNL     1      44.891   4.040   9.333  0.00  0.00    +0.000 A 
ATOM      2  N   UNL     1      45.689   4.714   8.466  0.00  0.00    +0.000 NA
ATOM      3  C   UNL     1      46.485   3.967   7.671  0.00  0.00    +0.000 A 
ATOM      4  C   UNL     1      46.500   2.589   7.738  0.00  0.00    +0.000 A 
ATOM      5  N   UNL     1      45.719   1.880   8.601  0.00  0.00    +0.000 NA
ATOM      6  C   UNL     1      44.916   2.621   9.403  0.00  0.00    +0.000 A 
ENDROOT
BRANCH   4   7
ATOM      7  C   UNL     1      47.410   1.830   6.836  0.00  0.00    +0.000 C 
ATOM      8  N   UNL     1      48.497   2.516   6.371  0.00  0.00    +0.000 N 
ATOM      9  O   UNL     1      47.200   0.664   6.526  0.00  0.00    +0.000 OA
ATOM     10  H   UNL     1      48.658   3.475   6.657  0.00  0.00    +0.000 HD
ATOM     11  H   UNL     1      49.153   2.048   5.761  0.00  0.00    +0.000 HD
ENDBRANCH   4   7
BRANCH   6  12
ATOM     12  N   UNL     1      44.103   1.867  10.251  0.00  0.00    +0.000 N 
ATOM     13  H   UNL     1      43.342   2.459  10.576  0.00  0.00    +0.000 HD
ATOM     14  H   UNL     1      43.772   1.017   9.806  0.00  0.00    +0.000 HD
ENDBRANCH   6  12
BRANCH   1  15
ATOM     15  S   UNL     1      43.838   5.058  10.379  0.00  0.00    +0.000 S 
BRANCH  15  16
ATOM     16  C   UNL     1      45.077   5.591  11.630  0.00  0.00    +0.000 C 
BRANCH  16  17
ATOM     17  C   UNL     1      45.497   4.479  12.596  0.00  0.00    +0.000 C 
BRANCH  17  22
ATOM     18  C   UNL     1      47.578   4.779  15.807  0.00  0.00    +0.000 A 
ATOM     19  C   UNL     1      48.356   5.905  15.516  0.00  0.00    +0.000 A 
ATOM     20  C   UNL     1      48.199   6.578  14.304  0.00  0.00    +0.000 A 
ATOM     21  C   UNL     1      47.263   6.133  13.368  0.00  0.00    +0.000 A 
ATOM     22  C   UNL     1      46.466   5.011  13.633  0.00  0.00    +0.000 A 
ATOM     23  C   UNL     1      46.630   4.346  14.860  0.00  0.00    +0.000 A 
BRANCH  18  24
ATOM     24  C   UNL     1      47.745   4.045  17.115  0.00  0.00    +0.000 C 
BRANCH  24  25
ATOM     25  N   UNL     1      46.632   3.138  17.368  0.00  0.00    +0.000 NA
ATOM     26  H   UNL     1      46.431   3.127  18.366  0.00  0.00    +0.000 HD
ATOM     27  H   UNL     1      46.921   2.191  17.121  0.00  0.00    +0.000 HD
ENDBRANCH  24  25
ENDBRANCH  18  24
ENDBRANCH  17  22
ENDBRANCH  16  17
ENDBRANCH  15  16
ENDBRANCH   1  15
TORSDOF 8
ENDMDL
MODEL 3
REMARK VINA RESULT:    -7.180      1.495      1.993
REMARK INTER + INTRA:         -10.749
REMARK INTER:                 -10.289
REMARK INTRA:                  -0.460
REMARK UNBOUND:                -0.631
REMARK  Name = 
REMARK  8 active torsions:
REMARK  status: ('A' for Active; 'I' for Inactive)
REMARK    1  A    between atoms: N_1  and  C_2
REMARK    2  A    between atoms: C_2  and  C_3
REMARK    3  A    between atoms: C_7  and  C_8
REMARK    4  A    between atoms: C_8  and  C_9
REMARK    5  A    between atoms: C_9  and  S_10
REMARK    6  A    between atoms: S_10  and  C_11
REMARK    7  A    between atoms: C_14  and  C_15
REMARK    8  A    between atoms: C_19  and  N_20
REMARK                            x       y       z     vdW  Elec       q    Type
REMARK                         _______ _______ _______ _____ _____    ______ ____
ROOT
ATOM      1  C   UNL     1      45.386   5.376  12.380  0.00  0.00    +0.000 A 
ATOM      2  N   UNL     1      44.594   6.031  11.493  0.00  0.00    +0.000 NA
ATOM      3  C   UNL     1      44.682   7.379  11.484  0.00  0.00    +0.000 A 
ATOM      4  C   UNL     1      45.523   8.063  12.337  0.00  0.00    +0.000 A 
ATOM      5  N   UNL     1      46.326   7.439  13.244  0.00  0.00    +0.000 NA
ATOM      6  C   UNL     1      46.245   6.086  13.261  0.00  0.00    +0.000 A 
ENDROOT
BRANCH   4   7
ATOM      7  C   UNL     1      45.562   9.550  12.277  0.00  0.00    +0.000 C 
ATOM      8  N   UNL     1      44.367  10.186  12.468  0.00  0.00    +0.000 N 
ATOM      9  O   UNL     1      46.597  10.170  12.068  0.00  0.00    +0.000 OA
ATOM     10  H   UNL     1      43.527   9.651  12.657  0.00  0.00    +0.000 HD
ATOM     11  H   UNL     1      44.335  11.196  12.446  0.00  0.00    +0.000 HD
ENDBRANCH   4   7
BRANCH   6  12
ATOM     12  N   UNL     1      47.104   5.473  14.175  0.00  0.00    +0.000 N 
ATOM     13  H   UNL     1      47.956   6.025  14.234  0.00  0.00    +0.000 HD
ATOM     14  H   UNL     1      46.664   5.338  15.079  0.00  0.00    +0.000 HD
ENDBRANCH   6  12
BRANCH   1  15
ATOM     15  S   UNL     1      45.252   3.581  12.370  0.00  0.00    +0.000 S 
BRANCH  15  16
ATOM     16  C   UNL     1      43.803   3.391  11.253  0.00  0.00    +0.000 C 
BRANCH  16  17
ATOM     17  C   UNL     1      43.990   2.318  10.176  0.00  0.00    +0.000 C 
BRANCH  17  22
ATOM     18  C   UNL     1      46.756   2.205   7.517  0.00  0.00    +0.000 A 
ATOM     19  C   UNL     1      46.827   3.553   7.149  0.00  0.00    +0.000 A 
ATOM     20  C   UNL     1      46.007   4.498   7.767  0.00  0.00    +0.000 A 
ATOM     21  C   UNL     1      45.105   4.106   8.759  0.00  0.00    +0.000 A 
ATOM     22  C   UNL     1      45.014   2.764   9.152  0.00  0.00    +0.000 A 
ATOM     23  C   UNL     1      45.850   1.824   8.525  0.00  0.00    +0.000 A 
BRANCH  18  24
ATOM     24  C   UNL     1      47.638   1.178   6.851  0.00  0.00    +0.000 C 
BRANCH  24  25
ATOM     25  N   UNL     1      48.412   1.760   5.761  0.00  0.00    +0.000 NA
ATOM     26  H   UNL     1      47.835   2.435   5.265  0.00  0.00    +0.000 HD
ATOM     27  H   UNL     1      48.637   1.024   5.092  0.00  0.00    +0.000 HD
ENDBRANCH  24  25
ENDBRANCH  18  24
ENDBRANCH  17  22
ENDBRANCH  16  17
ENDBRANCH  15  16
ENDBRANCH   1  15
TORSDOF 8
ENDMDL
MODEL 4
REMARK VINA RESULT:    -7.129      3.170      6.412
REMARK INTER + INTRA:         -10.677
REMARK INTER:                 -10.099
REMARK INTRA:                  -0.578
REMARK UNBOUND:                -0.631
REMARK  Name = 
REMARK  8 active torsions:
REMARK  status: ('A' for Active; 'I' for Inactive)
REMARK    1  A    between atoms: N_1  and  C_2
REMARK    2  A    between atoms: C_2  and  C_3
REMARK    3  A    between atoms: C_7  and  C_8
REMARK    4  A    between atoms: C_8  and  C_9
REMARK    5  A    between atoms: C_9  and  S_10
REMARK    6  A    between atoms: S_10  and  C_11
REMARK    7  A    between atoms: C_14  and  C_15
REMARK    8  A    between atoms: C_19  and  N_20
REMARK                            x       y       z     vdW  Elec       q    Type
REMARK                         _______ _______ _______ _____ _____    ______ ____
ROOT
ATOM      1  C   UNL     1      45.005   3.063   9.489  0.00  0.00    +0.000 A 
ATOM      2  N   UNL     1      45.243   1.781   9.109  0.00  0.00    +0.000 NA
ATOM      3  C   UNL     1      46.063   1.607   8.050  0.00  0.00    +0.000 A 
ATOM      4  C   UNL     1      46.625   2.672   7.376  0.00  0.00    +0.000 A 
ATOM      5  N   UNL     1      46.403   3.971   7.725  0.00  0.00    +0.000 NA
ATOM      6  C   UNL     1      45.581   4.156   8.787  0.00  0.00    +0.000 A 
ENDROOT
BRANCH   4   7
ATOM      7  C   UNL     1      47.514   2.405   6.212  0.00  0.00    +0.000 C 
ATOM      8  N   UNL     1      47.340   3.223   5.130  0.00  0.00    +0.000 N 
ATOM      9  O   UNL     1      48.348   1.509   6.216  0.00  0.00    +0.000 OA
ATOM     10  H   UNL     1      46.655   3.970   5.157  0.00  0.00    +0.000 HD
ATOM     11  H   UNL     1      47.921   3.093   4.314  0.00  0.00    +0.000 HD
ENDBRANCH   4   7
BRANCH   6  12
ATOM     12  N   UNL     1      45.400   5.494   9.142  0.00  0.00    +0.000 N 
ATOM     13  H   UNL     1      45.036   5.527  10.091  0.00  0.00    +0.000 HD
ATOM     14  H   UNL     1      46.250   6.037   9.031  0.00  0.00    +0.000 HD
ENDBRANCH   6  12
BRANCH   1  15
ATOM     15  S   UNL     1      43.912   3.268  10.903  0.00  0.00    +0.000 S 
BRANCH  15  16
ATOM     16  C   UNL     1      45.162   3.303  12.252  0.00  0.00    +0.000 C 
BRANCH  16  17
ATOM     17  C   UNL     1      44.936   4.419  13.275  0.00  0.00    +0.000 C 
BRANCH  17  22
ATOM     18  C   UNL     1      45.408   7.983  11.929  0.00  0.00    +0.000 A 
ATOM     19  C   UNL     1      46.788   8.147  12.088  0.00  0.00    +0.000 A 
ATOM     20  C   UNL     1      47.568   7.112  12.605  0.00  0.00    +0.000 A 
ATOM     21  C   UNL     1      46.976   5.900  12.970  0.00  0.00    +0.000 A 
ATOM     22  C   UNL     1      45.597   5.704  12.817  0.00  0.00    +0.000 A 
ATOM     23  C   UNL     1      44.825   6.753  12.290  0.00  0.00    +0.000 A 
BRANCH  18  24
ATOM     24  C   UNL     1      44.559   9.100  11.373  0.00  0.00    +0.000 C 
BRANCH  24  25
ATOM     25  N   UNL     1      43.258   8.616  10.929  0.00  0.00    +0.000 NA
ATOM     26  H   UNL     1      43.330   7.628  10.695  0.00  0.00    +0.000 HD
ATOM     27  H   UNL     1      43.007   9.100  10.066  0.00  0.00    +0.000 HD
ENDBRANCH  24  25
ENDBRANCH  18  24
ENDBRANCH  17  22
ENDBRANCH  16  17
ENDBRANCH  15  16
ENDBRANCH   1  15
TORSDOF 8
ENDMDL
MODEL 5
REMARK VINA RESULT:    -6.905      2.079      3.155
REMARK INTER + INTRA:         -10.361
REMARK INTER:                  -9.916
REMARK INTRA:                  -0.445
REMARK UNBOUND:                -0.631
REMARK  Name = 
REMARK  8 active torsions:
REMARK  status: ('A' for Active; 'I' for Inactive)
REMARK    1  A    between atoms: N_1  and  C_2
REMARK    2  A    between atoms: C_2  and  C_3
REMARK    3  A    between atoms: C_7  and  C_8
REMARK    4  A    between atoms: C_8  and  C_9
REMARK    5  A    between atoms: C_9  and  S_10
REMARK    6  A    between atoms: S_10  and  C_11
REMARK    7  A    between atoms: C_14  and  C_15
REMARK    8  A    between atoms: C_19  and  N_20
REMARK                            x       y       z     vdW  Elec       q    Type
REMARK                         _______ _______ _______ _____ _____    ______ ____
ROOT
ATOM      1  C   UNL     1      46.420   5.568  12.449  0.00  0.00    +0.000 A 
ATOM      2  N   UNL     1      45.712   4.593  13.075  0.00  0.00    +0.000 NA
ATOM      3  C   UNL     1      46.181   4.180  14.273  0.00  0.00    +0.000 A 
ATOM      4  C   UNL     1      47.326   4.709  14.833  0.00  0.00    +0.000 A 
ATOM      5  N   UNL     1      48.064   5.683  14.230  0.00  0.00    +0.000 NA
ATOM      6  C   UNL     1      47.602   6.104  13.026  0.00  0.00    +0.000 A 
ENDROOT
BRANCH   4   7
ATOM      7  C   UNL     1      47.788   4.200  16.153  0.00  0.00    +0.000 C 
ATOM      8  N   UNL     1      46.878   3.465  16.860  0.00  0.00    +0.000 N 
ATOM      9  O   UNL     1      48.911   4.426  16.585  0.00  0.00    +0.000 OA
ATOM     10  H   UNL     1      45.960   3.277  16.473  0.00  0.00    +0.000 HD
ATOM     11  H   UNL     1      47.140   3.087  17.760  0.00  0.00    +0.000 HD
ENDBRANCH   4   7
BRANCH   6  12
ATOM     12  N   UNL     1      48.359   7.124  12.449  0.00  0.00    +0.000 N 
ATOM     13  H   UNL     1      49.210   7.239  12.993  0.00  0.00    +0.000 HD
ATOM     14  H   UNL     1      48.545   6.952  11.466  0.00  0.00    +0.000 HD
ENDBRANCH   6  12
BRANCH   1  15
ATOM     15  S   UNL     1      45.774   6.102  10.856  0.00  0.00    +0.000 S 
BRANCH  15  16
ATOM     16  C   UNL     1      44.533   4.773  10.571  0.00  0.00    +0.000 C 
BRANCH  16  17
ATOM     17  C   UNL     1      44.222   4.527   9.092  0.00  0.00    +0.000 C 
BRANCH  17  22
ATOM     18  C   UNL     1      46.988   2.608   7.249  0.00  0.00    +0.000 A 
ATOM     19  C   UNL     1      46.717   1.296   7.653  0.00  0.00    +0.000 A 
ATOM     20  C   UNL     1      45.638   1.025   8.495  0.00  0.00    +0.000 A 
ATOM     21  C   UNL     1      44.819   2.063   8.945  0.00  0.00    +0.000 A 
ATOM     22  C   UNL     1      45.062   3.386   8.554  0.00  0.00    +0.000 A 
ATOM     23  C   UNL     1      46.148   3.644   7.701  0.00  0.00    +0.000 A 
BRANCH  18  24
ATOM     24  C   UNL     1      48.155   2.908   6.340  0.00  0.00    +0.000 C 
BRANCH  24  25
ATOM     25  N   UNL     1      48.507   1.756   5.520  0.00  0.00    +0.000 NA
ATOM     26  H   UNL     1      49.346   1.321   5.897  0.00  0.00    +0.000 HD
ATOM     27  H   UNL     1      48.747   2.083   4.584  0.00  0.00    +0.000 HD
ENDBRANCH  24  25
ENDBRANCH  18  24
ENDBRANCH  17  22
ENDBRANCH  16  17
ENDBRANCH  15  16
ENDBRANCH   1  15
TORSDOF 8
ENDMDL
MODEL 6
REMARK VINA RESULT:    -6.883      2.844      6.316
REMARK INTER + INTRA:         -10.330
REMARK INTER:                  -9.883
REMARK INTRA:                  -0.447
REMARK UNBOUND:                -0.631
REMARK  Name = 
REMARK  8 active torsions:
REMARK  status: ('A' for Active; 'I' for Inactive)
REMARK    1  A    between atoms: N_1  and  C_2
REMARK    2  A    between atoms: C_2  and  C_3
REMARK    3  A    between atoms: C_7  and  C_8
REMARK    4  A    between atoms: C_8  and  C_9
REMARK    5  A    between atoms: C_9  and  S_10
REMARK    6  A    between atoms: S_10  and  C_11
REMARK    7  A    between atoms: C_14  and  C_15
REMARK    8  A    between atoms: C_19  and  N_20
REMARK                            x       y       z     vdW  Elec       q    Type
REMARK                         _______ _______ _______ _____ _____    ______ ____
ROOT
ATOM      1  C   UNL     1      44.901   4.016   9.192  0.00  0.00    +0.000 A 
ATOM      2  N   UNL     1      45.663   4.812   8.399  0.00  0.00    +0.000 NA
ATOM      3  C   UNL     1      46.528   4.189   7.570  0.00  0.00    +0.000 A 
ATOM      4  C   UNL     1      46.646   2.815   7.533  0.00  0.00    +0.000 A 
ATOM      5  N   UNL     1      45.903   1.986   8.319  0.00  0.00    +0.000 NA
ATOM      6  C   UNL     1      45.031   2.602   9.155  0.00  0.00    +0.000 A 
ENDROOT
BRANCH   4   7
ATOM      7  C   UNL     1      47.627   2.197   6.599  0.00  0.00    +0.000 C 
ATOM      8  N   UNL     1      47.949   2.938   5.496  0.00  0.00    +0.000 N 
ATOM      9  O   UNL     1      48.115   1.092   6.800  0.00  0.00    +0.000 OA
ATOM     10  H   UNL     1      47.545   3.858   5.362  0.00  0.00    +0.000 HD
ATOM     11  H   UNL     1      48.617   2.572   4.832  0.00  0.00    +0.000 HD
ENDBRANCH   4   7
BRANCH   6  12
ATOM     12  N   UNL     1      44.260   1.727   9.922  0.00  0.00    +0.000 N 
ATOM     13  H   UNL     1      43.511   2.258  10.359  0.00  0.00    +0.000 HD
ATOM     14  H   UNL     1      43.915   0.944   9.376  0.00  0.00    +0.000 HD
ENDBRANCH   6  12
BRANCH   1  15
ATOM     15  S   UNL     1      43.755   4.870  10.285  0.00  0.00    +0.000 S 
BRANCH  15  16
ATOM     16  C   UNL     1      44.651   4.674  11.880  0.00  0.00    +0.000 C 
BRANCH  16  17
ATOM     17  C   UNL     1      44.436   5.833  12.856  0.00  0.00    +0.000 C 
BRANCH  17  22
ATOM     18  C   UNL     1      47.884   7.475  12.468  0.00  0.00    +0.000 A 
ATOM     19  C   UNL     1      47.521   8.802  12.214  0.00  0.00    +0.000 A 
ATOM     20  C   UNL     1      46.176   9.173  12.189  0.00  0.00    +0.000 A 
ATOM     21  C   UNL     1      45.178   8.222  12.416  0.00  0.00    +0.000 A 
ATOM     22  C   UNL     1      45.512   6.887  12.678  0.00  0.00    +0.000 A 
ATOM     23  C   UNL     1      46.870   6.528  12.706  0.00  0.00    +0.000 A 
BRANCH  18  24
ATOM     24  C   UNL     1      49.336   7.066  12.494  0.00  0.00    +0.000 C 
BRANCH  24  25
ATOM     25  N   UNL     1      49.869   7.060  13.851  0.00  0.00    +0.000 NA
ATOM     26  H   UNL     1      49.167   6.684  14.484  0.00  0.00    +0.000 HD
ATOM     27  H   UNL     1      50.032   8.025  14.141  0.00  0.00    +0.000 HD
ENDBRANCH  24  25
ENDBRANCH  18  24
ENDBRANCH  17  22
ENDBRANCH  16  17
ENDBRANCH  15  16
ENDBRANCH   1  15
TORSDOF 8
ENDMDL
MODEL 7
REMARK VINA RESULT:    -6.796      1.387      1.897
REMARK INTER + INTRA:         -10.208
REMARK INTER:                  -9.829
REMARK INTRA:                  -0.379
REMARK UNBOUND:                -0.631
REMARK  Name = 
REMARK  8 active torsions:
REMARK  status: ('A' for Active; 'I' for Inactive)
REMARK    1  A    between atoms: N_1  and  C_2
REMARK    2  A    between atoms: C_2  and  C_3
REMARK    3  A    between atoms: C_7  and  C_8
REMARK    4  A    between atoms: C_8  and  C_9
REMARK    5  A    between atoms: C_9  and  S_10
REMARK    6  A    between atoms: S_10  and  C_11
REMARK    7  A    between atoms: C_14  and  C_15
REMARK    8  A    between atoms: C_19  and  N_20
REMARK                            x       y       z     vdW  Elec       q    Type
REMARK                         _______ _______ _______ _____ _____    ______ ____
ROOT
ATOM      1  C   UNL     1      46.179   5.523  12.601  0.00  0.00    +0.000 A 
ATOM      2  N   UNL     1      46.504   6.753  12.126  0.00  0.00    +0.000 NA
ATOM      3  C   UNL     1      47.580   7.351  12.683  0.00  0.00    +0.000 A 
ATOM      4  C   UNL     1      48.309   6.754  13.691  0.00  0.00    +0.000 A 
ATOM      5  N   UNL     1      48.007   5.525  14.197  0.00  0.00    +0.000 NA
ATOM      6  C   UNL     1      46.929   4.917  13.644  0.00  0.00    +0.000 A 
ENDROOT
BRANCH   4   7
ATOM      7  C   UNL     1      49.479   7.476  14.264  0.00  0.00    +0.000 C 
ATOM      8  N   UNL     1      50.573   7.576  13.450  0.00  0.00    +0.000 N 
ATOM      9  O   UNL     1      49.467   7.949  15.393  0.00  0.00    +0.000 OA
ATOM     10  H   UNL     1      50.552   7.192  12.513  0.00  0.00    +0.000 HD
ATOM     11  H   UNL     1      51.394   8.063  13.784  0.00  0.00    +0.000 HD
ENDBRANCH   4   7
BRANCH   6  12
ATOM     12  N   UNL     1      46.665   3.646  14.158  0.00  0.00    +0.000 N 
ATOM     13  H   UNL     1      45.690   3.612  14.445  0.00  0.00    +0.000 HD
ATOM     14  H   UNL     1      46.902   2.911  13.499  0.00  0.00    +0.000 HD
ENDBRANCH   6  12
BRANCH   1  15
ATOM     15  S   UNL     1      44.744   4.747  11.841  0.00  0.00    +0.000 S 
BRANCH  15  16
ATOM     16  C   UNL     1      45.069   5.167  10.080  0.00  0.00    +0.000 C 
BRANCH  16  17
ATOM     17  C   UNL     1      44.219   4.367   9.088  0.00  0.00    +0.000 C 
BRANCH  17  22
ATOM     18  C   UNL     1      46.660   2.584   6.723  0.00  0.00    +0.000 A 
ATOM     19  C   UNL     1      46.693   1.305   7.289  0.00  0.00    +0.000 A 
ATOM     20  C   UNL     1      45.919   1.009   8.411  0.00  0.00    +0.000 A 
ATOM     21  C   UNL     1      45.104   1.989   8.983  0.00  0.00    +0.000 A 
ATOM     22  C   UNL     1      45.046   3.278   8.435  0.00  0.00    +0.000 A 
ATOM     23  C   UNL     1      45.826   3.560   7.301  0.00  0.00    +0.000 A 
BRANCH  18  24
ATOM     24  C   UNL     1      47.497   2.911   5.511  0.00  0.00    +0.000 C 
BRANCH  24  25
ATOM     25  N   UNL     1      48.477   1.866   5.236  0.00  0.00    +0.000 NA
ATOM     26  H   UNL     1      48.051   1.156   4.645  0.00  0.00    +0.000 HD
ATOM     27  H   UNL     1      48.716   1.406   6.115  0.00  0.00    +0.000 HD
ENDBRANCH  24  25
ENDBRANCH  18  24
ENDBRANCH  17  22
ENDBRANCH  16  17
ENDBRANCH  15  16
ENDBRANCH   1  15
TORSDOF 8
ENDMDL
MODEL 8
REMARK VINA RESULT:    -6.114      2.994      4.327
REMARK INTER + INTRA:          -9.247
REMARK INTER:                  -8.856
REMARK INTRA:                  -0.391
REMARK UNBOUND:                -0.631
REMARK  Name = 
REMARK  8 active torsions:
REMARK  status: ('A' for Active; 'I' for Inactive)
REMARK    1  A    between atoms: N_1  and  C_2
REMARK    2  A    between atoms: C_2  and  C_3
REMARK    3  A    between atoms: C_7  and  C_8
REMARK    4  A    between atoms: C_8  and  C_9
REMARK    5  A    between atoms: C_9  and  S_10
REMARK    6  A    between atoms: S_10  and  C_11
REMARK    7  A    between atoms: C_14  and  C_15
REMARK    8  A    between atoms: C_19  and  N_20
REMARK                            x       y       z     vdW  Elec       q    Type
REMARK                         _______ _______ _______ _____ _____    ______ ____
ROOT
ATOM      1  C   UNL     1      47.764   6.444  14.207  0.00  0.00    +0.000 A 
ATOM      2  N   UNL     1      46.914   5.416  13.955  0.00  0.00    +0.000 NA
ATOM      3  C   UNL     1      46.903   4.407  14.853  0.00  0.00    +0.000 A 
ATOM      4  C   UNL     1      47.718   4.409  15.967  0.00  0.00    +0.000 A 
ATOM      5  N   UNL     1      48.587   5.420  16.248  0.00  0.00    +0.000 NA
ATOM      6  C   UNL     1      48.606   6.438  15.352  0.00  0.00    +0.000 A 
ENDROOT
BRANCH   4   7
ATOM      7  C   UNL     1      47.658   3.259  16.911  0.00  0.00    +0.000 C 
ATOM      8  N   UNL     1      48.833   2.587  17.105  0.00  0.00    +0.000 N 
ATOM      9  O   UNL     1      46.624   2.930  17.478  0.00  0.00    +0.000 OA
ATOM     10  H   UNL     1      49.679   2.889  16.638  0.00  0.00    +0.000 HD
ATOM     11  H   UNL     1      48.853   1.802  17.742  0.00  0.00    +0.000 HD
ENDBRANCH   4   7
BRANCH   6  12
ATOM     12  N   UNL     1      49.480   7.474  15.683  0.00  0.00    +0.000 N 
ATOM     13  H   UNL     1      49.163   8.322  15.220  0.00  0.00    +0.000 HD
ATOM     14  H   UNL     1      49.572   7.590  16.687  0.00  0.00    +0.000 HD
ENDBRANCH   6  12
BRANCH   1  15
ATOM     15  S   UNL     1      47.758   7.776  12.997  0.00  0.00    +0.000 S 
BRANCH  15  16
ATOM     16  C   UNL     1      47.195   6.840  11.517  0.00  0.00    +0.000 C 
BRANCH  16  17
ATOM     17  C   UNL     1      45.683   6.907  11.284  0.00  0.00    +0.000 C 
BRANCH  17  22
ATOM     18  C   UNL     1      45.246   3.882   8.962  0.00  0.00    +0.000 A 
ATOM     19  C   UNL     1      44.344   3.107   9.700  0.00  0.00    +0.000 A 
ATOM     20  C   UNL     1      43.861   3.563  10.926  0.00  0.00    +0.000 A 
ATOM     21  C   UNL     1      44.275   4.798  11.431  0.00  0.00    +0.000 A 
ATOM     22  C   UNL     1      45.173   5.598  10.713  0.00  0.00    +0.000 A 
ATOM     23  C   UNL     1      45.647   5.129   9.476  0.00  0.00    +0.000 A 
BRANCH  18  24
ATOM     24  C   UNL     1      45.775   3.393   7.636  0.00  0.00    +0.000 C 
BRANCH  24  25
ATOM     25  N   UNL     1      46.755   4.315   7.075  0.00  0.00    +0.000 NA
ATOM     26  H   UNL     1      46.290   5.183   6.819  0.00  0.00    +0.000 HD
ATOM     27  H   UNL     1      47.120   3.916   6.210  0.00  0.00    +0.000 HD
ENDBRANCH  24  25
ENDBRANCH  18  24
ENDBRANCH  17  22
ENDBRANCH  16  17
ENDBRANCH  15  16
ENDBRANCH   1  15
TORSDOF 8
ENDMDL
MODEL 9
REMARK VINA RESULT:    -5.969      2.213      2.919
REMARK INTER + INTRA:          -9.042
REMARK INTER:                  -8.660
REMARK INTRA:                  -0.382
REMARK UNBOUND:                -0.631
REMARK  Name = 
REMARK  8 active torsions:
REMARK  status: ('A' for Active; 'I' for Inactive)
REMARK    1  A    between atoms: N_1  and  C_2
REMARK    2  A    between atoms: C_2  and  C_3
REMARK    3  A    between atoms: C_7  and  C_8
REMARK    4  A    between atoms: C_8  and  C_9
REMARK    5  A    between atoms: C_9  and  S_10
REMARK    6  A    between atoms: S_10  and  C_11
REMARK    7  A    between atoms: C_14  and  C_15
REMARK    8  A    between atoms: C_19  and  N_20
REMARK                            x       y       z     vdW  Elec       q    Type
REMARK                         _______ _______ _______ _____ _____    ______ ____
ROOT
ATOM      1  C   UNL     1      46.030   7.182  12.776  0.00  0.00    +0.000 A 
ATOM      2  N   UNL     1      46.465   5.952  13.153  0.00  0.00    +0.000 NA
ATOM      3  C   UNL     1      47.533   5.916  13.980  0.00  0.00    +0.000 A 
ATOM      4  C   UNL     1      48.161   7.065  14.413  0.00  0.00    +0.000 A 
ATOM      5  N   UNL     1      47.756   8.315  14.050  0.00  0.00    +0.000 NA
ATOM      6  C   UNL     1      46.685   8.361  13.220  0.00  0.00    +0.000 A 
ENDROOT
BRANCH   4   7
ATOM      7  C   UNL     1      49.339   6.950  15.317  0.00  0.00    +0.000 C 
ATOM      8  N   UNL     1      50.041   8.104  15.531  0.00  0.00    +0.000 N 
ATOM      9  O   UNL     1      49.664   5.890  15.837  0.00  0.00    +0.000 OA
ATOM     10  H   UNL     1      49.741   8.973  15.104  0.00  0.00    +0.000 HD
ATOM     11  H   UNL     1      50.845   8.087  16.143  0.00  0.00    +0.000 HD
ENDBRANCH   4   7
BRANCH   6  12
ATOM     12  N   UNL     1      46.272   9.654  12.892  0.00  0.00    +0.000 N 
ATOM     13  H   UNL     1      45.931  10.105  13.736  0.00  0.00    +0.000 HD
ATOM     14  H   UNL     1      47.007  10.184  12.435  0.00  0.00    +0.000 HD
ENDBRANCH   6  12
BRANCH   1  15
ATOM     15  S   UNL     1      44.604   7.202  11.677  0.00  0.00    +0.000 S 
BRANCH  15  16
ATOM     16  C   UNL     1      44.806   5.553  10.887  0.00  0.00    +0.000 C 
BRANCH  16  17
ATOM     17  C   UNL     1      45.637   5.582   9.601  0.00  0.00    +0.000 C 
BRANCH  17  22
ATOM     18  C   UNL     1      46.510   2.718   7.200  0.00  0.00    +0.000 A 
ATOM     19  C   UNL     1      45.890   1.637   7.838  0.00  0.00    +0.000 A 
ATOM     20  C   UNL     1      45.177   1.830   9.021  0.00  0.00    +0.000 A 
ATOM     21  C   UNL     1      45.076   3.106   9.582  0.00  0.00    +0.000 A 
ATOM     22  C   UNL     1      45.682   4.207   8.964  0.00  0.00    +0.000 A 
ATOM     23  C   UNL     1      46.392   4.000   7.769  0.00  0.00    +0.000 A 
BRANCH  18  24
ATOM     24  C   UNL     1      47.285   2.515   5.921  0.00  0.00    +0.000 C 
BRANCH  24  25
ATOM     25  N   UNL     1      48.719   2.427   6.170  0.00  0.00    +0.000 NA
ATOM     26  H   UNL     1      48.879   1.876   7.010  0.00  0.00    +0.000 HD
ATOM     27  H   UNL     1      49.073   3.363   6.366  0.00  0.00    +0.000 HD
ENDBRANCH  24  25
ENDBRANCH  18  24
ENDBRANCH  17  22
ENDBRANCH  16  17
ENDBRANCH  15  16
ENDBRANCH   1  15
TORSDOF 8
ENDMDL
