MODEL 1
REMARK VINA RESULT:    -7.424      0.000      0.000
REMARK INTER + INTRA:          -9.787
REMARK INTER:                  -9.377
REMARK INTRA:                  -0.410
REMARK UNBOUND:                -0.410
REMARK  Name = 
REMARK  5 active torsions:
REMARK  status: ('A' for Active; 'I' for Inactive)
REMARK    1  A    between atoms: N_1  and  C_2
REMARK    2  A    between atoms: C_2  and  C_3
REMARK    3  A    between atoms: C_3  and  C_4
REMARK    4  A    between atoms: C_8  and  C_9
REMARK    5  A    between atoms: C_9  and  N_10
REMARK                            x       y       z     vdW  Elec       q    Type
REMARK                         _______ _______ _______ _____ _____    ______ ____
ROOT
ATOM      1  C   UNL     1      45.719   3.219   7.940  0.00  0.00    +0.000 A 
ATOM      2  C   UNL     1      44.903   2.151   8.301  0.00  0.00    +0.000 A 
ATOM      3  N   UNL     1      44.157   2.116   9.426  0.00  0.00    +0.000 NA
ATOM      4  C   UNL     1      44.207   3.202  10.228  0.00  0.00    +0.000 A 
ATOM      5  C   UNL     1      44.974   4.330   9.963  0.00  0.00    +0.000 A 
ATOM      6  C   UNL     1      45.763   4.316   8.806  0.00  0.00    +0.000 A 
ENDROOT
BRANCH   1   7
ATOM      7  C   UNL     1      46.501   3.194   6.654  0.00  0.00    +0.000 C 
BRANCH   7   8
ATOM      8  C   UNL     1      47.892   2.579   6.824  0.00  0.00    +0.000 C 
BRANCH   8   9
ATOM      9  N   UNL     1      48.308   1.895   5.600  0.00  0.00    +0.000 NA
ATOM     10  H   UNL     1      48.825   1.050   5.843  0.00  0.00    +0.000 HD
ATOM     11  H   UNL     1      48.955   2.483   5.076  0.00  0.00    +0.000 HD
ENDBRANCH   8   9
ENDBRANCH   7   8
ENDBRANCH   1   7
BRANCH   5  12
ATOM     12  C   UNL     1      44.876   5.544  10.839  0.00  0.00    +0.000 C 
BRANCH  12  13
ATOM     13  N   UNL     1      45.559   5.482  12.132  0.00  0.00    +0.000 N 
ATOM     14  C   UNL     1      45.293   4.627  13.176  0.00  0.00    +0.000 A 
ATOM     15  C   UNL     1      46.317   4.736  14.092  0.00  0.00    +0.000 A 
ATOM     16  C   UNL     1      47.240   5.683  13.596  0.00  0.00    +0.000 A 
ATOM     17  N   UNL     1      48.422   6.083  14.128  0.00  0.00    +0.000 NA
ATOM     18  C   UNL     1      49.084   7.013  13.401  0.00  0.00    +0.000 A 
ATOM     19  C   UNL     1      48.637   7.576  12.214  0.00  0.00    +0.000 A 
ATOM     20 CL   UNL     1      49.576   8.760  11.395  0.00  0.00    +0.000 Cl
ATOM     21  C   UNL     1      47.420   7.166  11.679  0.00  0.00    +0.000 A 
ATOM     22  C   UNL     1      46.731   6.178  12.394  0.00  0.00    +0.000 A 
ENDBRANCH  12  13
ENDBRANCH   5  12
TORSDOF 5
ENDMDL
MODEL 2
REMARK VINA RESULT:    -7.057      1.934      2.153
REMARK INTER + INTRA:          -9.324
REMARK INTER:                  -8.882
REMARK INTRA:                  -0.442
REMARK UNBOUND:                -0.410
REMARK  Name = 
REMARK  5 active torsions:
REMARK  status: ('A' for Active; 'I' for Inactive)
REMARK    1  A    between atoms: N_1  and  C_2
REMARK    2  A    between atoms: C_2  and  C_3
REMARK    3  A    between atoms: C_3  and  C_4
REMARK    4  A    between atoms: C_8  and  C_9
REMARK    5  A    between atoms: C_9  and  N_10
REMARK                            x       y       z     vdW  Elec       q    Type
REMARK                         _______ _______ _______ _____ _____    ______ ____
ROOT
ATOM      1  C   UNL     1      45.818   3.166   7.973  0.00  0.00    +0.000 A 
ATOM      2  C   UNL     1      45.301   1.931   8.349  0.00  0.00    +0.000 A 
ATOM      3  N   UNL     1      44.492   1.743   9.414  0.00  0.00    +0.000 NA
ATOM      4  C   UNL     1      44.164   2.837  10.134  0.00  0.00    +0.000 A 
ATOM      5  C   UNL     1      44.610   4.122   9.845  0.00  0.00    +0.000 A 
ATOM      6  C   UNL     1      45.476   4.273   8.755  0.00  0.00    +0.000 A 
ENDROOT
BRANCH   1   7
ATOM      7  C   UNL     1      46.693   3.298   6.754  0.00  0.00    +0.000 C 
BRANCH   7   8
ATOM      8  C   UNL     1      47.937   2.408   6.824  0.00  0.00    +0.000 C 
BRANCH   8   9
ATOM      9  N   UNL     1      48.373   2.024   5.483  0.00  0.00    +0.000 NA
ATOM     10  H   UNL     1      48.374   2.846   4.879  0.00  0.00    +0.000 HD
ATOM     11  H   UNL     1      47.705   1.372   5.073  0.00  0.00    +0.000 HD
ENDBRANCH   8   9
ENDBRANCH   7   8
ENDBRANCH   1   7
BRANCH   5  12
ATOM     12  C   UNL     1      44.098   5.301  10.618  0.00  0.00    +0.000 C 
BRANCH  12  13
ATOM     13  N   UNL     1      44.944   5.796  11.705  0.00  0.00    +0.000 N 
ATOM     14  C   UNL     1      45.765   5.059  12.526  0.00  0.00    +0.000 A 
ATOM     15  C   UNL     1      46.560   5.932  13.236  0.00  0.00    +0.000 A 
ATOM     16  C   UNL     1      46.221   7.244  12.837  0.00  0.00    +0.000 A 
ATOM     17  N   UNL     1      46.768   8.423  13.228  0.00  0.00    +0.000 NA
ATOM     18  C   UNL     1      46.219   9.518  12.653  0.00  0.00    +0.000 A 
ATOM     19  C   UNL     1      45.164   9.513  11.752  0.00  0.00    +0.000 A 
ATOM     20 CL   UNL     1      44.554  10.984  11.104  0.00  0.00    +0.000 Cl
ATOM     21  C   UNL     1      44.604   8.301  11.363  0.00  0.00    +0.000 A 
ATOM     22  C   UNL     1      45.177   7.148  11.916  0.00  0.00    +0.000 A 
ENDBRANCH  12  13
ENDBRANCH   5  12
TORSDOF 5
ENDMDL
MODEL 3
REMARK VINA RESULT:    -6.787      1.860      2.402
REMARK INTER + INTRA:          -8.982
REMARK INTER:                  -8.465
REMARK INTRA:                  -0.517
REMARK UNBOUND:                -0.410
REMARK  Name = 
REMARK  5 active torsions:
REMARK  status: ('A' for Active; 'I' for Inactive)
REMARK    1  A    between atoms: N_1  and  C_2
REMARK    2  A    between atoms: C_2  and  C_3
REMARK    3  A    between atoms: C_3  and  C_4
REMARK    4  A    between atoms: C_8  and  C_9
REMARK    5  A    between atoms: C_9  and  N_10
REMARK                            x       y       z     vdW  Elec       q    Type
REMARK                         _______ _______ _______ _____ _____    ______ ____
ROOT
ATOM      1  C   UNL     1      45.522   3.478   8.381  0.00  0.00    +0.000 A 
ATOM      2  C   UNL     1      44.917   2.275   8.729  0.00  0.00    +0.000 A 
ATOM      3  N   UNL     1      44.115   2.115   9.804  0.00  0.00    +0.000 NA
ATOM      4  C   UNL     1      43.885   3.208  10.564  0.00  0.00    +0.000 A 
ATOM      5  C   UNL     1      44.424   4.463  10.306  0.00  0.00    +0.000 A 
ATOM      6  C   UNL     1      45.280   4.582   9.205  0.00  0.00    +0.000 A 
ENDROOT
BRANCH   1   7
ATOM      7  C   UNL     1      46.383   3.582   7.150  0.00  0.00    +0.000 C 
BRANCH   7   8
ATOM      8  C   UNL     1      47.146   2.288   6.856  0.00  0.00    +0.000 C 
BRANCH   8   9
ATOM      9  N   UNL     1      48.499   2.582   6.387  0.00  0.00    +0.000 NA
ATOM     10  H   UNL     1      48.466   2.857   5.405  0.00  0.00    +0.000 HD
ATOM     11  H   UNL     1      49.071   1.739   6.425  0.00  0.00    +0.000 HD
ENDBRANCH   8   9
ENDBRANCH   7   8
ENDBRANCH   1   7
BRANCH   5  12
ATOM     12  C   UNL     1      44.019   5.652  11.125  0.00  0.00    +0.000 C 
BRANCH  12  13
ATOM     13  N   UNL     1      45.096   6.514  11.616  0.00  0.00    +0.000 N 
ATOM     14  C   UNL     1      45.275   7.854  11.360  0.00  0.00    +0.000 A 
ATOM     15  C   UNL     1      46.254   8.326  12.206  0.00  0.00    +0.000 A 
ATOM     16  C   UNL     1      46.687   7.247  13.008  0.00  0.00    +0.000 A 
ATOM     17  N   UNL     1      47.600   7.241  14.012  0.00  0.00    +0.000 NA
ATOM     18  C   UNL     1      47.792   6.036  14.595  0.00  0.00    +0.000 A 
ATOM     19  C   UNL     1      47.163   4.854  14.230  0.00  0.00    +0.000 A 
ATOM     20 CL   UNL     1      47.509   3.383  15.051  0.00  0.00    +0.000 Cl
ATOM     21  C   UNL     1      46.235   4.866  13.194  0.00  0.00    +0.000 A 
ATOM     22  C   UNL     1      45.991   6.110  12.596  0.00  0.00    +0.000 A 
ENDBRANCH  12  13
ENDBRANCH   5  12
TORSDOF 5
ENDMDL
MODEL 4
REMARK VINA RESULT:    -6.475      2.509      6.231
REMARK INTER + INTRA:          -8.588
REMARK INTER:                  -8.024
REMARK INTRA:                  -0.564
REMARK UNBOUND:                -0.410
REMARK  Name = 
REMARK  5 active torsions:
REMARK  status: ('A' for Active; 'I' for Inactive)
REMARK    1  A    between atoms: N_1  and  C_2
REMARK    2  A    between atoms: C_2  and  C_3
REMARK    3  A    between atoms: C_3  and  C_4
REMARK    4  A    between atoms: C_8  and  C_9
REMARK    5  A    between atoms: C_9  and  N_10
REMARK                            x       y       z     vdW  Elec       q    Type
REMARK                         _______ _______ _______ _____ _____    ______ ____
ROOT
ATOM      1  C   UNL     1      47.134   7.278  12.721  0.00  0.00    +0.000 A 
ATOM      2  C   UNL     1      46.932   8.645  12.880  0.00  0.00    +0.000 A 
ATOM      3  N   UNL     1      45.846   9.306  12.426  0.00  0.00    +0.000 NA
ATOM      4  C   UNL     1      44.902   8.573  11.797  0.00  0.00    +0.000 A 
ATOM      5  C   UNL     1      44.989   7.201  11.592  0.00  0.00    +0.000 A 
ATOM      6  C   UNL     1      46.146   6.555  12.044  0.00  0.00    +0.000 A 
ENDROOT
BRANCH   1   7
ATOM      7  C   UNL     1      48.361   6.608  13.281  0.00  0.00    +0.000 C 
BRANCH   7   8
ATOM      8  C   UNL     1      48.277   6.398  14.795  0.00  0.00    +0.000 C 
BRANCH   8   9
ATOM      9  N   UNL     1      47.566   5.160  15.106  0.00  0.00    +0.000 NA
ATOM     10  H   UNL     1      47.553   5.021  16.117  0.00  0.00    +0.000 HD
ATOM     11  H   UNL     1      48.070   4.363  14.718  0.00  0.00    +0.000 HD
ENDBRANCH   8   9
ENDBRANCH   7   8
ENDBRANCH   1   7
BRANCH   5  12
ATOM     12  C   UNL     1      43.840   6.442  10.998  0.00  0.00    +0.000 C 
BRANCH  12  13
ATOM     13  N   UNL     1      43.904   4.981  11.075  0.00  0.00    +0.000 N 
ATOM     14  C   UNL     1      43.256   4.163  11.971  0.00  0.00    +0.000 A 
ATOM     15  C   UNL     1      43.391   2.861  11.540  0.00  0.00    +0.000 A 
ATOM     16  C   UNL     1      44.140   2.880  10.343  0.00  0.00    +0.000 A 
ATOM     17  N   UNL     1      44.483   1.845   9.534  0.00  0.00    +0.000 NA
ATOM     18  C   UNL     1      45.209   2.194   8.447  0.00  0.00    +0.000 A 
ATOM     19  C   UNL     1      45.627   3.480   8.135  0.00  0.00    +0.000 A 
ATOM     20 CL   UNL     1      46.558   3.783   6.722  0.00  0.00    +0.000 Cl
ATOM     21  C   UNL     1      45.278   4.533   8.973  0.00  0.00    +0.000 A 
ATOM     22  C   UNL     1      44.496   4.205  10.089  0.00  0.00    +0.000 A 
ENDBRANCH  12  13
ENDBRANCH   5  12
TORSDOF 5
ENDMDL
MODEL 5
REMARK VINA RESULT:    -6.134      2.562      6.476
REMARK INTER + INTRA:          -8.157
REMARK INTER:                  -7.692
REMARK INTRA:                  -0.466
REMARK UNBOUND:                -0.410
REMARK  Name = 
REMARK  5 active torsions:
REMARK  status: ('A' for Active; 'I' for Inactive)
REMARK    1  A    between atoms: N_1  and  C_2
REMARK    2  A    between atoms: C_2  and  C_3
REMARK    3  A    between atoms: C_3  and  C_4
REMARK    4  A    between atoms: C_8  and  C_9
REMARK    5  A    between atoms: C_9  and  N_10
REMARK                            x       y       z     vdW  Elec       q    Type
REMARK                         _______ _______ _______ _____ _____    ______ ____
ROOT
ATOM      1  C   UNL     1      48.537   8.476  12.365  0.00  0.00    +0.000 A 
ATOM      2  C   UNL     1      49.189   7.390  12.939  0.00  0.00    +0.000 A 
ATOM      3  N   UNL     1      48.587   6.219  13.237  0.00  0.00    +0.000 NA
ATOM      4  C   UNL     1      47.275   6.110  12.936  0.00  0.00    +0.000 A 
ATOM      5  C   UNL     1      46.524   7.123  12.350  0.00  0.00    +0.000 A 
ATOM      6  C   UNL     1      47.173   8.336  12.088  0.00  0.00    +0.000 A 
ENDROOT
BRANCH   1   7
ATOM      7  C   UNL     1      49.285   9.741  12.037  0.00  0.00    +0.000 C 
BRANCH   7   8
ATOM      8  C   UNL     1      48.437  10.998  12.249  0.00  0.00    +0.000 C 
BRANCH   8   9
ATOM      9  N   UNL     1      48.287  11.286  13.674  0.00  0.00    +0.000 NA
ATOM     10  H   UNL     1      48.586  10.475  14.217  0.00  0.00    +0.000 HD
ATOM     11  H   UNL     1      47.303  11.429  13.898  0.00  0.00    +0.000 HD
ENDBRANCH   8   9
ENDBRANCH   7   8
ENDBRANCH   1   7
BRANCH   5  12
ATOM     12  C   UNL     1      45.105   6.879  11.931  0.00  0.00    +0.000 C 
BRANCH  12  13
ATOM     13  N   UNL     1      44.640   5.491  11.950  0.00  0.00    +0.000 N 
ATOM     14  C   UNL     1      43.855   4.886  12.904  0.00  0.00    +0.000 A 
ATOM     15  C   UNL     1      43.451   3.663  12.415  0.00  0.00    +0.000 A 
ATOM     16  C   UNL     1      44.000   3.513  11.123  0.00  0.00    +0.000 A 
ATOM     17  N   UNL     1      43.838   2.495  10.239  0.00  0.00    +0.000 NA
ATOM     18  C   UNL     1      44.500   2.652   9.070  0.00  0.00    +0.000 A 
ATOM     19  C   UNL     1      45.317   3.725   8.742  0.00  0.00    +0.000 A 
ATOM     20 CL   UNL     1      46.110   3.793   7.218  0.00  0.00    +0.000 Cl
ATOM     21  C   UNL     1      45.483   4.760   9.657  0.00  0.00    +0.000 A 
ATOM     22  C   UNL     1      44.780   4.640  10.863  0.00  0.00    +0.000 A 
ENDBRANCH  12  13
ENDBRANCH   5  12
TORSDOF 5
ENDMDL
MODEL 6
REMARK VINA RESULT:    -5.999      2.476      6.749
REMARK INTER + INTRA:          -7.987
REMARK INTER:                  -7.533
REMARK INTRA:                  -0.454
REMARK UNBOUND:                -0.410
REMARK  Name = 
REMARK  5 active torsions:
REMARK  status: ('A' for Active; 'I' for Inactive)
REMARK    1  A    between atoms: N_1  and  C_2
REMARK    2  A    between atoms: C_2  and  C_3
REMARK    3  A    between atoms: C_3  and  C_4
REMARK    4  A    between atoms: C_8  and  C_9
REMARK    5  A    between atoms: C_9  and  N_10
REMARK                            x       y       z     vdW  Elec       q    Type
REMARK                         _______ _______ _______ _____ _____    ______ ____
ROOT
ATOM      1  C   UNL     1      47.821   5.429  15.053  0.00  0.00    +0.000 A 
ATOM      2  C   UNL     1      48.562   6.591  14.868  0.00  0.00    +0.000 A 
ATOM      3  N   UNL     1      48.279   7.528  13.937  0.00  0.00    +0.000 NA
ATOM      4  C   UNL     1      47.196   7.311  13.161  0.00  0.00    +0.000 A 
ATOM      5  C   UNL     1      46.375   6.194  13.264  0.00  0.00    +0.000 A 
ATOM      6  C   UNL     1      46.720   5.226  14.215  0.00  0.00    +0.000 A 
ENDROOT
BRANCH   1   7
ATOM      7  C   UNL     1      48.186   4.444  16.133  0.00  0.00    +0.000 C 
BRANCH   7   8
ATOM      8  C   UNL     1      47.151   4.396  17.259  0.00  0.00    +0.000 C 
BRANCH   8   9
ATOM      9  N   UNL     1      46.768   3.016  17.551  0.00  0.00    +0.000 NA
ATOM     10  H   UNL     1      46.962   2.810  18.531  0.00  0.00    +0.000 HD
ATOM     11  H   UNL     1      47.344   2.374  17.007  0.00  0.00    +0.000 HD
ENDBRANCH   8   9
ENDBRANCH   7   8
ENDBRANCH   1   7
BRANCH   5  12
ATOM     12  C   UNL     1      45.119   6.090  12.450  0.00  0.00    +0.000 C 
BRANCH  12  13
ATOM     13  N   UNL     1      44.640   4.740  12.145  0.00  0.00    +0.000 N 
ATOM     14  C   UNL     1      43.779   3.971  12.893  0.00  0.00    +0.000 A 
ATOM     15  C   UNL     1      43.400   2.887  12.132  0.00  0.00    +0.000 A 
ATOM     16  C   UNL     1      44.043   2.994  10.880  0.00  0.00    +0.000 A 
ATOM     17  N   UNL     1      43.939   2.186   9.794  0.00  0.00    +0.000 NA
ATOM     18  C   UNL     1      44.688   2.564   8.733  0.00  0.00    +0.000 A 
ATOM     19  C   UNL     1      45.538   3.661   8.697  0.00  0.00    +0.000 A 
ATOM     20 CL   UNL     1      46.445   4.023   7.282  0.00  0.00    +0.000 Cl
ATOM     21  C   UNL     1      45.646   4.479   9.816  0.00  0.00    +0.000 A 
ATOM     22  C   UNL     1      44.853   4.130  10.918  0.00  0.00    +0.000 A 
ENDBRANCH  12  13
ENDBRANCH   5  12
TORSDOF 5
ENDMDL
MODEL 7
REMARK VINA RESULT:    -5.555      2.243      3.663
REMARK INTER + INTRA:          -7.426
REMARK INTER:                  -6.969
REMARK INTRA:                  -0.457
REMARK UNBOUND:                -0.410
REMARK  Name = 
REMARK  5 active torsions:
REMARK  status: ('A' for Active; 'I' for Inactive)
REMARK    1  A    between atoms: N_1  and  C_2
REMARK    2  A    between atoms: C_2  and  C_3
REMARK    3  A    between atoms: C_3  and  C_4
REMARK    4  A    between atoms: C_8  and  C_9
REMARK    5  A    between atoms: C_9  and  N_10
REMARK                            x       y       z     vdW  Elec       q    Type
REMARK                         _______ _______ _______ _____ _____    ______ ____
ROOT
ATOM      1  C   UNL     1      44.889   4.196  10.578  0.00  0.00    +0.000 A 
ATOM      2  C   UNL     1      44.686   3.286  11.611  0.00  0.00    +0.000 A 
ATOM      3  N   UNL     1      45.015   3.520  12.899  0.00  0.00    +0.000 NA
ATOM      4  C   UNL     1      45.557   4.723  13.185  0.00  0.00    +0.000 A 
ATOM      5  C   UNL     1      45.794   5.714  12.239  0.00  0.00    +0.000 A 
ATOM      6  C   UNL     1      45.474   5.424  10.907  0.00  0.00    +0.000 A 
ENDROOT
BRANCH   1   7
ATOM      7  C   UNL     1      44.470   3.872   9.169  0.00  0.00    +0.000 C 
BRANCH   7   8
ATOM      8  C   UNL     1      45.551   3.115   8.394  0.00  0.00    +0.000 C 
BRANCH   8   9
ATOM      9  N   UNL     1      45.526   1.692   8.729  0.00  0.00    +0.000 NA
ATOM     10  H   UNL     1      45.261   1.154   7.904  0.00  0.00    +0.000 HD
ATOM     11  H   UNL     1      44.805   1.512   9.427  0.00  0.00    +0.000 HD
ENDBRANCH   8   9
ENDBRANCH   7   8
ENDBRANCH   1   7
BRANCH   5  12
ATOM     12  C   UNL     1      46.282   7.070  12.657  0.00  0.00    +0.000 C 
BRANCH  12  13
ATOM     13  N   UNL     1      47.728   7.292  12.620  0.00  0.00    +0.000 N 
ATOM     14  C   UNL     1      48.458   7.873  11.609  0.00  0.00    +0.000 A 
ATOM     15  C   UNL     1      49.731   8.110  12.080  0.00  0.00    +0.000 A 
ATOM     16  C   UNL     1      49.784   7.666  13.419  0.00  0.00    +0.000 A 
ATOM     17  N   UNL     1      50.813   7.736  14.302  0.00  0.00    +0.000 NA
ATOM     18  C   UNL     1      50.546   7.222  15.524  0.00  0.00    +0.000 A 
ATOM     19  C   UNL     1      49.350   6.630  15.906  0.00  0.00    +0.000 A 
ATOM     20 CL   UNL     1      49.147   6.004  17.494  0.00  0.00    +0.000 Cl
ATOM     21  C   UNL     1      48.304   6.555  14.993  0.00  0.00    +0.000 A 
ATOM     22  C   UNL     1      48.542   7.113  13.730  0.00  0.00    +0.000 A 
ENDBRANCH  12  13
ENDBRANCH   5  12
TORSDOF 5
ENDMDL
MODEL 8
REMARK VINA RESULT:    -5.427      3.814      5.726
REMARK INTER + INTRA:          -7.265
REMARK INTER:                  -6.839
REMARK INTRA:                  -0.426
REMARK UNBOUND:                -0.410
REMARK  Name = 
REMARK  5 active torsions:
REMARK  status: ('A' for Active; 'I' for Inactive)
REMARK    1  A    between atoms: N_1  and  C_2
REMARK    2  A    between atoms: C_2  and  C_3
REMARK    3  A    between atoms: C_3  and  C_4
REMARK    4  A    between atoms: C_8  and  C_9
REMARK    5  A    between atoms: C_9  and  N_10
REMARK                            x       y       z     vdW  Elec       q    Type
REMARK                         _______ _______ _______ _____ _____    ______ ____
ROOT
ATOM      1  C   UNL     1      45.569   4.883  12.584  0.00  0.00    +0.000 A 
ATOM      2  C   UNL     1      44.757   5.990  12.360  0.00  0.00    +0.000 A 
ATOM      3  N   UNL     1      45.120   7.262  12.634  0.00  0.00    +0.000 NA
ATOM      4  C   UNL     1      46.357   7.449  13.142  0.00  0.00    +0.000 A 
ATOM      5  C   UNL     1      47.259   6.422  13.395  0.00  0.00    +0.000 A 
ATOM      6  C   UNL     1      46.835   5.113  13.132  0.00  0.00    +0.000 A 
ENDROOT
BRANCH   1   7
ATOM      7  C   UNL     1      45.102   3.497  12.226  0.00  0.00    +0.000 C 
BRANCH   7   8
ATOM      8  C   UNL     1      43.744   3.499  11.519  0.00  0.00    +0.000 C 
BRANCH   8   9
ATOM      9  N   UNL     1      43.052   2.228  11.727  0.00  0.00    +0.000 NA
ATOM     10  H   UNL     1      42.259   2.372  12.352  0.00  0.00    +0.000 HD
ATOM     11  H   UNL     1      43.670   1.569  12.200  0.00  0.00    +0.000 HD
ENDBRANCH   8   9
ENDBRANCH   7   8
ENDBRANCH   1   7
BRANCH   5  12
ATOM     12  C   UNL     1      48.659   6.725  13.839  0.00  0.00    +0.000 C 
BRANCH  12  13
ATOM     13  N   UNL     1      48.839   7.107  15.241  0.00  0.00    +0.000 N 
ATOM     14  C   UNL     1      49.142   8.354  15.735  0.00  0.00    +0.000 A 
ATOM     15  C   UNL     1      48.975   8.329  17.102  0.00  0.00    +0.000 A 
ATOM     16  C   UNL     1      48.553   7.029  17.459  0.00  0.00    +0.000 A 
ATOM     17  N   UNL     1      48.220   6.545  18.683  0.00  0.00    +0.000 NA
ATOM     18  C   UNL     1      47.849   5.245  18.695  0.00  0.00    +0.000 A 
ATOM     19  C   UNL     1      47.813   4.406  17.590  0.00  0.00    +0.000 A 
ATOM     20 CL   UNL     1      47.330   2.763  17.748  0.00  0.00    +0.000 Cl
ATOM     21  C   UNL     1      48.164   4.907  16.341  0.00  0.00    +0.000 A 
ATOM     22  C   UNL     1      48.519   6.262  16.294  0.00  0.00    +0.000 A 
ENDBRANCH  12  13
ENDBRANCH   5  12
TORSDOF 5
ENDMDL
