MODEL 1
REMARK VINA RESULT:    -7.174      0.000      0.000
REMARK INTER + INTRA:         -12.674
REMARK INTER:                 -10.948
REMARK INTRA:                  -1.726
REMARK UNBOUND:                -1.726
REMARK  Name = 
REMARK  11 active torsions:
REMARK  status: ('A' for Active; 'I' for Inactive)
REMARK    1  A    between atoms: C_1  and  C_2
REMARK    2  A    between atoms: C_2  and  C_3
REMARK    3  A    between atoms: C_3  and  O_4
REMARK    4  A    between atoms: C_3  and  C_20
REMARK    5  A    between atoms: O_4  and  C_5
REMARK    6  A    between atoms: C_8  and  C_9
REMARK    7  A    between atoms: C_9  and  N_10
REMARK    8  A    between atoms: N_10  and  C_11
REMARK    9  A    between atoms: C_11  and  C_12
REMARK   10  A    between atoms: N_15  and  C_16
REMARK   11  A    between atoms: C_20  and  C_22
REMARK                            x       y       z     vdW  Elec       q    Type
REMARK                         _______ _______ _______ _____ _____    ______ ____
ROOT
ATOM      1  O   UNL     1      47.555   7.335  13.606  0.00  0.00    +0.000 OA
ENDROOT
BRANCH   1   2
ATOM      2  C   UNL     1      46.595   6.523  13.068  0.00  0.00    +0.000 A 
ATOM      3  C   UNL     1      46.550   5.224  13.587  0.00  0.00    +0.000 A 
ATOM      4  C   UNL     1      45.538   4.332  13.205  0.00  0.00    +0.000 A 
ATOM      5  C   UNL     1      44.544   4.727  12.303  0.00  0.00    +0.000 A 
ATOM      6  C   UNL     1      44.633   6.006  11.740  0.00  0.00    +0.000 A 
ATOM      7  C   UNL     1      45.651   6.891  12.115  0.00  0.00    +0.000 A 
BRANCH   5   8
ATOM      8  C   UNL     1      43.383   3.820  11.958  0.00  0.00    +0.000 C 
BRANCH   8   9
ATOM      9  N   UNL     1      43.430   3.444  10.546  0.00  0.00    +0.000 NA
ATOM     10  H   UNL     1      43.497   4.291   9.983  0.00  0.00    +0.000 HD
BRANCH   9  11
ATOM     11  C   UNL     1      44.555   2.559  10.239  0.00  0.00    +0.000 C 
BRANCH  11  12
ATOM     12  C   UNL     1      44.769   2.507   8.721  0.00  0.00    +0.000 C 
ATOM     13  C   UNL     1      45.023   3.883   8.090  0.00  0.00    +0.000 C 
ATOM     14  C   UNL     1      46.408   3.786   7.468  0.00  0.00    +0.000 C 
ATOM     15  N   UNL     1      46.530   2.362   7.160  0.00  0.00    +0.000 NA
ATOM     16  C   UNL     1      47.907   1.970   6.890  0.00  0.00    +0.000 C 
ATOM     17  C   UNL     1      45.995   1.674   8.337  0.00  0.00    +0.000 C 
ENDBRANCH  11  12
ENDBRANCH   9  11
ENDBRANCH   8   9
ENDBRANCH   5   8
ENDBRANCH   1   2
BRANCH   1  18
ATOM     18  C   UNL     1      48.947   7.010  13.509  0.00  0.00    +0.000 C 
BRANCH  18  20
ATOM     19  C   UNL     1      49.149   8.800  11.667  0.00  0.00    +0.000 C 
ATOM     20  C   UNL     1      49.480   7.376  12.101  0.00  0.00    +0.000 C 
ENDBRANCH  18  20
BRANCH  18  21
ATOM     21  C   UNL     1      49.869   7.458  14.675  0.00  0.00    +0.000 C 
ATOM     22  O   UNL     1      51.072   7.642  14.455  0.00  0.00    +0.000 OA
BRANCH  21  23
ATOM     23  C   UNL     1      49.357   7.750  16.034  0.00  0.00    +0.000 A 
ATOM     24  C   UNL     1      49.592   9.010  16.576  0.00  0.00    +0.000 A 
ATOM     25  S   UNL     1      48.918   9.242  18.122  0.00  0.00    +0.000 S 
ATOM     26  C   UNL     1      48.306   7.656  18.145  0.00  0.00    +0.000 A 
ATOM     27  N   UNL     1      47.593   7.211  19.214  0.00  0.00    +0.000 NA
ATOM     28  C   UNL     1      47.193   5.989  19.117  0.00  0.00    +0.000 A 
ATOM     29  N   UNL     1      47.463   5.165  18.055  0.00  0.00    +0.000 N 
ATOM     30  C   UNL     1      48.282   5.540  17.014  0.00  0.00    +0.000 A 
ATOM     31  O   UNL     1      48.707   4.704  16.219  0.00  0.00    +0.000 OA
ATOM     32  C   UNL     1      48.651   6.943  17.006  0.00  0.00    +0.000 A 
ATOM     33  H   UNL     1      47.197   4.193  18.079  0.00  0.00    +0.000 HD
ENDBRANCH  21  23
ENDBRANCH  18  21
ENDBRANCH   1  18
TORSDOF 9
ENDMDL
MODEL 2
REMARK VINA RESULT:    -6.897      2.786      3.684
REMARK INTER + INTRA:         -12.251
REMARK INTER:                 -11.222
REMARK INTRA:                  -1.029
REMARK UNBOUND:                -1.726
REMARK  Name = 
REMARK  11 active torsions:
REMARK  status: ('A' for Active; 'I' for Inactive)
REMARK    1  A    between atoms: C_1  and  C_2
REMARK    2  A    between atoms: C_2  and  C_3
REMARK    3  A    between atoms: C_3  and  O_4
REMARK    4  A    between atoms: C_3  and  C_20
REMARK    5  A    between atoms: O_4  and  C_5
REMARK    6  A    between atoms: C_8  and  C_9
REMARK    7  A    between atoms: C_9  and  N_10
REMARK    8  A    between atoms: N_10  and  C_11
REMARK    9  A    between atoms: C_11  and  C_12
REMARK   10  A    between atoms: N_15  and  C_16
REMARK   11  A    between atoms: C_20  and  C_22
REMARK                            x       y       z     vdW  Elec       q    Type
REMARK                         _______ _______ _______ _____ _____    ______ ____
ROOT
ATOM      1  O   UNL     1      49.123   6.321  14.706  0.00  0.00    +0.000 OA
ENDROOT
BRANCH   1   2
ATOM      2  C   UNL     1      47.901   6.015  14.174  0.00  0.00    +0.000 A 
ATOM      3  C   UNL     1      47.376   6.968  13.295  0.00  0.00    +0.000 A 
ATOM      4  C   UNL     1      46.187   6.721  12.592  0.00  0.00    +0.000 A 
ATOM      5  C   UNL     1      45.508   5.508  12.748  0.00  0.00    +0.000 A 
ATOM      6  C   UNL     1      46.005   4.586  13.677  0.00  0.00    +0.000 A 
ATOM      7  C   UNL     1      47.186   4.841  14.386  0.00  0.00    +0.000 A 
BRANCH   5   8
ATOM      8  C   UNL     1      44.284   5.175  11.922  0.00  0.00    +0.000 C 
BRANCH   8   9
ATOM      9  N   UNL     1      44.677   4.667  10.609  0.00  0.00    +0.000 NA
ATOM     10  H   UNL     1      45.660   4.890  10.452  0.00  0.00    +0.000 HD
BRANCH   9  11
ATOM     11  C   UNL     1      44.474   3.223  10.484  0.00  0.00    +0.000 C 
BRANCH  11  12
ATOM     12  C   UNL     1      44.585   2.814   9.009  0.00  0.00    +0.000 C 
ATOM     13  C   UNL     1      44.987   3.970   8.082  0.00  0.00    +0.000 C 
ATOM     14  C   UNL     1      46.305   3.537   7.456  0.00  0.00    +0.000 C 
ATOM     15  N   UNL     1      46.210   2.078   7.467  0.00  0.00    +0.000 NA
ATOM     16  C   UNL     1      47.501   1.438   7.250  0.00  0.00    +0.000 C 
ATOM     17  C   UNL     1      45.659   1.746   8.783  0.00  0.00    +0.000 C 
ENDBRANCH  11  12
ENDBRANCH   9  11
ENDBRANCH   8   9
ENDBRANCH   5   8
ENDBRANCH   1   2
BRANCH   1  18
ATOM     18  C   UNL     1      49.275   6.631  16.096  0.00  0.00    +0.000 C 
BRANCH  18  20
ATOM     19  C   UNL     1      49.033   9.023  17.025  0.00  0.00    +0.000 C 
ATOM     20  C   UNL     1      48.319   7.786  16.489  0.00  0.00    +0.000 C 
ENDBRANCH  18  20
BRANCH  18  21
ATOM     21  C   UNL     1      49.286   5.446  17.098  0.00  0.00    +0.000 C 
ATOM     22  O   UNL     1      48.212   5.010  17.529  0.00  0.00    +0.000 OA
BRANCH  21  23
ATOM     23  C   UNL     1      50.531   4.756  17.508  0.00  0.00    +0.000 A 
ATOM     24  C   UNL     1      51.573   5.519  18.028  0.00  0.00    +0.000 A 
ATOM     25  S   UNL     1      52.932   4.611  18.504  0.00  0.00    +0.000 S 
ATOM     26  C   UNL     1      52.197   3.161  18.009  0.00  0.00    +0.000 A 
ATOM     27  N   UNL     1      52.846   1.975  18.161  0.00  0.00    +0.000 NA
ATOM     28  C   UNL     1      52.189   0.950  17.737  0.00  0.00    +0.000 A 
ATOM     29  N   UNL     1      50.949   1.008  17.154  0.00  0.00    +0.000 N 
ATOM     30  C   UNL     1      50.316   2.197  16.873  0.00  0.00    +0.000 A 
ATOM     31  O   UNL     1      49.338   2.225  16.128  0.00  0.00    +0.000 OA
ATOM     32  C   UNL     1      50.947   3.371  17.444  0.00  0.00    +0.000 A 
ATOM     33  H   UNL     1      50.526   0.180  16.763  0.00  0.00    +0.000 HD
ENDBRANCH  21  23
ENDBRANCH  18  21
ENDBRANCH   1  18
TORSDOF 9
ENDMDL
MODEL 3
REMARK VINA RESULT:    -6.868      2.401      3.860
REMARK INTER + INTRA:         -12.207
REMARK INTER:                 -10.682
REMARK INTRA:                  -1.525
REMARK UNBOUND:                -1.726
REMARK  Name = 
REMARK  11 active torsions:
REMARK  status: ('A' for Active; 'I' for Inactive)
REMARK    1  A    between atoms: C_1  and  C_2
REMARK    2  A    between atoms: C_2  and  C_3
REMARK    3  A    between atoms: C_3  and  O_4
REMARK    4  A    between atoms: C_3  and  C_20
REMARK    5  A    between atoms: O_4  and  C_5
REMARK    6  A    between atoms: C_8  and  C_9
REMARK    7  A    between atoms: C_9  and  N_10
REMARK    8  A    between atoms: N_10  and  C_11
REMARK    9  A    between atoms: C_11  and  C_12
REMARK   10  A    between atoms: N_15  and  C_16
REMARK   11  A    between atoms: C_20  and  C_22
REMARK                            x       y       z     vdW  Elec       q    Type
REMARK                         _______ _______ _______ _____ _____    ______ ____
ROOT
ATOM      1  O   UNL     1      47.904   4.861  14.608  0.00  0.00    +0.000 OA
ENDROOT
BRANCH   1   2
ATOM      2  C   UNL     1      46.833   4.697  13.775  0.00  0.00    +0.000 A 
ATOM      3  C   UNL     1      46.178   5.876  13.402  0.00  0.00    +0.000 A 
ATOM      4  C   UNL     1      45.140   5.856  12.459  0.00  0.00    +0.000 A 
ATOM      5  C   UNL     1      44.744   4.653  11.863  0.00  0.00    +0.000 A 
ATOM      6  C   UNL     1      45.361   3.470  12.288  0.00  0.00    +0.000 A 
ATOM      7  C   UNL     1      46.390   3.493  13.238  0.00  0.00    +0.000 A 
BRANCH   5   8
ATOM      8  C   UNL     1      43.702   4.620  10.767  0.00  0.00    +0.000 C 
BRANCH   8   9
ATOM      9  N   UNL     1      44.293   5.010   9.488  0.00  0.00    +0.000 NA
ATOM     10  H   UNL     1      45.221   5.394   9.659  0.00  0.00    +0.000 HD
BRANCH   9  11
ATOM     11  C   UNL     1      44.390   3.889   8.551  0.00  0.00    +0.000 C 
BRANCH  11  12
ATOM     12  C   UNL     1      45.810   3.312   8.585  0.00  0.00    +0.000 C 
ATOM     13  C   UNL     1      45.847   1.784   8.727  0.00  0.00    +0.000 C 
ATOM     14  C   UNL     1      46.551   1.285   7.473  0.00  0.00    +0.000 C 
ATOM     15  N   UNL     1      47.417   2.407   7.115  0.00  0.00    +0.000 NA
ATOM     16  C   UNL     1      47.918   2.305   5.750  0.00  0.00    +0.000 C 
ATOM     17  C   UNL     1      46.583   3.599   7.294  0.00  0.00    +0.000 C 
ENDBRANCH  11  12
ENDBRANCH   9  11
ENDBRANCH   8   9
ENDBRANCH   5   8
ENDBRANCH   1   2
BRANCH   1  18
ATOM     18  C   UNL     1      47.780   4.695  16.025  0.00  0.00    +0.000 C 
BRANCH  18  20
ATOM     19  C   UNL     1      47.212   2.757  17.625  0.00  0.00    +0.000 C 
ATOM     20  C   UNL     1      48.011   3.213  16.408  0.00  0.00    +0.000 C 
ENDBRANCH  18  20
BRANCH  18  21
ATOM     21  C   UNL     1      48.524   5.711  16.933  0.00  0.00    +0.000 C 
ATOM     22  O   UNL     1      47.960   6.140  17.946  0.00  0.00    +0.000 OA
BRANCH  21  23
ATOM     23  C   UNL     1      49.921   6.136  16.680  0.00  0.00    +0.000 A 
ATOM     24  C   UNL     1      50.924   5.650  17.514  0.00  0.00    +0.000 A 
ATOM     25  S   UNL     1      52.490   6.172  17.099  0.00  0.00    +0.000 S 
ATOM     26  C   UNL     1      51.891   7.093  15.802  0.00  0.00    +0.000 A 
ATOM     27  N   UNL     1      52.743   7.796  15.008  0.00  0.00    +0.000 NA
ATOM     28  C   UNL     1      52.166   8.462  14.067  0.00  0.00    +0.000 A 
ATOM     29  N   UNL     1      50.811   8.507  13.864  0.00  0.00    +0.000 N 
ATOM     30  C   UNL     1      49.912   7.910  14.718  0.00  0.00    +0.000 A 
ATOM     31  O   UNL     1      48.714   8.180  14.656  0.00  0.00    +0.000 OA
ATOM     32  C   UNL     1      50.508   7.040  15.715  0.00  0.00    +0.000 A 
ATOM     33  H   UNL     1      50.416   9.117  13.165  0.00  0.00    +0.000 HD
ENDBRANCH  21  23
ENDBRANCH  18  21
ENDBRANCH   1  18
TORSDOF 9
ENDMDL
MODEL 4
REMARK VINA RESULT:    -6.752      2.078      2.579
REMARK INTER + INTRA:         -12.031
REMARK INTER:                 -10.524
REMARK INTRA:                  -1.507
REMARK UNBOUND:                -1.726
REMARK  Name = 
REMARK  11 active torsions:
REMARK  status: ('A' for Active; 'I' for Inactive)
REMARK    1  A    between atoms: C_1  and  C_2
REMARK    2  A    between atoms: C_2  and  C_3
REMARK    3  A    between atoms: C_3  and  O_4
REMARK    4  A    between atoms: C_3  and  C_20
REMARK    5  A    between atoms: O_4  and  C_5
REMARK    6  A    between atoms: C_8  and  C_9
REMARK    7  A    between atoms: C_9  and  N_10
REMARK    8  A    between atoms: N_10  and  C_11
REMARK    9  A    between atoms: C_11  and  C_12
REMARK   10  A    between atoms: N_15  and  C_16
REMARK   11  A    between atoms: C_20  and  C_22
REMARK                            x       y       z     vdW  Elec       q    Type
REMARK                         _______ _______ _______ _____ _____    ______ ____
ROOT
ATOM      1  O   UNL     1      47.343   7.699  13.350  0.00  0.00    +0.000 OA
ENDROOT
BRANCH   1   2
ATOM      2  C   UNL     1      46.427   6.776  12.929  0.00  0.00    +0.000 A 
ATOM      3  C   UNL     1      46.573   5.495  13.474  0.00  0.00    +0.000 A 
ATOM      4  C   UNL     1      45.630   4.491  13.215  0.00  0.00    +0.000 A 
ATOM      5  C   UNL     1      44.514   4.753  12.413  0.00  0.00    +0.000 A 
ATOM      6  C   UNL     1      44.408   6.017  11.820  0.00  0.00    +0.000 A 
ATOM      7  C   UNL     1      45.358   7.014  12.072  0.00  0.00    +0.000 A 
BRANCH   5   8
ATOM      8  C   UNL     1      43.429   3.719  12.206  0.00  0.00    +0.000 C 
BRANCH   8   9
ATOM      9  N   UNL     1      43.378   3.303  10.805  0.00  0.00    +0.000 NA
ATOM     10  H   UNL     1      43.306   4.135  10.219  0.00  0.00    +0.000 HD
BRANCH   9  11
ATOM     11  C   UNL     1      44.552   2.524  10.410  0.00  0.00    +0.000 C 
BRANCH  11  12
ATOM     12  C   UNL     1      44.709   2.569   8.884  0.00  0.00    +0.000 C 
ATOM     13  C   UNL     1      44.973   3.979   8.337  0.00  0.00    +0.000 C 
ATOM     14  C   UNL     1      46.332   3.894   7.659  0.00  0.00    +0.000 C 
ATOM     15  N   UNL     1      46.408   2.492   7.252  0.00  0.00    +0.000 NA
ATOM     16  C   UNL     1      47.765   2.090   6.905  0.00  0.00    +0.000 C 
ATOM     17  C   UNL     1      45.901   1.738   8.400  0.00  0.00    +0.000 C 
ENDBRANCH  11  12
ENDBRANCH   9  11
ENDBRANCH   8   9
ENDBRANCH   5   8
ENDBRANCH   1   2
BRANCH   1  18
ATOM     18  C   UNL     1      48.607   7.302  13.894  0.00  0.00    +0.000 C 
BRANCH  18  20
ATOM     19  C   UNL     1      49.698   7.580  11.576  0.00  0.00    +0.000 C 
ATOM     20  C   UNL     1      49.759   7.919  13.062  0.00  0.00    +0.000 C 
ENDBRANCH  18  20
BRANCH  18  21
ATOM     21  C   UNL     1      48.796   7.423  15.429  0.00  0.00    +0.000 C 
ATOM     22  O   UNL     1      48.487   8.478  15.994  0.00  0.00    +0.000 OA
BRANCH  21  23
ATOM     23  C   UNL     1      49.264   6.295  16.269  0.00  0.00    +0.000 A 
ATOM     24  C   UNL     1      48.316   5.421  16.795  0.00  0.00    +0.000 A 
ATOM     25  S   UNL     1      48.976   4.142  17.704  0.00  0.00    +0.000 S 
ATOM     26  C   UNL     1      50.556   4.717  17.457  0.00  0.00    +0.000 A 
ATOM     27  N   UNL     1      51.620   4.047  17.976  0.00  0.00    +0.000 NA
ATOM     28  C   UNL     1      52.763   4.589  17.729  0.00  0.00    +0.000 A 
ATOM     29  N   UNL     1      52.936   5.755  17.028  0.00  0.00    +0.000 N 
ATOM     30  C   UNL     1      51.879   6.523  16.593  0.00  0.00    +0.000 A 
ATOM     31  O   UNL     1      52.061   7.674  16.200  0.00  0.00    +0.000 OA
ATOM     32  C   UNL     1      50.578   5.897  16.728  0.00  0.00    +0.000 A 
ATOM     33  H   UNL     1      53.849   6.174  16.944  0.00  0.00    +0.000 HD
ENDBRANCH  21  23
ENDBRANCH  18  21
ENDBRANCH   1  18
TORSDOF 9
ENDMDL
MODEL 5
REMARK VINA RESULT:    -6.673      2.479      3.707
REMARK INTER + INTRA:         -11.909
REMARK INTER:                 -10.348
REMARK INTRA:                  -1.561
REMARK UNBOUND:                -1.726
REMARK  Name = 
REMARK  11 active torsions:
REMARK  status: ('A' for Active; 'I' for Inactive)
REMARK    1  A    between atoms: C_1  and  C_2
REMARK    2  A    between atoms: C_2  and  C_3
REMARK    3  A    between atoms: C_3  and  O_4
REMARK    4  A    between atoms: C_3  and  C_20
REMARK    5  A    between atoms: O_4  and  C_5
REMARK    6  A    between atoms: C_8  and  C_9
REMARK    7  A    between atoms: C_9  and  N_10
REMARK    8  A    between atoms: N_10  and  C_11
REMARK    9  A    between atoms: C_11  and  C_12
REMARK   10  A    between atoms: N_15  and  C_16
REMARK   11  A    between atoms: C_20  and  C_22
REMARK                            x       y       z     vdW  Elec       q    Type
REMARK                         _______ _______ _______ _____ _____    ______ ____
ROOT
ATOM      1  O   UNL     1      47.921   4.443  14.903  0.00  0.00    +0.000 OA
ENDROOT
BRANCH   1   2
ATOM      2  C   UNL     1      46.994   4.627  13.915  0.00  0.00    +0.000 A 
ATOM      3  C   UNL     1      46.919   5.925  13.398  0.00  0.00    +0.000 A 
ATOM      4  C   UNL     1      46.094   6.217  12.302  0.00  0.00    +0.000 A 
ATOM      5  C   UNL     1      45.335   5.210  11.696  0.00  0.00    +0.000 A 
ATOM      6  C   UNL     1      45.367   3.928  12.258  0.00  0.00    +0.000 A 
ATOM      7  C   UNL     1      46.183   3.643  13.359  0.00  0.00    +0.000 A 
BRANCH   5   8
ATOM      8  C   UNL     1      44.521   5.477  10.448  0.00  0.00    +0.000 C 
BRANCH   8   9
ATOM      9  N   UNL     1      43.936   4.235   9.945  0.00  0.00    +0.000 NA
ATOM     10  H   UNL     1      42.920   4.317   9.974  0.00  0.00    +0.000 HD
BRANCH   9  11
ATOM     11  C   UNL     1      44.366   3.926   8.580  0.00  0.00    +0.000 C 
BRANCH  11  12
ATOM     12  C   UNL     1      45.789   3.354   8.607  0.00  0.00    +0.000 C 
ATOM     13  C   UNL     1      45.834   1.829   8.778  0.00  0.00    +0.000 C 
ATOM     14  C   UNL     1      46.523   1.309   7.524  0.00  0.00    +0.000 C 
ATOM     15  N   UNL     1      47.379   2.427   7.133  0.00  0.00    +0.000 NA
ATOM     16  C   UNL     1      47.862   2.301   5.764  0.00  0.00    +0.000 C 
ATOM     17  C   UNL     1      46.543   3.619   7.300  0.00  0.00    +0.000 C 
ENDBRANCH  11  12
ENDBRANCH   9  11
ENDBRANCH   8   9
ENDBRANCH   5   8
ENDBRANCH   1   2
BRANCH   1  18
ATOM     18  C   UNL     1      47.593   4.650  16.282  0.00  0.00    +0.000 C 
BRANCH  18  20
ATOM     19  C   UNL     1      48.519   2.266  16.594  0.00  0.00    +0.000 C 
ATOM     20  C   UNL     1      47.464   3.288  17.007  0.00  0.00    +0.000 C 
ENDBRANCH  18  20
BRANCH  18  21
ATOM     21  C   UNL     1      48.415   5.711  17.062  0.00  0.00    +0.000 C 
ATOM     22  O   UNL     1      48.019   6.084  18.172  0.00  0.00    +0.000 OA
BRANCH  21  23
ATOM     23  C   UNL     1      49.706   6.246  16.568  0.00  0.00    +0.000 A 
ATOM     24  C   UNL     1      49.682   7.273  15.628  0.00  0.00    +0.000 A 
ATOM     25  S   UNL     1      51.222   7.835  15.170  0.00  0.00    +0.000 S 
ATOM     26  C   UNL     1      51.988   6.710  16.188  0.00  0.00    +0.000 A 
ATOM     27  N   UNL     1      53.345   6.675  16.275  0.00  0.00    +0.000 NA
ATOM     28  C   UNL     1      53.805   5.771  17.071  0.00  0.00    +0.000 A 
ATOM     29  N   UNL     1      53.029   4.883  17.771  0.00  0.00    +0.000 N 
ATOM     30  C   UNL     1      51.663   4.809  17.616  0.00  0.00    +0.000 A 
ATOM     31  O   UNL     1      51.035   3.847  18.055  0.00  0.00    +0.000 OA
ATOM     32  C   UNL     1      51.081   5.884  16.836  0.00  0.00    +0.000 A 
ATOM     33  H   UNL     1      53.453   4.143  18.309  0.00  0.00    +0.000 HD
ENDBRANCH  21  23
ENDBRANCH  18  21
ENDBRANCH   1  18
TORSDOF 9
ENDMDL
MODEL 6
REMARK VINA RESULT:    -6.626      1.984      2.251
REMARK INTER + INTRA:         -11.838
REMARK INTER:                 -10.277
REMARK INTRA:                  -1.561
REMARK UNBOUND:                -1.726
REMARK  Name = 
REMARK  11 active torsions:
REMARK  status: ('A' for Active; 'I' for Inactive)
REMARK    1  A    between atoms: C_1  and  C_2
REMARK    2  A    between atoms: C_2  and  C_3
REMARK    3  A    between atoms: C_3  and  O_4
REMARK    4  A    between atoms: C_3  and  C_20
REMARK    5  A    between atoms: O_4  and  C_5
REMARK    6  A    between atoms: C_8  and  C_9
REMARK    7  A    between atoms: C_9  and  N_10
REMARK    8  A    between atoms: N_10  and  C_11
REMARK    9  A    between atoms: C_11  and  C_12
REMARK   10  A    between atoms: N_15  and  C_16
REMARK   11  A    between atoms: C_20  and  C_22
REMARK                            x       y       z     vdW  Elec       q    Type
REMARK                         _______ _______ _______ _____ _____    ______ ____
ROOT
ATOM      1  O   UNL     1      48.261   8.743  13.146  0.00  0.00    +0.000 OA
ENDROOT
BRANCH   1   2
ATOM      2  C   UNL     1      47.169   8.095  12.639  0.00  0.00    +0.000 A 
ATOM      3  C   UNL     1      47.452   6.994  11.823  0.00  0.00    +0.000 A 
ATOM      4  C   UNL     1      46.423   6.174  11.338  0.00  0.00    +0.000 A 
ATOM      5  C   UNL     1      45.089   6.435  11.670  0.00  0.00    +0.000 A 
ATOM      6  C   UNL     1      44.809   7.575  12.434  0.00  0.00    +0.000 A 
ATOM      7  C   UNL     1      45.838   8.398  12.908  0.00  0.00    +0.000 A 
BRANCH   5   8
ATOM      8  C   UNL     1      43.973   5.505  11.248  0.00  0.00    +0.000 C 
BRANCH   8   9
ATOM      9  N   UNL     1      44.301   4.854   9.981  0.00  0.00    +0.000 NA
ATOM     10  H   UNL     1      45.172   5.248   9.627  0.00  0.00    +0.000 HD
BRANCH   9  11
ATOM     11  C   UNL     1      44.437   3.403  10.115  0.00  0.00    +0.000 C 
BRANCH  11  12
ATOM     12  C   UNL     1      44.585   2.770   8.726  0.00  0.00    +0.000 C 
ATOM     13  C   UNL     1      44.912   3.785   7.622  0.00  0.00    +0.000 C 
ATOM     14  C   UNL     1      46.261   3.349   7.069  0.00  0.00    +0.000 C 
ATOM     15  N   UNL     1      46.267   1.908   7.316  0.00  0.00    +0.000 NA
ATOM     16  C   UNL     1      47.600   1.332   7.200  0.00  0.00    +0.000 C 
ATOM     17  C   UNL     1      45.732   1.756   8.671  0.00  0.00    +0.000 C 
ENDBRANCH  11  12
ENDBRANCH   9  11
ENDBRANCH   8   9
ENDBRANCH   5   8
ENDBRANCH   1   2
BRANCH   1  18
ATOM     18  C   UNL     1      49.208   8.069  13.983  0.00  0.00    +0.000 C 
BRANCH  18  20
ATOM     19  C   UNL     1      50.779  10.110  14.022  0.00  0.00    +0.000 C 
ATOM     20  C   UNL     1      50.632   8.621  13.725  0.00  0.00    +0.000 C 
ENDBRANCH  18  20
BRANCH  18  21
ATOM     21  C   UNL     1      48.850   7.908  15.484  0.00  0.00    +0.000 C 
ATOM     22  O   UNL     1      48.165   8.776  16.037  0.00  0.00    +0.000 OA
BRANCH  21  23
ATOM     23  C   UNL     1      49.232   6.714  16.275  0.00  0.00    +0.000 A 
ATOM     24  C   UNL     1      50.389   6.771  17.047  0.00  0.00    +0.000 A 
ATOM     25  S   UNL     1      50.700   5.359  17.944  0.00  0.00    +0.000 S 
ATOM     26  C   UNL     1      49.314   4.599  17.318  0.00  0.00    +0.000 A 
ATOM     27  N   UNL     1      48.987   3.337  17.707  0.00  0.00    +0.000 NA
ATOM     28  C   UNL     1      47.921   2.868  17.154  0.00  0.00    +0.000 A 
ATOM     29  N   UNL     1      47.166   3.540  16.227  0.00  0.00    +0.000 N 
ATOM     30  C   UNL     1      47.532   4.765  15.719  0.00  0.00    +0.000 A 
ATOM     31  O   UNL     1      46.981   5.218  14.717  0.00  0.00    +0.000 OA
ATOM     32  C   UNL     1      48.647   5.397  16.399  0.00  0.00    +0.000 A 
ATOM     33  H   UNL     1      46.394   3.084  15.766  0.00  0.00    +0.000 HD
ENDBRANCH  21  23
ENDBRANCH  18  21
ENDBRANCH   1  18
TORSDOF 9
ENDMDL
MODEL 7
REMARK VINA RESULT:    -6.624      1.257      1.831
REMARK INTER + INTRA:         -11.834
REMARK INTER:                 -10.494
REMARK INTRA:                  -1.341
REMARK UNBOUND:                -1.726
REMARK  Name = 
REMARK  11 active torsions:
REMARK  status: ('A' for Active; 'I' for Inactive)
REMARK    1  A    between atoms: C_1  and  C_2
REMARK    2  A    between atoms: C_2  and  C_3
REMARK    3  A    between atoms: C_3  and  O_4
REMARK    4  A    between atoms: C_3  and  C_20
REMARK    5  A    between atoms: O_4  and  C_5
REMARK    6  A    between atoms: C_8  and  C_9
REMARK    7  A    between atoms: C_9  and  N_10
REMARK    8  A    between atoms: N_10  and  C_11
REMARK    9  A    between atoms: C_11  and  C_12
REMARK   10  A    between atoms: N_15  and  C_16
REMARK   11  A    between atoms: C_20  and  C_22
REMARK                            x       y       z     vdW  Elec       q    Type
REMARK                         _______ _______ _______ _____ _____    ______ ____
ROOT
ATOM      1  O   UNL     1      47.348   7.258  13.445  0.00  0.00    +0.000 OA
ENDROOT
BRANCH   1   2
ATOM      2  C   UNL     1      46.420   6.363  12.989  0.00  0.00    +0.000 A 
ATOM      3  C   UNL     1      46.590   5.046  13.432  0.00  0.00    +0.000 A 
ATOM      4  C   UNL     1      45.640   4.058  13.133  0.00  0.00    +0.000 A 
ATOM      5  C   UNL     1      44.495   4.373  12.393  0.00  0.00    +0.000 A 
ATOM      6  C   UNL     1      44.364   5.677  11.900  0.00  0.00    +0.000 A 
ATOM      7  C   UNL     1      45.319   6.658  12.191  0.00  0.00    +0.000 A 
BRANCH   5   8
ATOM      8  C   UNL     1      43.406   3.351  12.150  0.00  0.00    +0.000 C 
BRANCH   8   9
ATOM      9  N   UNL     1      43.488   2.832  10.786  0.00  0.00    +0.000 NA
ATOM     10  H   UNL     1      43.038   3.495  10.155  0.00  0.00    +0.000 HD
BRANCH   9  11
ATOM     11  C   UNL     1      44.868   2.603  10.356  0.00  0.00    +0.000 C 
BRANCH  11  12
ATOM     12  C   UNL     1      44.934   2.589   8.823  0.00  0.00    +0.000 C 
ATOM     13  C   UNL     1      45.232   3.965   8.211  0.00  0.00    +0.000 C 
ATOM     14  C   UNL     1      46.542   3.789   7.457  0.00  0.00    +0.000 C 
ATOM     15  N   UNL     1      46.524   2.372   7.096  0.00  0.00    +0.000 NA
ATOM     16  C   UNL     1      47.836   1.891   6.684  0.00  0.00    +0.000 C 
ATOM     17  C   UNL     1      46.052   1.683   8.299  0.00  0.00    +0.000 C 
ENDBRANCH  11  12
ENDBRANCH   9  11
ENDBRANCH   8   9
ENDBRANCH   5   8
ENDBRANCH   1   2
BRANCH   1  18
ATOM     18  C   UNL     1      48.750   6.971  13.390  0.00  0.00    +0.000 C 
BRANCH  18  20
ATOM     19  C   UNL     1      48.846   8.972  11.769  0.00  0.00    +0.000 C 
ATOM     20  C   UNL     1      49.365   7.577  12.104  0.00  0.00    +0.000 C 
ENDBRANCH  18  20
BRANCH  18  21
ATOM     21  C   UNL     1      49.584   7.225  14.674  0.00  0.00    +0.000 C 
ATOM     22  O   UNL     1      50.712   7.720  14.573  0.00  0.00    +0.000 OA
BRANCH  21  23
ATOM     23  C   UNL     1      49.055   6.970  16.035  0.00  0.00    +0.000 A 
ATOM     24  C   UNL     1      48.939   5.651  16.465  0.00  0.00    +0.000 A 
ATOM     25  S   UNL     1      48.364   5.485  18.058  0.00  0.00    +0.000 S 
ATOM     26  C   UNL     1      48.219   7.170  18.232  0.00  0.00    +0.000 A 
ATOM     27  N   UNL     1      47.781   7.705  19.404  0.00  0.00    +0.000 NA
ATOM     28  C   UNL     1      47.704   8.992  19.407  0.00  0.00    +0.000 A 
ATOM     29  N   UNL     1      48.005   9.791  18.334  0.00  0.00    +0.000 N 
ATOM     30  C   UNL     1      48.333   9.282  17.098  0.00  0.00    +0.000 A 
ATOM     31  O   UNL     1      48.345  10.007  16.105  0.00  0.00    +0.000 OA
ATOM     32  C   UNL     1      48.562   7.850  17.072  0.00  0.00    +0.000 A 
ATOM     33  H   UNL     1      47.839  10.785  18.372  0.00  0.00    +0.000 HD
ENDBRANCH  21  23
ENDBRANCH  18  21
ENDBRANCH   1  18
TORSDOF 9
ENDMDL
MODEL 8
REMARK VINA RESULT:    -6.595      3.618      8.398
REMARK INTER + INTRA:         -11.790
REMARK INTER:                 -10.402
REMARK INTRA:                  -1.388
REMARK UNBOUND:                -1.726
REMARK  Name = 
REMARK  11 active torsions:
REMARK  status: ('A' for Active; 'I' for Inactive)
REMARK    1  A    between atoms: C_1  and  C_2
REMARK    2  A    between atoms: C_2  and  C_3
REMARK    3  A    between atoms: C_3  and  O_4
REMARK    4  A    between atoms: C_3  and  C_20
REMARK    5  A    between atoms: O_4  and  C_5
REMARK    6  A    between atoms: C_8  and  C_9
REMARK    7  A    between atoms: C_9  and  N_10
REMARK    8  A    between atoms: N_10  and  C_11
REMARK    9  A    between atoms: C_11  and  C_12
REMARK   10  A    between atoms: N_15  and  C_16
REMARK   11  A    between atoms: C_20  and  C_22
REMARK                            x       y       z     vdW  Elec       q    Type
REMARK                         _______ _______ _______ _____ _____    ______ ____
ROOT
ATOM      1  O   UNL     1      47.603   5.663  13.078  0.00  0.00    +0.000 OA
ENDROOT
BRANCH   1   2
ATOM      2  C   UNL     1      47.732   5.527  14.432  0.00  0.00    +0.000 A 
ATOM      3  C   UNL     1      47.027   4.458  14.996  0.00  0.00    +0.000 A 
ATOM      4  C   UNL     1      47.169   4.139  16.354  0.00  0.00    +0.000 A 
ATOM      5  C   UNL     1      48.030   4.879  17.172  0.00  0.00    +0.000 A 
ATOM      6  C   UNL     1      48.683   5.985  16.615  0.00  0.00    +0.000 A 
ATOM      7  C   UNL     1      48.530   6.308  15.261  0.00  0.00    +0.000 A 
BRANCH   5   8
ATOM      8  C   UNL     1      48.282   4.489  18.612  0.00  0.00    +0.000 C 
BRANCH   8   9
ATOM      9  N   UNL     1      49.591   3.852  18.748  0.00  0.00    +0.000 NA
ATOM     10  H   UNL     1      49.761   3.660  19.735  0.00  0.00    +0.000 HD
BRANCH   9  11
ATOM     11  C   UNL     1      49.691   2.609  17.981  0.00  0.00    +0.000 C 
BRANCH  11  12
ATOM     12  C   UNL     1      51.069   2.527  17.312  0.00  0.00    +0.000 C 
ATOM     13  C   UNL     1      52.102   3.488  17.917  0.00  0.00    +0.000 C 
ATOM     14  C   UNL     1      53.212   2.594  18.451  0.00  0.00    +0.000 C 
ATOM     15  N   UNL     1      53.134   1.421  17.582  0.00  0.00    +0.000 NA
ATOM     16  C   UNL     1      53.857   0.279  18.128  0.00  0.00    +0.000 C 
ATOM     17  C   UNL     1      51.701   1.140  17.456  0.00  0.00    +0.000 C 
ENDBRANCH  11  12
ENDBRANCH   9  11
ENDBRANCH   8   9
ENDBRANCH   5   8
ENDBRANCH   1   2
BRANCH   1  18
ATOM     18  C   UNL     1      46.949   6.799  12.501  0.00  0.00    +0.000 C 
BRANCH  18  20
ATOM     19  C   UNL     1      48.264   8.973  12.074  0.00  0.00    +0.000 C 
ATOM     20  C   UNL     1      47.931   7.568  11.583  0.00  0.00    +0.000 C 
ENDBRANCH  18  20
BRANCH  18  21
ATOM     21  C   UNL     1      45.542   6.577  11.883  0.00  0.00    +0.000 C 
ATOM     22  O   UNL     1      44.868   7.559  11.551  0.00  0.00    +0.000 OA
BRANCH  21  23
ATOM     23  C   UNL     1      44.995   5.229  11.600  0.00  0.00    +0.000 A 
ATOM     24  C   UNL     1      44.410   4.518  12.644  0.00  0.00    +0.000 A 
ATOM     25  S   UNL     1      43.779   3.004  12.188  0.00  0.00    +0.000 S 
ATOM     26  C   UNL     1      44.286   3.223  10.581  0.00  0.00    +0.000 A 
ATOM     27  N   UNL     1      44.032   2.269   9.644  0.00  0.00    +0.000 NA
ATOM     28  C   UNL     1      44.476   2.547   8.466  0.00  0.00    +0.000 A 
ATOM     29  N   UNL     1      45.172   3.684   8.146  0.00  0.00    +0.000 N 
ATOM     30  C   UNL     1      45.553   4.611   9.089  0.00  0.00    +0.000 A 
ATOM     31  O   UNL     1      46.385   5.475   8.818  0.00  0.00    +0.000 OA
ATOM     32  C   UNL     1      44.970   4.417  10.403  0.00  0.00    +0.000 A 
ATOM     33  H   UNL     1      45.569   3.801   7.227  0.00  0.00    +0.000 HD
ENDBRANCH  21  23
ENDBRANCH  18  21
ENDBRANCH   1  18
TORSDOF 9
ENDMDL
MODEL 9
REMARK VINA RESULT:    -6.118      3.064      4.269
REMARK INTER + INTRA:         -11.062
REMARK INTER:                  -9.510
REMARK INTRA:                  -1.552
REMARK UNBOUND:                -1.726
REMARK  Name = 
REMARK  11 active torsions:
REMARK  status: ('A' for Active; 'I' for Inactive)
REMARK    1  A    between atoms: C_1  and  C_2
REMARK    2  A    between atoms: C_2  and  C_3
REMARK    3  A    between atoms: C_3  and  O_4
REMARK    4  A    between atoms: C_3  and  C_20
REMARK    5  A    between atoms: O_4  and  C_5
REMARK    6  A    between atoms: C_8  and  C_9
REMARK    7  A    between atoms: C_9  and  N_10
REMARK    8  A    between atoms: N_10  and  C_11
REMARK    9  A    between atoms: C_11  and  C_12
REMARK   10  A    between atoms: N_15  and  C_16
REMARK   11  A    between atoms: C_20  and  C_22
REMARK                            x       y       z     vdW  Elec       q    Type
REMARK                         _______ _______ _______ _____ _____    ______ ____
ROOT
ATOM      1  O   UNL     1      48.117   7.118  12.889  0.00  0.00    +0.000 OA
ENDROOT
BRANCH   1   2
ATOM      2  C   UNL     1      47.033   6.359  12.547  0.00  0.00    +0.000 A 
ATOM      3  C   UNL     1      46.823   5.224  13.340  0.00  0.00    +0.000 A 
ATOM      4  C   UNL     1      45.681   4.428  13.169  0.00  0.00    +0.000 A 
ATOM      5  C   UNL     1      44.720   4.760  12.207  0.00  0.00    +0.000 A 
ATOM      6  C   UNL     1      44.968   5.860  11.376  0.00  0.00    +0.000 A 
ATOM      7  C   UNL     1      46.115   6.646  11.542  0.00  0.00    +0.000 A 
BRANCH   5   8
ATOM      8  C   UNL     1      43.430   3.980  12.077  0.00  0.00    +0.000 C 
BRANCH   8   9
ATOM      9  N   UNL     1      43.319   3.396  10.741  0.00  0.00    +0.000 NA
ATOM     10  H   UNL     1      43.227   4.150  10.060  0.00  0.00    +0.000 HD
BRANCH   9  11
ATOM     11  C   UNL     1      44.471   2.561  10.397  0.00  0.00    +0.000 C 
BRANCH  11  12
ATOM     12  C   UNL     1      44.659   2.547   8.874  0.00  0.00    +0.000 C 
ATOM     13  C   UNL     1      44.940   3.934   8.279  0.00  0.00    +0.000 C 
ATOM     14  C   UNL     1      46.313   3.818   7.632  0.00  0.00    +0.000 C 
ATOM     15  N   UNL     1      46.391   2.401   7.281  0.00  0.00    +0.000 NA
ATOM     16  C   UNL     1      47.752   1.980   6.977  0.00  0.00    +0.000 C 
ATOM     17  C   UNL     1      45.856   1.693   8.447  0.00  0.00    +0.000 C 
ENDBRANCH  11  12
ENDBRANCH   9  11
ENDBRANCH   8   9
ENDBRANCH   5   8
ENDBRANCH   1   2
BRANCH   1  18
ATOM     18  C   UNL     1      47.965   8.399  13.511  0.00  0.00    +0.000 C 
BRANCH  18  20
ATOM     19  C   UNL     1      49.408   7.287  15.333  0.00  0.00    +0.000 C 
ATOM     20  C   UNL     1      48.314   8.301  15.018  0.00  0.00    +0.000 C 
ENDBRANCH  18  20
BRANCH  18  21
ATOM     21  C   UNL     1      48.590   9.624  12.792  0.00  0.00    +0.000 C 
ATOM     22  O   UNL     1      47.856  10.389  12.156  0.00  0.00    +0.000 OA
BRANCH  21  23
ATOM     23  C   UNL     1      50.029   9.964  12.894  0.00  0.00    +0.000 A 
ATOM     24  C   UNL     1      50.387  11.151  13.529  0.00  0.00    +0.000 A 
ATOM     25  S   UNL     1      52.066  11.411  13.625  0.00  0.00    +0.000 S 
ATOM     26  C   UNL     1      52.386   9.962  12.797  0.00  0.00    +0.000 A 
ATOM     27  N   UNL     1      53.669   9.576  12.558  0.00  0.00    +0.000 NA
ATOM     28  C   UNL     1      53.780   8.466  11.912  0.00  0.00    +0.000 A 
ATOM     29  N   UNL     1      52.722   7.717  11.464  0.00  0.00    +0.000 N 
ATOM     30  C   UNL     1      51.416   8.135  11.580  0.00  0.00    +0.000 A 
ATOM     31  O   UNL     1      50.521   7.575  10.950  0.00  0.00    +0.000 OA
ATOM     32  C   UNL     1      51.225   9.309  12.411  0.00  0.00    +0.000 A 
ATOM     33  H   UNL     1      52.875   6.904  10.889  0.00  0.00    +0.000 HD
ENDBRANCH  21  23
ENDBRANCH  18  21
ENDBRANCH   1  18
TORSDOF 9
ENDMDL
