MODEL 1
REMARK VINA RESULT:    -7.630      0.000      0.000
REMARK INTER + INTRA:         -10.252
REMARK INTER:                  -9.414
REMARK INTRA:                  -0.838
REMARK UNBOUND:                -0.838
REMARK  Name = 
REMARK  4 active torsions:
REMARK  status: ('A' for Active; 'I' for Inactive)
REMARK    1  A    between atoms: C_2  and  C_5
REMARK    2  A    between atoms: N_10  and  C_11
REMARK    3  A    between atoms: C_11  and  C_12
REMARK    4  A    between atoms: C_16  and  C_17
REMARK                            x       y       z     vdW  Elec       q    Type
REMARK                         _______ _______ _______ _____ _____    ______ ____
ROOT
ATOM      1  C   UNL     1      44.582   6.579  11.334  0.00  0.00    +0.000 C 
ENDROOT
BRANCH   1   7
ATOM      2  C   UNL     1      48.620   7.603  12.527  0.00  0.00    +0.000 A 
ATOM      3  C   UNL     1      49.054   6.933  13.668  0.00  0.00    +0.000 A 
ATOM      4  C   UNL     1      48.120   6.215  14.392  0.00  0.00    +0.000 A 
ATOM      5  N   UNL     1      46.814   6.122  14.056  0.00  0.00    +0.000 NA
ATOM      6  C   UNL     1      46.388   6.775  12.957  0.00  0.00    +0.000 A 
ATOM      7  N   UNL     1      45.023   6.707  12.709  0.00  0.00    +0.000 N 
ATOM      8  C   UNL     1      47.263   7.521  12.179  0.00  0.00    +0.000 A 
ATOM      9  H   UNL     1      44.637   6.012  13.344  0.00  0.00    +0.000 HD
BRANCH   2  11
ATOM     10  F   UNL     1      50.204   7.676  10.727  0.00  0.00    +0.000 F 
ATOM     11  C   UNL     1      49.561   8.410  11.677  0.00  0.00    +0.000 C 
ATOM     12  F   UNL     1      50.539   9.013  12.409  0.00  0.00    +0.000 F 
ATOM     13  F   UNL     1      48.926   9.412  11.009  0.00  0.00    +0.000 F 
ENDBRANCH   2  11
ENDBRANCH   1   7
BRANCH   1  14
ATOM     14  C   UNL     1      44.490   5.124  10.931  0.00  0.00    +0.000 A 
ATOM     15  C   UNL     1      43.604   4.264  11.588  0.00  0.00    +0.000 A 
ATOM     16  C   UNL     1      43.458   2.946  11.162  0.00  0.00    +0.000 A 
ATOM     17  C   UNL     1      44.205   2.472  10.079  0.00  0.00    +0.000 A 
ATOM     18  C   UNL     1      45.115   3.299   9.396  0.00  0.00    +0.000 A 
ATOM     19  C   UNL     1      45.251   4.625   9.857  0.00  0.00    +0.000 A 
BRANCH  18  20
ATOM     20  C   UNL     1      45.872   2.804   8.224  0.00  0.00    +0.000 A 
ATOM     21  C   UNL     1      46.134   3.605   7.103  0.00  0.00    +0.000 A 
ATOM     22  C   UNL     1      46.834   3.096   6.009  0.00  0.00    +0.000 A 
ATOM     23  C   UNL     1      47.273   1.784   6.059  0.00  0.00    +0.000 A 
ATOM     24  N   UNL     1      47.054   0.970   7.109  0.00  0.00    +0.000 NA
ATOM     25  C   UNL     1      46.361   1.496   8.151  0.00  0.00    +0.000 A 
ENDBRANCH  18  20
ENDBRANCH   1  14
TORSDOF 4
ENDMDL
MODEL 2
REMARK VINA RESULT:    -7.591      2.697      3.128
REMARK INTER + INTRA:         -10.204
REMARK INTER:                  -9.452
REMARK INTRA:                  -0.752
REMARK UNBOUND:                -0.838
REMARK  Name = 
REMARK  4 active torsions:
REMARK  status: ('A' for Active; 'I' for Inactive)
REMARK    1  A    between atoms: C_2  and  C_5
REMARK    2  A    between atoms: N_10  and  C_11
REMARK    3  A    between atoms: C_11  and  C_12
REMARK    4  A    between atoms: C_16  and  C_17
REMARK                            x       y       z     vdW  Elec       q    Type
REMARK                         _______ _______ _______ _____ _____    ______ ____
ROOT
ATOM      1  C   UNL     1      44.574   6.202  11.862  0.00  0.00    +0.000 C 
ENDROOT
BRANCH   1   7
ATOM      2  C   UNL     1      47.587   5.334  14.852  0.00  0.00    +0.000 A 
ATOM      3  C   UNL     1      48.461   6.393  15.091  0.00  0.00    +0.000 A 
ATOM      4  C   UNL     1      48.415   7.475  14.233  0.00  0.00    +0.000 A 
ATOM      5  N   UNL     1      47.571   7.570  13.181  0.00  0.00    +0.000 NA
ATOM      6  C   UNL     1      46.730   6.545  12.941  0.00  0.00    +0.000 A 
ATOM      7  N   UNL     1      45.946   6.666  11.801  0.00  0.00    +0.000 N 
ATOM      8  C   UNL     1      46.718   5.420  13.754  0.00  0.00    +0.000 A 
ATOM      9  H   UNL     1      46.057   7.618  11.460  0.00  0.00    +0.000 HD
BRANCH   2  11
ATOM     10  F   UNL     1      46.483   4.054  16.555  0.00  0.00    +0.000 F 
ATOM     11  C   UNL     1      47.564   4.114  15.729  0.00  0.00    +0.000 C 
ATOM     12  F   UNL     1      48.657   4.032  16.538  0.00  0.00    +0.000 F 
ATOM     13  F   UNL     1      47.548   2.958  15.008  0.00  0.00    +0.000 F 
ENDBRANCH   2  11
ENDBRANCH   1   7
BRANCH   1  14
ATOM     14  C   UNL     1      44.455   4.797  11.314  0.00  0.00    +0.000 A 
ATOM     15  C   UNL     1      43.554   3.891  11.884  0.00  0.00    +0.000 A 
ATOM     16  C   UNL     1      43.384   2.625  11.327  0.00  0.00    +0.000 A 
ATOM     17  C   UNL     1      44.121   2.250  10.201  0.00  0.00    +0.000 A 
ATOM     18  C   UNL     1      45.045   3.125   9.602  0.00  0.00    +0.000 A 
ATOM     19  C   UNL     1      45.206   4.396  10.194  0.00  0.00    +0.000 A 
BRANCH  18  20
ATOM     20  C   UNL     1      45.791   2.738   8.384  0.00  0.00    +0.000 A 
ATOM     21  C   UNL     1      46.024   3.629   7.326  0.00  0.00    +0.000 A 
ATOM     22  C   UNL     1      46.716   3.220   6.186  0.00  0.00    +0.000 A 
ATOM     23  C   UNL     1      47.175   1.916   6.126  0.00  0.00    +0.000 A 
ATOM     24  N   UNL     1      46.985   1.018   7.110  0.00  0.00    +0.000 NA
ATOM     25  C   UNL     1      46.300   1.448   8.200  0.00  0.00    +0.000 A 
ENDBRANCH  18  20
ENDBRANCH   1  14
TORSDOF 4
ENDMDL
MODEL 3
REMARK VINA RESULT:    -7.318      2.144      2.759
REMARK INTER + INTRA:          -9.867
REMARK INTER:                  -9.446
REMARK INTRA:                  -0.421
REMARK UNBOUND:                -0.838
REMARK  Name = 
REMARK  4 active torsions:
REMARK  status: ('A' for Active; 'I' for Inactive)
REMARK    1  A    between atoms: C_2  and  C_5
REMARK    2  A    between atoms: N_10  and  C_11
REMARK    3  A    between atoms: C_11  and  C_12
REMARK    4  A    between atoms: C_16  and  C_17
REMARK                            x       y       z     vdW  Elec       q    Type
REMARK                         _______ _______ _______ _____ _____    ______ ____
ROOT
ATOM      1  C   UNL     1      42.848   6.365  11.406  0.00  0.00    +0.000 C 
ENDROOT
BRANCH   1   7
ATOM      2  C   UNL     1      46.729   7.030  13.212  0.00  0.00    +0.000 A 
ATOM      3  C   UNL     1      47.114   8.369  13.237  0.00  0.00    +0.000 A 
ATOM      4  C   UNL     1      46.355   9.273  12.518  0.00  0.00    +0.000 A 
ATOM      5  N   UNL     1      45.261   8.937  11.798  0.00  0.00    +0.000 NA
ATOM      6  C   UNL     1      44.890   7.643  11.765  0.00  0.00    +0.000 A 
ATOM      7  N   UNL     1      43.808   7.349  10.946  0.00  0.00    +0.000 N 
ATOM      8  C   UNL     1      45.603   6.673  12.457  0.00  0.00    +0.000 A 
ATOM      9  H   UNL     1      43.401   8.235  10.657  0.00  0.00    +0.000 HD
BRANCH   2  11
ATOM     10  F   UNL     1      48.265   6.468  14.968  0.00  0.00    +0.000 F 
ATOM     11  C   UNL     1      47.493   5.974  13.960  0.00  0.00    +0.000 C 
ATOM     12  F   UNL     1      48.336   5.270  13.154  0.00  0.00    +0.000 F 
ATOM     13  F   UNL     1      46.673   5.051  14.535  0.00  0.00    +0.000 F 
ENDBRANCH   2  11
ENDBRANCH   1   7
BRANCH   1  14
ATOM     14  C   UNL     1      43.366   4.961  11.184  0.00  0.00    +0.000 A 
ATOM     15  C   UNL     1      42.968   3.920  12.029  0.00  0.00    +0.000 A 
ATOM     16  C   UNL     1      43.378   2.613  11.775  0.00  0.00    +0.000 A 
ATOM     17  C   UNL     1      44.199   2.337  10.679  0.00  0.00    +0.000 A 
ATOM     18  C   UNL     1      44.632   3.354   9.809  0.00  0.00    +0.000 A 
ATOM     19  C   UNL     1      44.212   4.670  10.097  0.00  0.00    +0.000 A 
BRANCH  18  20
ATOM     20  C   UNL     1      45.467   3.049   8.625  0.00  0.00    +0.000 A 
ATOM     21  C   UNL     1      46.010   1.777   8.393  0.00  0.00    +0.000 A 
ATOM     22  C   UNL     1      46.807   1.534   7.274  0.00  0.00    +0.000 A 
ATOM     23  C   UNL     1      47.043   2.576   6.394  0.00  0.00    +0.000 A 
ATOM     24  N   UNL     1      46.546   3.815   6.563  0.00  0.00    +0.000 NA
ATOM     25  C   UNL     1      45.783   4.018   7.667  0.00  0.00    +0.000 A 
ENDBRANCH  18  20
ENDBRANCH   1  14
TORSDOF 4
ENDMDL
MODEL 4
REMARK VINA RESULT:    -7.286      3.953      4.884
REMARK INTER + INTRA:          -9.828
REMARK INTER:                  -9.306
REMARK INTRA:                  -0.522
REMARK UNBOUND:                -0.838
REMARK  Name = 
REMARK  4 active torsions:
REMARK  status: ('A' for Active; 'I' for Inactive)
REMARK    1  A    between atoms: C_2  and  C_5
REMARK    2  A    between atoms: N_10  and  C_11
REMARK    3  A    between atoms: C_11  and  C_12
REMARK    4  A    between atoms: C_16  and  C_17
REMARK                            x       y       z     vdW  Elec       q    Type
REMARK                         _______ _______ _______ _____ _____    ______ ____
ROOT
ATOM      1  C   UNL     1      46.338   4.906  14.122  0.00  0.00    +0.000 C 
ENDROOT
BRANCH   1   7
ATOM      2  C   UNL     1      48.116   4.437  18.045  0.00  0.00    +0.000 A 
ATOM      3  C   UNL     1      49.107   3.459  18.098  0.00  0.00    +0.000 A 
ATOM      4  C   UNL     1      49.256   2.629  17.002  0.00  0.00    +0.000 A 
ATOM      5  N   UNL     1      48.502   2.713  15.883  0.00  0.00    +0.000 NA
ATOM      6  C   UNL     1      47.537   3.652  15.831  0.00  0.00    +0.000 A 
ATOM      7  N   UNL     1      46.745   3.636  14.691  0.00  0.00    +0.000 N 
ATOM      8  C   UNL     1      47.321   4.521  16.892  0.00  0.00    +0.000 A 
ATOM      9  H   UNL     1      47.182   2.997  14.030  0.00  0.00    +0.000 HD
BRANCH   2  11
ATOM     10  F   UNL     1      48.261   4.887  20.397  0.00  0.00    +0.000 F 
ATOM     11  C   UNL     1      47.877   5.383  19.188  0.00  0.00    +0.000 C 
ATOM     12  F   UNL     1      46.565   5.720  19.322  0.00  0.00    +0.000 F 
ATOM     13  F   UNL     1      48.549   6.559  19.036  0.00  0.00    +0.000 F 
ENDBRANCH   2  11
ENDBRANCH   1   7
BRANCH   1  14
ATOM     14  C   UNL     1      45.358   4.701  12.989  0.00  0.00    +0.000 A 
ATOM     15  C   UNL     1      44.023   5.096  13.128  0.00  0.00    +0.000 A 
ATOM     16  C   UNL     1      43.142   4.983  12.055  0.00  0.00    +0.000 A 
ATOM     17  C   UNL     1      43.584   4.465  10.835  0.00  0.00    +0.000 A 
ATOM     18  C   UNL     1      44.915   4.045  10.654  0.00  0.00    +0.000 A 
ATOM     19  C   UNL     1      45.782   4.160  11.760  0.00  0.00    +0.000 A 
BRANCH  18  20
ATOM     20  C   UNL     1      45.388   3.537   9.347  0.00  0.00    +0.000 A 
ATOM     21  C   UNL     1      45.524   2.168   9.075  0.00  0.00    +0.000 A 
ATOM     22  C   UNL     1      45.992   1.729   7.835  0.00  0.00    +0.000 A 
ATOM     23  C   UNL     1      46.310   2.676   6.878  0.00  0.00    +0.000 A 
ATOM     24  N   UNL     1      46.197   4.002   7.081  0.00  0.00    +0.000 NA
ATOM     25  C   UNL     1      45.749   4.393   8.301  0.00  0.00    +0.000 A 
ENDBRANCH  18  20
ENDBRANCH   1  14
TORSDOF 4
ENDMDL
MODEL 5
REMARK VINA RESULT:    -6.650      4.214      6.149
REMARK INTER + INTRA:          -9.042
REMARK INTER:                  -8.094
REMARK INTRA:                  -0.948
REMARK UNBOUND:                -0.838
REMARK  Name = 
REMARK  4 active torsions:
REMARK  status: ('A' for Active; 'I' for Inactive)
REMARK    1  A    between atoms: C_2  and  C_5
REMARK    2  A    between atoms: N_10  and  C_11
REMARK    3  A    between atoms: C_11  and  C_12
REMARK    4  A    between atoms: C_16  and  C_17
REMARK                            x       y       z     vdW  Elec       q    Type
REMARK                         _______ _______ _______ _____ _____    ______ ____
ROOT
ATOM      1  C   UNL     1      49.393   7.025  14.200  0.00  0.00    +0.000 C 
ENDROOT
BRANCH   1   7
ATOM      2  C   UNL     1      48.239   4.821  17.747  0.00  0.00    +0.000 A 
ATOM      3  C   UNL     1      47.727   5.624  18.765  0.00  0.00    +0.000 A 
ATOM      4  C   UNL     1      47.843   6.995  18.626  0.00  0.00    +0.000 A 
ATOM      5  N   UNL     1      48.418   7.601  17.563  0.00  0.00    +0.000 NA
ATOM      6  C   UNL     1      48.921   6.829  16.581  0.00  0.00    +0.000 A 
ATOM      7  N   UNL     1      49.569   7.506  15.557  0.00  0.00    +0.000 N 
ATOM      8  C   UNL     1      48.848   5.443  16.648  0.00  0.00    +0.000 A 
ATOM      9  H   UNL     1      49.376   8.497  15.683  0.00  0.00    +0.000 HD
BRANCH   2  11
ATOM     10  F   UNL     1      46.975   2.817  17.373  0.00  0.00    +0.000 F 
ATOM     11  C   UNL     1      48.163   3.322  17.809  0.00  0.00    +0.000 C 
ATOM     12  F   UNL     1      48.332   2.841  19.072  0.00  0.00    +0.000 F 
ATOM     13  F   UNL     1      49.123   2.722  17.052  0.00  0.00    +0.000 F 
ENDBRANCH   2  11
ENDBRANCH   1   7
BRANCH   1  14
ATOM     14  C   UNL     1      47.980   7.272  13.720  0.00  0.00    +0.000 A 
ATOM     15  C   UNL     1      47.488   8.578  13.611  0.00  0.00    +0.000 A 
ATOM     16  C   UNL     1      46.218   8.809  13.090  0.00  0.00    +0.000 A 
ATOM     17  C   UNL     1      45.422   7.736  12.681  0.00  0.00    +0.000 A 
ATOM     18  C   UNL     1      45.871   6.407  12.781  0.00  0.00    +0.000 A 
ATOM     19  C   UNL     1      47.157   6.201  13.324  0.00  0.00    +0.000 A 
BRANCH  18  20
ATOM     20  C   UNL     1      45.040   5.277  12.306  0.00  0.00    +0.000 A 
ATOM     21  C   UNL     1      44.645   5.143  10.967  0.00  0.00    +0.000 A 
ATOM     22  C   UNL     1      43.846   4.073  10.562  0.00  0.00    +0.000 A 
ATOM     23  C   UNL     1      43.460   3.143  11.511  0.00  0.00    +0.000 A 
ATOM     24  N   UNL     1      43.811   3.218  12.808  0.00  0.00    +0.000 NA
ATOM     25  C   UNL     1      44.581   4.277  13.168  0.00  0.00    +0.000 A 
ENDBRANCH  18  20
ENDBRANCH   1  14
TORSDOF 4
ENDMDL
MODEL 6
REMARK VINA RESULT:    -6.567      3.204      7.758
REMARK INTER + INTRA:          -8.941
REMARK INTER:                  -8.182
REMARK INTRA:                  -0.758
REMARK UNBOUND:                -0.838
REMARK  Name = 
REMARK  4 active torsions:
REMARK  status: ('A' for Active; 'I' for Inactive)
REMARK    1  A    between atoms: C_2  and  C_5
REMARK    2  A    between atoms: N_10  and  C_11
REMARK    3  A    between atoms: C_11  and  C_12
REMARK    4  A    between atoms: C_16  and  C_17
REMARK                            x       y       z     vdW  Elec       q    Type
REMARK                         _______ _______ _______ _____ _____    ______ ____
ROOT
ATOM      1  C   UNL     1      45.667   6.997  12.895  0.00  0.00    +0.000 C 
ENDROOT
BRANCH   1   7
ATOM      2  C   UNL     1      44.799   3.687  10.237  0.00  0.00    +0.000 A 
ATOM      3  C   UNL     1      43.840   2.807  10.733  0.00  0.00    +0.000 A 
ATOM      4  C   UNL     1      43.448   2.953  12.051  0.00  0.00    +0.000 A 
ATOM      5  N   UNL     1      43.936   3.899  12.884  0.00  0.00    +0.000 NA
ATOM      6  C   UNL     1      44.870   4.747  12.411  0.00  0.00    +0.000 A 
ATOM      7  N   UNL     1      45.390   5.644  13.335  0.00  0.00    +0.000 N 
ATOM      8  C   UNL     1      45.319   4.664  11.100  0.00  0.00    +0.000 A 
ATOM      9  H   UNL     1      44.815   5.580  14.172  0.00  0.00    +0.000 HD
BRANCH   2  11
ATOM     10  F   UNL     1      44.289   3.615   7.894  0.00  0.00    +0.000 F 
ATOM     11  C   UNL     1      45.289   3.606   8.819  0.00  0.00    +0.000 C 
ATOM     12  F   UNL     1      46.009   2.476   8.579  0.00  0.00    +0.000 F 
ATOM     13  F   UNL     1      46.108   4.645   8.493  0.00  0.00    +0.000 F 
ENDBRANCH   2  11
ENDBRANCH   1   7
BRANCH   1  14
ATOM     14  C   UNL     1      47.155   7.271  12.896  0.00  0.00    +0.000 A 
ATOM     15  C   UNL     1      47.772   7.825  11.769  0.00  0.00    +0.000 A 
ATOM     16  C   UNL     1      49.125   8.154  11.800  0.00  0.00    +0.000 A 
ATOM     17  C   UNL     1      49.877   7.923  12.955  0.00  0.00    +0.000 A 
ATOM     18  C   UNL     1      49.300   7.357  14.107  0.00  0.00    +0.000 A 
ATOM     19  C   UNL     1      47.931   7.023  14.044  0.00  0.00    +0.000 A 
BRANCH  18  20
ATOM     20  C   UNL     1      50.091   7.155  15.341  0.00  0.00    +0.000 A 
ATOM     21  C   UNL     1      51.471   7.398  15.401  0.00  0.00    +0.000 A 
ATOM     22  C   UNL     1      52.185   7.176  16.579  0.00  0.00    +0.000 A 
ATOM     23  C   UNL     1      51.499   6.719  17.690  0.00  0.00    +0.000 A 
ATOM     24  N   UNL     1      50.176   6.472  17.693  0.00  0.00    +0.000 NA
ATOM     25  C   UNL     1      49.515   6.689  16.527  0.00  0.00    +0.000 A 
ENDBRANCH  18  20
ENDBRANCH   1  14
TORSDOF 4
ENDMDL
MODEL 7
REMARK VINA RESULT:    -6.458      4.022      6.252
REMARK INTER + INTRA:          -8.806
REMARK INTER:                  -8.083
REMARK INTRA:                  -0.723
REMARK UNBOUND:                -0.838
REMARK  Name = 
REMARK  4 active torsions:
REMARK  status: ('A' for Active; 'I' for Inactive)
REMARK    1  A    between atoms: C_2  and  C_5
REMARK    2  A    between atoms: N_10  and  C_11
REMARK    3  A    between atoms: C_11  and  C_12
REMARK    4  A    between atoms: C_16  and  C_17
REMARK                            x       y       z     vdW  Elec       q    Type
REMARK                         _______ _______ _______ _____ _____    ______ ____
ROOT
ATOM      1  C   UNL     1      49.023   7.176  15.282  0.00  0.00    +0.000 C 
ENDROOT
BRANCH   1   7
ATOM      2  C   UNL     1      50.420   3.796  17.605  0.00  0.00    +0.000 A 
ATOM      3  C   UNL     1      49.447   2.822  17.820  0.00  0.00    +0.000 A 
ATOM      4  C   UNL     1      48.142   3.126  17.477  0.00  0.00    +0.000 A 
ATOM      5  N   UNL     1      47.757   4.306  16.943  0.00  0.00    +0.000 NA
ATOM      6  C   UNL     1      48.693   5.253  16.740  0.00  0.00    +0.000 A 
ATOM      7  N   UNL     1      48.224   6.471  16.265  0.00  0.00    +0.000 N 
ATOM      8  C   UNL     1      50.025   5.028  17.063  0.00  0.00    +0.000 A 
ATOM      9  H   UNL     1      47.251   6.335  16.001  0.00  0.00    +0.000 HD
BRANCH   2  11
ATOM     10  F   UNL     1      52.131   3.652  19.280  0.00  0.00    +0.000 F 
ATOM     11  C   UNL     1      51.864   3.559  17.948  0.00  0.00    +0.000 C 
ATOM     12  F   UNL     1      52.698   4.446  17.337  0.00  0.00    +0.000 F 
ATOM     13  F   UNL     1      52.292   2.324  17.566  0.00  0.00    +0.000 F 
ENDBRANCH   2  11
ENDBRANCH   1   7
BRANCH   1  14
ATOM     14  C   UNL     1      48.381   7.105  13.914  0.00  0.00    +0.000 A 
ATOM     15  C   UNL     1      48.910   7.840  12.847  0.00  0.00    +0.000 A 
ATOM     16  C   UNL     1      48.370   7.711  11.570  0.00  0.00    +0.000 A 
ATOM     17  C   UNL     1      47.290   6.852  11.348  0.00  0.00    +0.000 A 
ATOM     18  C   UNL     1      46.720   6.103  12.394  0.00  0.00    +0.000 A 
ATOM     19  C   UNL     1      47.278   6.263  13.679  0.00  0.00    +0.000 A 
BRANCH  18  20
ATOM     20  C   UNL     1      45.603   5.164  12.145  0.00  0.00    +0.000 A 
ATOM     21  C   UNL     1      45.132   4.877  10.856  0.00  0.00    +0.000 A 
ATOM     22  C   UNL     1      44.064   4.000  10.664  0.00  0.00    +0.000 A 
ATOM     23  C   UNL     1      43.486   3.411  11.775  0.00  0.00    +0.000 A 
ATOM     24  N   UNL     1      43.898   3.646  13.035  0.00  0.00    +0.000 NA
ATOM     25  C   UNL     1      44.932   4.512  13.185  0.00  0.00    +0.000 A 
ENDBRANCH  18  20
ENDBRANCH   1  14
TORSDOF 4
ENDMDL
MODEL 8
REMARK VINA RESULT:    -6.420      4.578      9.075
REMARK INTER + INTRA:          -8.759
REMARK INTER:                  -8.196
REMARK INTRA:                  -0.563
REMARK UNBOUND:                -0.838
REMARK  Name = 
REMARK  4 active torsions:
REMARK  status: ('A' for Active; 'I' for Inactive)
REMARK    1  A    between atoms: C_2  and  C_5
REMARK    2  A    between atoms: N_10  and  C_11
REMARK    3  A    between atoms: C_11  and  C_12
REMARK    4  A    between atoms: C_16  and  C_17
REMARK                            x       y       z     vdW  Elec       q    Type
REMARK                         _______ _______ _______ _____ _____    ______ ____
ROOT
ATOM      1  C   UNL     1      47.167   3.818  14.580  0.00  0.00    +0.000 C 
ENDROOT
BRANCH   1   7
ATOM      2  C   UNL     1      44.662   4.038  11.051  0.00  0.00    +0.000 A 
ATOM      3  C   UNL     1      44.157   5.312  10.801  0.00  0.00    +0.000 A 
ATOM      4  C   UNL     1      44.319   6.276  11.779  0.00  0.00    +0.000 A 
ATOM      5  N   UNL     1      44.940   6.057  12.960  0.00  0.00    +0.000 NA
ATOM      6  C   UNL     1      45.423   4.824  13.209  0.00  0.00    +0.000 A 
ATOM      7  N   UNL     1      45.978   4.640  14.469  0.00  0.00    +0.000 N 
ATOM      8  C   UNL     1      45.296   3.801  12.280  0.00  0.00    +0.000 A 
ATOM      9  H   UNL     1      46.056   5.559  14.900  0.00  0.00    +0.000 HD
BRANCH   2  11
ATOM     10  F   UNL     1      45.704   2.276   9.800  0.00  0.00    +0.000 F 
ATOM     11  C   UNL     1      44.533   2.925  10.050  0.00  0.00    +0.000 C 
ATOM     12  F   UNL     1      44.082   3.360   8.841  0.00  0.00    +0.000 F 
ATOM     13  F   UNL     1      43.653   1.966  10.451  0.00  0.00    +0.000 F 
ENDBRANCH   2  11
ENDBRANCH   1   7
BRANCH   1  14
ATOM     14  C   UNL     1      47.692   3.819  15.998  0.00  0.00    +0.000 A 
ATOM     15  C   UNL     1      48.422   2.728  16.481  0.00  0.00    +0.000 A 
ATOM     16  C   UNL     1      48.978   2.764  17.758  0.00  0.00    +0.000 A 
ATOM     17  C   UNL     1      48.800   3.888  18.568  0.00  0.00    +0.000 A 
ATOM     18  C   UNL     1      48.064   5.003  18.127  0.00  0.00    +0.000 A 
ATOM     19  C   UNL     1      47.503   4.935  16.835  0.00  0.00    +0.000 A 
BRANCH  18  20
ATOM     20  C   UNL     1      47.916   6.209  18.974  0.00  0.00    +0.000 A 
ATOM     21  C   UNL     1      48.219   7.498  18.510  0.00  0.00    +0.000 A 
ATOM     22  C   UNL     1      48.084   8.607  19.346  0.00  0.00    +0.000 A 
ATOM     23  C   UNL     1      47.634   8.408  20.639  0.00  0.00    +0.000 A 
ATOM     24  N   UNL     1      47.325   7.196  21.137  0.00  0.00    +0.000 NA
ATOM     25  C   UNL     1      47.478   6.138  20.300  0.00  0.00    +0.000 A 
ENDBRANCH  18  20
ENDBRANCH   1  14
TORSDOF 4
ENDMDL
MODEL 9
REMARK VINA RESULT:    -6.334      3.000      7.182
REMARK INTER + INTRA:          -8.652
REMARK INTER:                  -7.875
REMARK INTRA:                  -0.777
REMARK UNBOUND:                -0.838
REMARK  Name = 
REMARK  4 active torsions:
REMARK  status: ('A' for Active; 'I' for Inactive)
REMARK    1  A    between atoms: C_2  and  C_5
REMARK    2  A    between atoms: N_10  and  C_11
REMARK    3  A    between atoms: C_11  and  C_12
REMARK    4  A    between atoms: C_16  and  C_17
REMARK                            x       y       z     vdW  Elec       q    Type
REMARK                         _______ _______ _______ _____ _____    ______ ____
ROOT
ATOM      1  C   UNL     1      44.313   5.350  11.529  0.00  0.00    +0.000 C 
ENDROOT
BRANCH   1   7
ATOM      2  C   UNL     1      45.882   3.053   8.208  0.00  0.00    +0.000 A 
ATOM      3  C   UNL     1      45.198   1.861   7.978  0.00  0.00    +0.000 A 
ATOM      4  C   UNL     1      44.278   1.451   8.924  0.00  0.00    +0.000 A 
ATOM      5  N   UNL     1      44.000   2.137  10.055  0.00  0.00    +0.000 NA
ATOM      6  C   UNL     1      44.665   3.286  10.286  0.00  0.00    +0.000 A 
ATOM      7  N   UNL     1      44.394   3.903  11.500  0.00  0.00    +0.000 N 
ATOM      8  C   UNL     1      45.608   3.764   9.386  0.00  0.00    +0.000 A 
ATOM      9  H   UNL     1      43.594   3.425  11.908  0.00  0.00    +0.000 HD
BRANCH   2  11
ATOM     10  F   UNL     1      46.451   3.648   5.955  0.00  0.00    +0.000 F 
ATOM     11  C   UNL     1      46.902   3.580   7.238  0.00  0.00    +0.000 C 
ATOM     12  F   UNL     1      48.028   2.815   7.198  0.00  0.00    +0.000 F 
ATOM     13  F   UNL     1      47.318   4.837   7.555  0.00  0.00    +0.000 F 
ENDBRANCH   2  11
ENDBRANCH   1   7
BRANCH   1  14
ATOM     14  C   UNL     1      45.543   5.947  12.176  0.00  0.00    +0.000 A 
ATOM     15  C   UNL     1      46.109   7.121  11.668  0.00  0.00    +0.000 A 
ATOM     16  C   UNL     1      47.191   7.716  12.313  0.00  0.00    +0.000 A 
ATOM     17  C   UNL     1      47.724   7.136  13.468  0.00  0.00    +0.000 A 
ATOM     18  C   UNL     1      47.194   5.950  14.007  0.00  0.00    +0.000 A 
ATOM     19  C   UNL     1      46.106   5.363  13.326  0.00  0.00    +0.000 A 
BRANCH  18  20
ATOM     20  C   UNL     1      47.735   5.364  15.254  0.00  0.00    +0.000 A 
ATOM     21  C   UNL     1      48.716   6.005  16.024  0.00  0.00    +0.000 A 
ATOM     22  C   UNL     1      49.215   5.411  17.184  0.00  0.00    +0.000 A 
ATOM     23  C   UNL     1      48.713   4.178  17.561  0.00  0.00    +0.000 A 
ATOM     24  N   UNL     1      47.770   3.518  16.864  0.00  0.00    +0.000 NA
ATOM     25  C   UNL     1      47.315   4.121  15.736  0.00  0.00    +0.000 A 
ENDBRANCH  18  20
ENDBRANCH   1  14
TORSDOF 4
ENDMDL
