MODEL 1
REMARK VINA RESULT:    -7.854      0.000      0.000
REMARK INTER + INTRA:         -11.422
REMARK INTER:                 -10.609
REMARK INTRA:                  -0.813
REMARK UNBOUND:                -0.813
REMARK  Name = 
REMARK  7 active torsions:
REMARK  status: ('A' for Active; 'I' for Inactive)
REMARK    1  A    between atoms: C_1  and  C_2
REMARK    2  A    between atoms: C_2  and  N_3
REMARK    3  A    between atoms: C_2  and  C_16
REMARK    4  A    between atoms: C_4  and  C_6
REMARK    5  A    between atoms: C_19  and  O_20
REMARK    6  A    between atoms: O_20  and  C_21
REMARK    7  A    between atoms: C_21  and  C_22
REMARK                            x       y       z     vdW  Elec       q    Type
REMARK                         _______ _______ _______ _____ _____    ______ ____
ROOT
ATOM      1  C   UNL     1      48.043   8.832  12.173  0.00  0.00    +0.000 C 
ATOM      2  C   UNL     1      46.905   8.246  13.024  0.00  0.00    +0.000 C 
ENDROOT
BRANCH   2   3
ATOM      3  C   UNL     1      46.145   7.134  12.318  0.00  0.00    +0.000 A 
ATOM      4  C   UNL     1      46.480   6.766  11.005  0.00  0.00    +0.000 A 
ATOM      5  C   UNL     1      45.826   5.702  10.369  0.00  0.00    +0.000 A 
ATOM      6  C   UNL     1      44.819   4.998  11.032  0.00  0.00    +0.000 A 
ATOM      7  C   UNL     1      44.431   5.403  12.304  0.00  0.00    +0.000 A 
ATOM      8  C   UNL     1      45.080   6.462  12.937  0.00  0.00    +0.000 A 
BRANCH   6   9
ATOM      9  O   UNL     1      44.124   3.938  10.519  0.00  0.00    +0.000 OA
BRANCH   9  10
ATOM     10  C   UNL     1      44.888   2.741  10.330  0.00  0.00    +0.000 C 
BRANCH  10  11
ATOM     11  C   UNL     1      44.593   2.175   8.924  0.00  0.00    +0.000 C 
ATOM     12  C   UNL     1      44.724   3.230   7.836  0.00  0.00    +0.000 C 
ATOM     13  C   UNL     1      46.215   3.255   7.550  0.00  0.00    +0.000 C 
ATOM     14  C   UNL     1      46.688   1.841   7.863  0.00  0.00    +0.000 C 
ATOM     15  N   UNL     1      45.560   1.153   8.491  0.00  0.00    +0.000 NA
ATOM     16  H   UNL     1      45.865   0.598   9.293  0.00  0.00    +0.000 HD
ENDBRANCH  10  11
ENDBRANCH   9  10
ENDBRANCH   6   9
ENDBRANCH   2   3
BRANCH   2  17
ATOM     17  N   UNL     1      47.405   7.749  14.288  0.00  0.00    +0.000 N 
ATOM     18  C   UNL     1      48.383   6.787  14.379  0.00  0.00    +0.000 C 
ATOM     19  O   UNL     1      48.986   6.360  13.400  0.00  0.00    +0.000 OA
ATOM     20  H   UNL     1      46.872   7.995  15.113  0.00  0.00    +0.000 HD
BRANCH  18  21
ATOM     21  C   UNL     1      48.703   6.353  15.740  0.00  0.00    +0.000 A 
ATOM     22  C   UNL     1      49.573   7.100  16.519  0.00  0.00    +0.000 A 
ATOM     23  S   UNL     1      49.841   6.435  18.067  0.00  0.00    +0.000 S 
ATOM     24  C   UNL     1      48.836   5.104  17.732  0.00  0.00    +0.000 A 
ATOM     25  N   UNL     1      48.665   4.108  18.642  0.00  0.00    +0.000 NA
ATOM     26  C   UNL     1      47.906   3.143  18.240  0.00  0.00    +0.000 A 
ATOM     27  N   UNL     1      47.286   3.095  17.018  0.00  0.00    +0.000 N 
ATOM     28  C   UNL     1      47.376   4.108  16.096  0.00  0.00    +0.000 A 
ATOM     29  O   UNL     1      46.711   4.090  15.059  0.00  0.00    +0.000 OA
ATOM     30  C   UNL     1      48.265   5.190  16.474  0.00  0.00    +0.000 A 
ATOM     31  H   UNL     1      46.675   2.325  16.782  0.00  0.00    +0.000 HD
ENDBRANCH  18  21
ENDBRANCH   2  17
TORSDOF 6
ENDMDL
MODEL 2
REMARK VINA RESULT:    -7.634      4.413      8.255
REMARK INTER + INTRA:         -11.124
REMARK INTER:                 -10.059
REMARK INTRA:                  -1.066
REMARK UNBOUND:                -0.813
REMARK  Name = 
REMARK  7 active torsions:
REMARK  status: ('A' for Active; 'I' for Inactive)
REMARK    1  A    between atoms: C_1  and  C_2
REMARK    2  A    between atoms: C_2  and  N_3
REMARK    3  A    between atoms: C_2  and  C_16
REMARK    4  A    between atoms: C_4  and  C_6
REMARK    5  A    between atoms: C_19  and  O_20
REMARK    6  A    between atoms: O_20  and  C_21
REMARK    7  A    between atoms: C_21  and  C_22
REMARK                            x       y       z     vdW  Elec       q    Type
REMARK                         _______ _______ _______ _____ _____    ______ ____
ROOT
ATOM      1  C   UNL     1      47.862   6.071  18.462  0.00  0.00    +0.000 C 
ATOM      2  C   UNL     1      48.689   5.784  17.198  0.00  0.00    +0.000 C 
ENDROOT
BRANCH   2   3
ATOM      3  C   UNL     1      49.462   4.477  17.275  0.00  0.00    +0.000 A 
ATOM      4  C   UNL     1      48.821   3.256  17.010  0.00  0.00    +0.000 A 
ATOM      5  C   UNL     1      49.538   2.052  17.018  0.00  0.00    +0.000 A 
ATOM      6  C   UNL     1      50.905   2.049  17.305  0.00  0.00    +0.000 A 
ATOM      7  C   UNL     1      51.531   3.245  17.640  0.00  0.00    +0.000 A 
ATOM      8  C   UNL     1      50.817   4.442  17.634  0.00  0.00    +0.000 A 
BRANCH   6   9
ATOM      9  O   UNL     1      51.707   0.943  17.329  0.00  0.00    +0.000 OA
BRANCH   9  10
ATOM     10  C   UNL     1      53.011   1.146  17.884  0.00  0.00    +0.000 C 
BRANCH  10  11
ATOM     11  C   UNL     1      54.065   0.581  16.908  0.00  0.00    +0.000 C 
ATOM     12  C   UNL     1      55.486   0.771  17.415  0.00  0.00    +0.000 C 
ATOM     13  C   UNL     1      55.682  -0.402  18.359  0.00  0.00    +0.000 C 
ATOM     14  C   UNL     1      54.784  -1.497  17.798  0.00  0.00    +0.000 C 
ATOM     15  N   UNL     1      53.983  -0.880  16.740  0.00  0.00    +0.000 NA
ATOM     16  H   UNL     1      53.008  -1.182  16.789  0.00  0.00    +0.000 HD
ENDBRANCH  10  11
ENDBRANCH   9  10
ENDBRANCH   6   9
ENDBRANCH   2   3
BRANCH   2  17
ATOM     17  N   UNL     1      47.849   5.769  16.020  0.00  0.00    +0.000 N 
ATOM     18  C   UNL     1      48.268   6.238  14.797  0.00  0.00    +0.000 C 
ATOM     19  O   UNL     1      49.421   6.598  14.585  0.00  0.00    +0.000 OA
ATOM     20  H   UNL     1      46.866   5.579  16.167  0.00  0.00    +0.000 HD
BRANCH  18  21
ATOM     21  C   UNL     1      47.253   6.216  13.741  0.00  0.00    +0.000 A 
ATOM     22  C   UNL     1      46.832   7.403  13.161  0.00  0.00    +0.000 A 
ATOM     23  S   UNL     1      45.635   7.187  11.964  0.00  0.00    +0.000 S 
ATOM     24  C   UNL     1      45.611   5.503  12.212  0.00  0.00    +0.000 A 
ATOM     25  N   UNL     1      44.751   4.706  11.524  0.00  0.00    +0.000 NA
ATOM     26  C   UNL     1      44.815   3.455  11.839  0.00  0.00    +0.000 A 
ATOM     27  N   UNL     1      45.677   2.927  12.766  0.00  0.00    +0.000 N 
ATOM     28  C   UNL     1      46.608   3.684  13.435  0.00  0.00    +0.000 A 
ATOM     29  O   UNL     1      47.447   3.162  14.170  0.00  0.00    +0.000 OA
ATOM     30  C   UNL     1      46.537   5.106  13.160  0.00  0.00    +0.000 A 
ATOM     31  H   UNL     1      45.699   1.931  12.938  0.00  0.00    +0.000 HD
ENDBRANCH  18  21
ENDBRANCH   2  17
TORSDOF 6
ENDMDL
MODEL 3
REMARK VINA RESULT:    -7.606      2.084      3.098
REMARK INTER + INTRA:         -11.087
REMARK INTER:                 -10.160
REMARK INTRA:                  -0.927
REMARK UNBOUND:                -0.813
REMARK  Name = 
REMARK  7 active torsions:
REMARK  status: ('A' for Active; 'I' for Inactive)
REMARK    1  A    between atoms: C_1  and  C_2
REMARK    2  A    between atoms: C_2  and  N_3
REMARK    3  A    between atoms: C_2  and  C_16
REMARK    4  A    between atoms: C_4  and  C_6
REMARK    5  A    between atoms: C_19  and  O_20
REMARK    6  A    between atoms: O_20  and  C_21
REMARK    7  A    between atoms: C_21  and  C_22
REMARK                            x       y       z     vdW  Elec       q    Type
REMARK                         _______ _______ _______ _____ _____    ______ ____
ROOT
ATOM      1  C   UNL     1      43.019   4.765  13.527  0.00  0.00    +0.000 C 
ATOM      2  C   UNL     1      44.402   4.197  13.168  0.00  0.00    +0.000 C 
ENDROOT
BRANCH   2   3
ATOM      3  C   UNL     1      44.730   4.318  11.689  0.00  0.00    +0.000 A 
ATOM      4  C   UNL     1      45.398   5.451  11.199  0.00  0.00    +0.000 A 
ATOM      5  C   UNL     1      45.759   5.543   9.847  0.00  0.00    +0.000 A 
ATOM      6  C   UNL     1      45.446   4.509   8.964  0.00  0.00    +0.000 A 
ATOM      7  C   UNL     1      44.720   3.417   9.426  0.00  0.00    +0.000 A 
ATOM      8  C   UNL     1      44.359   3.326  10.769  0.00  0.00    +0.000 A 
BRANCH   6   9
ATOM      9  O   UNL     1      45.759   4.483   7.633  0.00  0.00    +0.000 OA
BRANCH   9  10
ATOM     10  C   UNL     1      47.149   4.304   7.335  0.00  0.00    +0.000 C 
BRANCH  10  11
ATOM     11  C   UNL     1      47.436   2.796   7.177  0.00  0.00    +0.000 C 
ATOM     12  C   UNL     1      46.349   2.077   6.394  0.00  0.00    +0.000 C 
ATOM     13  C   UNL     1      46.729   2.336   4.947  0.00  0.00    +0.000 C 
ATOM     14  C   UNL     1      48.246   2.477   4.971  0.00  0.00    +0.000 C 
ATOM     15  N   UNL     1      48.641   2.510   6.379  0.00  0.00    +0.000 NA
ATOM     16  H   UNL     1      49.349   3.227   6.548  0.00  0.00    +0.000 HD
ENDBRANCH  10  11
ENDBRANCH   9  10
ENDBRANCH   6   9
ENDBRANCH   2   3
BRANCH   2  17
ATOM     17  N   UNL     1      45.443   4.843  13.939  0.00  0.00    +0.000 N 
ATOM     18  C   UNL     1      46.604   4.205  14.308  0.00  0.00    +0.000 C 
ATOM     19  O   UNL     1      46.895   3.079  13.916  0.00  0.00    +0.000 OA
ATOM     20  H   UNL     1      45.206   5.729  14.368  0.00  0.00    +0.000 HD
BRANCH  18  21
ATOM     21  C   UNL     1      47.505   4.992  15.153  0.00  0.00    +0.000 A 
ATOM     22  C   UNL     1      48.167   6.089  14.625  0.00  0.00    +0.000 A 
ATOM     23  S   UNL     1      49.185   6.873  15.748  0.00  0.00    +0.000 S 
ATOM     24  C   UNL     1      48.805   5.746  16.965  0.00  0.00    +0.000 A 
ATOM     25  N   UNL     1      49.389   5.816  18.191  0.00  0.00    +0.000 NA
ATOM     26  C   UNL     1      49.036   4.876  19.003  0.00  0.00    +0.000 A 
ATOM     27  N   UNL     1      48.137   3.884  18.707  0.00  0.00    +0.000 N 
ATOM     28  C   UNL     1      47.474   3.814  17.506  0.00  0.00    +0.000 A 
ATOM     29  O   UNL     1      46.585   2.983  17.314  0.00  0.00    +0.000 OA
ATOM     30  C   UNL     1      47.878   4.813  16.536  0.00  0.00    +0.000 A 
ATOM     31  H   UNL     1      47.879   3.199  19.404  0.00  0.00    +0.000 HD
ENDBRANCH  18  21
ENDBRANCH   2  17
TORSDOF 6
ENDMDL
MODEL 4
REMARK VINA RESULT:    -7.110      2.333      2.735
REMARK INTER + INTRA:         -10.417
REMARK INTER:                  -9.426
REMARK INTRA:                  -0.990
REMARK UNBOUND:                -0.813
REMARK  Name = 
REMARK  7 active torsions:
REMARK  status: ('A' for Active; 'I' for Inactive)
REMARK    1  A    between atoms: C_1  and  C_2
REMARK    2  A    between atoms: C_2  and  N_3
REMARK    3  A    between atoms: C_2  and  C_16
REMARK    4  A    between atoms: C_4  and  C_6
REMARK    5  A    between atoms: C_19  and  O_20
REMARK    6  A    between atoms: O_20  and  C_21
REMARK    7  A    between atoms: C_21  and  C_22
REMARK                            x       y       z     vdW  Elec       q    Type
REMARK                         _______ _______ _______ _____ _____    ______ ____
ROOT
ATOM      1  C   UNL     1      49.029   8.387  14.219  0.00  0.00    +0.000 C 
ATOM      2  C   UNL     1      48.369   7.185  14.914  0.00  0.00    +0.000 C 
ENDROOT
BRANCH   2   3
ATOM      3  C   UNL     1      47.520   6.345  13.973  0.00  0.00    +0.000 A 
ATOM      4  C   UNL     1      47.108   5.056  14.348  0.00  0.00    +0.000 A 
ATOM      5  C   UNL     1      46.274   4.298  13.513  0.00  0.00    +0.000 A 
ATOM      6  C   UNL     1      45.850   4.814  12.287  0.00  0.00    +0.000 A 
ATOM      7  C   UNL     1      46.313   6.059  11.877  0.00  0.00    +0.000 A 
ATOM      8  C   UNL     1      47.143   6.812  12.705  0.00  0.00    +0.000 A 
BRANCH   6   9
ATOM      9  O   UNL     1      45.029   4.174  11.401  0.00  0.00    +0.000 OA
BRANCH   9  10
ATOM     10  C   UNL     1      45.277   4.464  10.020  0.00  0.00    +0.000 C 
BRANCH  10  11
ATOM     11  C   UNL     1      44.494   3.459   9.149  0.00  0.00    +0.000 C 
ATOM     12  C   UNL     1      44.806   3.610   7.668  0.00  0.00    +0.000 C 
ATOM     13  C   UNL     1      46.087   2.814   7.497  0.00  0.00    +0.000 C 
ATOM     14  C   UNL     1      46.009   1.730   8.564  0.00  0.00    +0.000 C 
ATOM     15  N   UNL     1      44.858   2.055   9.406  0.00  0.00    +0.000 NA
ATOM     16  H   UNL     1      45.075   1.927  10.396  0.00  0.00    +0.000 HD
ENDBRANCH  10  11
ENDBRANCH   9  10
ENDBRANCH   6   9
ENDBRANCH   2   3
BRANCH   2  17
ATOM     17  N   UNL     1      49.362   6.338  15.540  0.00  0.00    +0.000 N 
ATOM     18  C   UNL     1      49.381   6.082  16.891  0.00  0.00    +0.000 C 
ATOM     19  O   UNL     1      48.493   6.457  17.649  0.00  0.00    +0.000 OA
ATOM     20  H   UNL     1      50.166   6.091  14.977  0.00  0.00    +0.000 HD
BRANCH  18  21
ATOM     21  C   UNL     1      50.507   5.268  17.354  0.00  0.00    +0.000 A 
ATOM     22  C   UNL     1      51.642   5.882  17.860  0.00  0.00    +0.000 A 
ATOM     23  S   UNL     1      52.856   4.780  18.334  0.00  0.00    +0.000 S 
ATOM     24  C   UNL     1      51.919   3.448  17.838  0.00  0.00    +0.000 A 
ATOM     25  N   UNL     1      52.403   2.180  17.926  0.00  0.00    +0.000 NA
ATOM     26  C   UNL     1      51.600   1.272  17.480  0.00  0.00    +0.000 A 
ATOM     27  N   UNL     1      50.350   1.515  16.973  0.00  0.00    +0.000 N 
ATOM     28  C   UNL     1      49.795   2.771  16.928  0.00  0.00    +0.000 A 
ATOM     29  O   UNL     1      48.626   2.941  16.580  0.00  0.00    +0.000 OA
ATOM     30  C   UNL     1      50.679   3.835  17.363  0.00  0.00    +0.000 A 
ATOM     31  H   UNL     1      49.759   0.751  16.674  0.00  0.00    +0.000 HD
ENDBRANCH  18  21
ENDBRANCH   2  17
TORSDOF 6
ENDMDL
MODEL 5
REMARK VINA RESULT:    -7.056      2.658      3.610
REMARK INTER + INTRA:         -10.344
REMARK INTER:                  -9.097
REMARK INTRA:                  -1.248
REMARK UNBOUND:                -0.813
REMARK  Name = 
REMARK  7 active torsions:
REMARK  status: ('A' for Active; 'I' for Inactive)
REMARK    1  A    between atoms: C_1  and  C_2
REMARK    2  A    between atoms: C_2  and  N_3
REMARK    3  A    between atoms: C_2  and  C_16
REMARK    4  A    between atoms: C_4  and  C_6
REMARK    5  A    between atoms: C_19  and  O_20
REMARK    6  A    between atoms: O_20  and  C_21
REMARK    7  A    between atoms: C_21  and  C_22
REMARK                            x       y       z     vdW  Elec       q    Type
REMARK                         _______ _______ _______ _____ _____    ______ ____
ROOT
ATOM      1  C   UNL     1      47.163   3.745  16.411  0.00  0.00    +0.000 C 
ATOM      2  C   UNL     1      47.740   4.713  15.365  0.00  0.00    +0.000 C 
ENDROOT
BRANCH   2   3
ATOM      3  C   UNL     1      46.911   4.778  14.093  0.00  0.00    +0.000 A 
ATOM      4  C   UNL     1      46.686   6.007  13.453  0.00  0.00    +0.000 A 
ATOM      5  C   UNL     1      45.975   6.070  12.246  0.00  0.00    +0.000 A 
ATOM      6  C   UNL     1      45.468   4.905  11.668  0.00  0.00    +0.000 A 
ATOM      7  C   UNL     1      45.622   3.693  12.333  0.00  0.00    +0.000 A 
ATOM      8  C   UNL     1      46.327   3.631  13.534  0.00  0.00    +0.000 A 
BRANCH   6   9
ATOM      9  O   UNL     1      44.773   4.842  10.492  0.00  0.00    +0.000 OA
BRANCH   9  10
ATOM     10  C   UNL     1      45.579   4.832   9.307  0.00  0.00    +0.000 C 
BRANCH  10  11
ATOM     11  C   UNL     1      44.889   3.957   8.240  0.00  0.00    +0.000 C 
ATOM     12  C   UNL     1      45.877   3.369   7.245  0.00  0.00    +0.000 C 
ATOM     13  C   UNL     1      46.406   2.140   7.960  0.00  0.00    +0.000 C 
ATOM     14  C   UNL     1      45.259   1.697   8.859  0.00  0.00    +0.000 C 
ATOM     15  N   UNL     1      44.248   2.753   8.796  0.00  0.00    +0.000 NA
ATOM     16  H   UNL     1      43.867   2.956   9.722  0.00  0.00    +0.000 HD
ENDBRANCH  10  11
ENDBRANCH   9  10
ENDBRANCH   6   9
ENDBRANCH   2   3
BRANCH   2  17
ATOM     17  N   UNL     1      47.875   6.046  15.912  0.00  0.00    +0.000 N 
ATOM     18  C   UNL     1      49.088   6.591  16.262  0.00  0.00    +0.000 C 
ATOM     19  O   UNL     1      50.156   6.033  16.032  0.00  0.00    +0.000 OA
ATOM     20  H   UNL     1      47.022   6.501  16.212  0.00  0.00    +0.000 HD
BRANCH  18  21
ATOM     21  C   UNL     1      49.020   7.920  16.872  0.00  0.00    +0.000 A 
ATOM     22  C   UNL     1      49.604   9.005  16.236  0.00  0.00    +0.000 A 
ATOM     23  S   UNL     1      49.441  10.467  17.099  0.00  0.00    +0.000 S 
ATOM     24  C   UNL     1      48.621   9.690  18.372  0.00  0.00    +0.000 A 
ATOM     25  N   UNL     1      48.233  10.379  19.479  0.00  0.00    +0.000 NA
ATOM     26  C   UNL     1      47.655   9.656  20.380  0.00  0.00    +0.000 A 
ATOM     27  N   UNL     1      47.413   8.311  20.266  0.00  0.00    +0.000 N 
ATOM     28  C   UNL     1      47.727   7.590  19.140  0.00  0.00    +0.000 A 
ATOM     29  O   UNL     1      47.388   6.413  19.020  0.00  0.00    +0.000 OA
ATOM     30  C   UNL     1      48.432   8.343  18.120  0.00  0.00    +0.000 A 
ATOM     31  H   UNL     1      46.923   7.813  20.997  0.00  0.00    +0.000 HD
ENDBRANCH  18  21
ENDBRANCH   2  17
TORSDOF 6
ENDMDL
MODEL 6
REMARK VINA RESULT:    -6.959      2.132      3.852
REMARK INTER + INTRA:         -10.213
REMARK INTER:                  -9.213
REMARK INTRA:                  -0.999
REMARK UNBOUND:                -0.813
REMARK  Name = 
REMARK  7 active torsions:
REMARK  status: ('A' for Active; 'I' for Inactive)
REMARK    1  A    between atoms: C_1  and  C_2
REMARK    2  A    between atoms: C_2  and  N_3
REMARK    3  A    between atoms: C_2  and  C_16
REMARK    4  A    between atoms: C_4  and  C_6
REMARK    5  A    between atoms: C_19  and  O_20
REMARK    6  A    between atoms: O_20  and  C_21
REMARK    7  A    between atoms: C_21  and  C_22
REMARK                            x       y       z     vdW  Elec       q    Type
REMARK                         _______ _______ _______ _____ _____    ______ ____
ROOT
ATOM      1  C   UNL     1      42.993   5.056  13.316  0.00  0.00    +0.000 C 
ATOM      2  C   UNL     1      44.330   4.337  13.074  0.00  0.00    +0.000 C 
ENDROOT
BRANCH   2   3
ATOM      3  C   UNL     1      44.696   4.239  11.602  0.00  0.00    +0.000 A 
ATOM      4  C   UNL     1      44.407   3.075  10.873  0.00  0.00    +0.000 A 
ATOM      5  C   UNL     1      44.685   2.999   9.501  0.00  0.00    +0.000 A 
ATOM      6  C   UNL     1      45.269   4.082   8.841  0.00  0.00    +0.000 A 
ATOM      7  C   UNL     1      45.626   5.211   9.570  0.00  0.00    +0.000 A 
ATOM      8  C   UNL     1      45.351   5.286  10.935  0.00  0.00    +0.000 A 
BRANCH   6   9
ATOM      9  O   UNL     1      45.572   4.128   7.508  0.00  0.00    +0.000 OA
BRANCH   9  10
ATOM     10  C   UNL     1      46.970   4.201   7.203  0.00  0.00    +0.000 C 
BRANCH  10  11
ATOM     11  C   UNL     1      47.551   2.771   7.171  0.00  0.00    +0.000 C 
ATOM     12  C   UNL     1      46.576   1.762   6.584  0.00  0.00    +0.000 C 
ATOM     13  C   UNL     1      46.774   1.913   5.087  0.00  0.00    +0.000 C 
ATOM     14  C   UNL     1      48.225   2.352   4.936  0.00  0.00    +0.000 C 
ATOM     15  N   UNL     1      48.719   2.634   6.284  0.00  0.00    +0.000 NA
ATOM     16  H   UNL     1      49.274   3.492   6.303  0.00  0.00    +0.000 HD
ENDBRANCH  10  11
ENDBRANCH   9  10
ENDBRANCH   6   9
ENDBRANCH   2   3
BRANCH   2  17
ATOM     17  N   UNL     1      45.407   4.989  13.788  0.00  0.00    +0.000 N 
ATOM     18  C   UNL     1      46.570   4.345  14.137  0.00  0.00    +0.000 C 
ATOM     19  O   UNL     1      46.831   3.204  13.771  0.00  0.00    +0.000 OA
ATOM     20  H   UNL     1      45.197   5.891  14.198  0.00  0.00    +0.000 HD
BRANCH  18  21
ATOM     21  C   UNL     1      47.510   5.143  14.927  0.00  0.00    +0.000 A 
ATOM     22  C   UNL     1      47.774   4.799  16.244  0.00  0.00    +0.000 A 
ATOM     23  S   UNL     1      48.879   5.849  17.011  0.00  0.00    +0.000 S 
ATOM     24  C   UNL     1      49.008   6.822  15.620  0.00  0.00    +0.000 A 
ATOM     25  N   UNL     1      49.776   7.944  15.619  0.00  0.00    +0.000 NA
ATOM     26  C   UNL     1      49.752   8.605  14.510  0.00  0.00    +0.000 A 
ATOM     27  N   UNL     1      49.045   8.234  13.395  0.00  0.00    +0.000 N 
ATOM     28  C   UNL     1      48.310   7.075  13.330  0.00  0.00    +0.000 A 
ATOM     29  O   UNL     1      47.785   6.710  12.277  0.00  0.00    +0.000 OA
ATOM     30  C   UNL     1      48.257   6.325  14.570  0.00  0.00    +0.000 A 
ATOM     31  H   UNL     1      49.099   8.780  12.546  0.00  0.00    +0.000 HD
ENDBRANCH  18  21
ENDBRANCH   2  17
TORSDOF 6
ENDMDL
MODEL 7
REMARK VINA RESULT:    -6.940      2.189      2.521
REMARK INTER + INTRA:         -10.188
REMARK INTER:                  -8.885
REMARK INTRA:                  -1.302
REMARK UNBOUND:                -0.813
REMARK  Name = 
REMARK  7 active torsions:
REMARK  status: ('A' for Active; 'I' for Inactive)
REMARK    1  A    between atoms: C_1  and  C_2
REMARK    2  A    between atoms: C_2  and  N_3
REMARK    3  A    between atoms: C_2  and  C_16
REMARK    4  A    between atoms: C_4  and  C_6
REMARK    5  A    between atoms: C_19  and  O_20
REMARK    6  A    between atoms: O_20  and  C_21
REMARK    7  A    between atoms: C_21  and  C_22
REMARK                            x       y       z     vdW  Elec       q    Type
REMARK                         _______ _______ _______ _____ _____    ______ ____
ROOT
ATOM      1  C   UNL     1      50.127   7.983  11.681  0.00  0.00    +0.000 C 
ATOM      2  C   UNL     1      49.270   7.780  12.941  0.00  0.00    +0.000 C 
ENDROOT
BRANCH   2   3
ATOM      3  C   UNL     1      48.003   6.981  12.677  0.00  0.00    +0.000 A 
ATOM      4  C   UNL     1      47.107   7.381  11.673  0.00  0.00    +0.000 A 
ATOM      5  C   UNL     1      45.968   6.618  11.381  0.00  0.00    +0.000 A 
ATOM      6  C   UNL     1      45.703   5.449  12.097  0.00  0.00    +0.000 A 
ATOM      7  C   UNL     1      46.546   5.085  13.142  0.00  0.00    +0.000 A 
ATOM      8  C   UNL     1      47.677   5.846  13.433  0.00  0.00    +0.000 A 
BRANCH   6   9
ATOM      9  O   UNL     1      44.635   4.620  11.893  0.00  0.00    +0.000 OA
BRANCH   9  10
ATOM     10  C   UNL     1      44.962   3.308  11.420  0.00  0.00    +0.000 C 
BRANCH  10  11
ATOM     11  C   UNL     1      44.143   3.015  10.146  0.00  0.00    +0.000 C 
ATOM     12  C   UNL     1      44.360   4.062   9.064  0.00  0.00    +0.000 C 
ATOM     13  C   UNL     1      45.640   3.607   8.387  0.00  0.00    +0.000 C 
ATOM     14  C   UNL     1      45.645   2.093   8.559  0.00  0.00    +0.000 C 
ATOM     15  N   UNL     1      44.543   1.772   9.466  0.00  0.00    +0.000 NA
ATOM     16  H   UNL     1      44.823   1.072  10.155  0.00  0.00    +0.000 HD
ENDBRANCH  10  11
ENDBRANCH   9  10
ENDBRANCH   6   9
ENDBRANCH   2   3
BRANCH   2  17
ATOM     17  N   UNL     1      50.030   7.129  13.987  0.00  0.00    +0.000 N 
ATOM     18  C   UNL     1      50.756   7.824  14.926  0.00  0.00    +0.000 C 
ATOM     19  O   UNL     1      50.721   9.047  15.017  0.00  0.00    +0.000 OA
ATOM     20  H   UNL     1      50.170   6.131  13.891  0.00  0.00    +0.000 HD
BRANCH  18  21
ATOM     21  C   UNL     1      51.526   6.995  15.855  0.00  0.00    +0.000 A 
ATOM     22  C   UNL     1      52.908   7.099  15.894  0.00  0.00    +0.000 A 
ATOM     23  S   UNL     1      53.636   6.048  17.023  0.00  0.00    +0.000 S 
ATOM     24  C   UNL     1      52.131   5.389  17.467  0.00  0.00    +0.000 A 
ATOM     25  N   UNL     1      52.048   4.382  18.377  0.00  0.00    +0.000 NA
ATOM     26  C   UNL     1      50.848   3.955  18.590  0.00  0.00    +0.000 A 
ATOM     27  N   UNL     1      49.722   4.457  17.990  0.00  0.00    +0.000 N 
ATOM     28  C   UNL     1      49.752   5.517  17.118  0.00  0.00    +0.000 A 
ATOM     29  O   UNL     1      48.714   6.023  16.690  0.00  0.00    +0.000 OA
ATOM     30  C   UNL     1      51.083   5.997  16.798  0.00  0.00    +0.000 A 
ATOM     31  H   UNL     1      48.808   4.099  18.231  0.00  0.00    +0.000 HD
ENDBRANCH  18  21
ENDBRANCH   2  17
TORSDOF 6
ENDMDL
MODEL 8
REMARK VINA RESULT:    -6.857      1.872      2.198
REMARK INTER + INTRA:         -10.075
REMARK INTER:                  -9.071
REMARK INTRA:                  -1.004
REMARK UNBOUND:                -0.813
REMARK  Name = 
REMARK  7 active torsions:
REMARK  status: ('A' for Active; 'I' for Inactive)
REMARK    1  A    between atoms: C_1  and  C_2
REMARK    2  A    between atoms: C_2  and  N_3
REMARK    3  A    between atoms: C_2  and  C_16
REMARK    4  A    between atoms: C_4  and  C_6
REMARK    5  A    between atoms: C_19  and  O_20
REMARK    6  A    between atoms: O_20  and  C_21
REMARK    7  A    between atoms: C_21  and  C_22
REMARK                            x       y       z     vdW  Elec       q    Type
REMARK                         _______ _______ _______ _____ _____    ______ ____
ROOT
ATOM      1  C   UNL     1      49.744   7.521  13.595  0.00  0.00    +0.000 C 
ATOM      2  C   UNL     1      48.305   7.852  14.025  0.00  0.00    +0.000 C 
ENDROOT
BRANCH   2   3
ATOM      3  C   UNL     1      47.255   7.106  13.218  0.00  0.00    +0.000 A 
ATOM      4  C   UNL     1      46.354   7.808  12.402  0.00  0.00    +0.000 A 
ATOM      5  C   UNL     1      45.423   7.125  11.607  0.00  0.00    +0.000 A 
ATOM      6  C   UNL     1      45.371   5.730  11.626  0.00  0.00    +0.000 A 
ATOM      7  C   UNL     1      46.210   5.030  12.487  0.00  0.00    +0.000 A 
ATOM      8  C   UNL     1      47.135   5.709  13.279  0.00  0.00    +0.000 A 
BRANCH   6   9
ATOM      9  O   UNL     1      44.518   4.959  10.887  0.00  0.00    +0.000 OA
BRANCH   9  10
ATOM     10  C   UNL     1      44.848   3.566  10.830  0.00  0.00    +0.000 C 
BRANCH  10  11
ATOM     11  C   UNL     1      44.231   2.958   9.553  0.00  0.00    +0.000 C 
ATOM     12  C   UNL     1      44.555   3.769   8.309  0.00  0.00    +0.000 C 
ATOM     13  C   UNL     1      45.936   3.276   7.918  0.00  0.00    +0.000 C 
ATOM     14  C   UNL     1      45.981   1.835   8.411  0.00  0.00    +0.000 C 
ATOM     15  N   UNL     1      44.775   1.632   9.215  0.00  0.00    +0.000 NA
ATOM     16  H   UNL     1      44.984   1.112  10.070  0.00  0.00    +0.000 HD
ENDBRANCH  10  11
ENDBRANCH   9  10
ENDBRANCH   6   9
ENDBRANCH   2   3
BRANCH   2  17
ATOM     17  N   UNL     1      48.107   7.575  15.432  0.00  0.00    +0.000 N 
ATOM     18  C   UNL     1      48.687   8.322  16.430  0.00  0.00    +0.000 C 
ATOM     19  O   UNL     1      49.322   9.347  16.206  0.00  0.00    +0.000 OA
ATOM     20  H   UNL     1      47.679   6.687  15.662  0.00  0.00    +0.000 HD
BRANCH  18  21
ATOM     21  C   UNL     1      48.437   7.842  17.791  0.00  0.00    +0.000 A 
ATOM     22  C   UNL     1      47.982   8.721  18.762  0.00  0.00    +0.000 A 
ATOM     23  S   UNL     1      47.763   7.992  20.289  0.00  0.00    +0.000 S 
ATOM     24  C   UNL     1      48.310   6.487  19.712  0.00  0.00    +0.000 A 
ATOM     25  N   UNL     1      48.418   5.415  20.542  0.00  0.00    +0.000 NA
ATOM     26  C   UNL     1      48.881   4.350  19.979  0.00  0.00    +0.000 A 
ATOM     27  N   UNL     1      49.227   4.253  18.656  0.00  0.00    +0.000 N 
ATOM     28  C   UNL     1      49.072   5.289  17.767  0.00  0.00    +0.000 A 
ATOM     29  O   UNL     1      49.277   5.134  16.563  0.00  0.00    +0.000 OA
ATOM     30  C   UNL     1      48.610   6.528  18.362  0.00  0.00    +0.000 A 
ATOM     31  H   UNL     1      49.550   3.375  18.272  0.00  0.00    +0.000 HD
ENDBRANCH  18  21
ENDBRANCH   2  17
TORSDOF 6
ENDMDL
MODEL 9
REMARK VINA RESULT:    -6.629      3.816      7.984
REMARK INTER + INTRA:          -9.768
REMARK INTER:                  -8.687
REMARK INTRA:                  -1.081
REMARK UNBOUND:                -0.813
REMARK  Name = 
REMARK  7 active torsions:
REMARK  status: ('A' for Active; 'I' for Inactive)
REMARK    1  A    between atoms: C_1  and  C_2
REMARK    2  A    between atoms: C_2  and  N_3
REMARK    3  A    between atoms: C_2  and  C_16
REMARK    4  A    between atoms: C_4  and  C_6
REMARK    5  A    between atoms: C_19  and  O_20
REMARK    6  A    between atoms: O_20  and  C_21
REMARK    7  A    between atoms: C_21  and  C_22
REMARK                            x       y       z     vdW  Elec       q    Type
REMARK                         _______ _______ _______ _____ _____    ______ ____
ROOT
ATOM      1  C   UNL     1      48.621   8.686  16.549  0.00  0.00    +0.000 C 
ATOM      2  C   UNL     1      49.008   7.517  15.629  0.00  0.00    +0.000 C 
ENDROOT
BRANCH   2   3
ATOM      3  C   UNL     1      49.532   6.309  16.388  0.00  0.00    +0.000 A 
ATOM      4  C   UNL     1      48.655   5.293  16.800  0.00  0.00    +0.000 A 
ATOM      5  C   UNL     1      49.138   4.146  17.446  0.00  0.00    +0.000 A 
ATOM      6  C   UNL     1      50.503   4.005  17.701  0.00  0.00    +0.000 A 
ATOM      7  C   UNL     1      51.369   5.040  17.363  0.00  0.00    +0.000 A 
ATOM      8  C   UNL     1      50.889   6.181  16.722  0.00  0.00    +0.000 A 
BRANCH   6   9
ATOM      9  O   UNL     1      51.088   2.930  18.310  0.00  0.00    +0.000 OA
BRANCH   9  10
ATOM     10  C   UNL     1      52.066   2.239  17.523  0.00  0.00    +0.000 C 
BRANCH  10  11
ATOM     11  C   UNL     1      53.305   1.957  18.398  0.00  0.00    +0.000 C 
ATOM     12  C   UNL     1      54.188   0.864  17.817  0.00  0.00    +0.000 C 
ATOM     13  C   UNL     1      55.035   1.602  16.796  0.00  0.00    +0.000 C 
ATOM     14  C   UNL     1      55.147   3.019  17.345  0.00  0.00    +0.000 C 
ATOM     15  N   UNL     1      54.232   3.098  18.484  0.00  0.00    +0.000 NA
ATOM     16  H   UNL     1      53.708   3.975  18.477  0.00  0.00    +0.000 HD
ENDBRANCH  10  11
ENDBRANCH   9  10
ENDBRANCH   6   9
ENDBRANCH   2   3
BRANCH   2  17
ATOM     17  N   UNL     1      47.887   7.111  14.808  0.00  0.00    +0.000 N 
ATOM     18  C   UNL     1      48.028   6.687  13.507  0.00  0.00    +0.000 C 
ATOM     19  O   UNL     1      49.123   6.513  12.982  0.00  0.00    +0.000 OA
ATOM     20  H   UNL     1      46.964   7.332  15.160  0.00  0.00    +0.000 HD
BRANCH  18  21
ATOM     21  C   UNL     1      46.774   6.394  12.809  0.00  0.00    +0.000 A 
ATOM     22  C   UNL     1      46.071   7.417  12.191  0.00  0.00    +0.000 A 
ATOM     23  S   UNL     1      44.629   6.893  11.444  0.00  0.00    +0.000 S 
ATOM     24  C   UNL     1      44.877   5.290  11.959  0.00  0.00    +0.000 A 
ATOM     25  N   UNL     1      43.964   4.319  11.689  0.00  0.00    +0.000 NA
ATOM     26  C   UNL     1      44.262   3.159  12.172  0.00  0.00    +0.000 A 
ATOM     27  N   UNL     1      45.401   2.878  12.883  0.00  0.00    +0.000 N 
ATOM     28  C   UNL     1      46.380   3.811  13.121  0.00  0.00    +0.000 A 
ATOM     29  O   UNL     1      47.444   3.499  13.656  0.00  0.00    +0.000 OA
ATOM     30  C   UNL     1      46.067   5.147  12.650  0.00  0.00    +0.000 A 
ATOM     31  H   UNL     1      45.589   1.937  13.202  0.00  0.00    +0.000 HD
ENDBRANCH  18  21
ENDBRANCH   2  17
TORSDOF 6
ENDMDL
