MODEL 1
REMARK VINA RESULT:    -7.917      0.000      0.000
REMARK INTER + INTRA:         -13.145
REMARK INTER:                 -12.315
REMARK INTRA:                  -0.831
REMARK UNBOUND:                -0.831
REMARK  Name = 
REMARK  10 active torsions:
REMARK  status: ('A' for Active; 'I' for Inactive)
REMARK    1  A    between atoms: N_1  and  C_2
REMARK    2  A    between atoms: C_2  and  C_3
REMARK    3  A    between atoms: C_3  and  N_4
REMARK    4  A    between atoms: C_3  and  C_20
REMARK    5  A    between atoms: N_4  and  C_5
REMARK    6  A    between atoms: C_5  and  C_6
REMARK    7  A    between atoms: C_9  and  C_10
REMARK    8  A    between atoms: C_10  and  N_11
REMARK    9  A    between atoms: N_11  and  C_12
REMARK   10  A    between atoms: C_12  and  C_13
REMARK                            x       y       z     vdW  Elec       q    Type
REMARK                         _______ _______ _______ _____ _____    ______ ____
ROOT
ATOM      1  N   UNL     1      48.126   6.025  16.141  0.00  0.00    +0.000 NA
ATOM      2  H   UNL     1      48.763   6.648  16.643  0.00  0.00    +0.000 HD
ENDROOT
BRANCH   1   3
ATOM      3  C   UNL     1      48.266   4.666  16.702  0.00  0.00    +0.000 C 
BRANCH   3   4
ATOM      4  C   UNL     1      49.633   4.578  17.375  0.00  0.00    +0.000 A 
ATOM      5  C   UNL     1      50.233   5.592  18.108  0.00  0.00    +0.000 A 
ATOM      6  S   UNL     1      51.753   5.157  18.751  0.00  0.00    +0.000 S 
ATOM      7  C   UNL     1      51.645   3.589  18.099  0.00  0.00    +0.000 A 
ATOM      8  N   UNL     1      52.630   2.669  18.296  0.00  0.00    +0.000 NA
ATOM      9  C   UNL     1      52.392   1.519  17.764  0.00  0.00    +0.000 A 
ATOM     10  N   UNL     1      51.265   1.199  17.045  0.00  0.00    +0.000 N 
ATOM     11  C   UNL     1      50.242   2.093  16.822  0.00  0.00    +0.000 A 
ATOM     12  O   UNL     1      49.236   1.774  16.195  0.00  0.00    +0.000 OA
ATOM     13  C   UNL     1      50.468   3.404  17.396  0.00  0.00    +0.000 A 
ATOM     14  H   UNL     1      51.142   0.274  16.663  0.00  0.00    +0.000 HD
ENDBRANCH   3   4
BRANCH   3  15
ATOM     15  C   UNL     1      47.131   4.291  17.712  0.00  0.00    +0.000 C 
BRANCH  15  16
ATOM     16  N   UNL     1      46.751   2.871  17.688  0.00  0.00    +0.000 NA
ATOM     17  H   UNL     1      46.246   2.626  18.534  0.00  0.00    +0.000 HD
ATOM     18  H   UNL     1      47.606   2.313  17.653  0.00  0.00    +0.000 HD
ENDBRANCH  15  16
ENDBRANCH   3  15
ENDBRANCH   1   3
BRANCH   1  19
ATOM     19  C   UNL     1      48.513   6.104  14.728  0.00  0.00    +0.000 C 
BRANCH  19  20
ATOM     20  C   UNL     1      47.357   5.711  13.825  0.00  0.00    +0.000 A 
ATOM     21  C   UNL     1      46.749   6.668  13.017  0.00  0.00    +0.000 A 
ATOM     22  C   UNL     1      45.719   6.275  12.169  0.00  0.00    +0.000 A 
ATOM     23  C   UNL     1      45.324   4.936  12.127  0.00  0.00    +0.000 A 
ATOM     24  C   UNL     1      45.983   4.052  12.976  0.00  0.00    +0.000 A 
ATOM     25  N   UNL     1      46.979   4.406  13.822  0.00  0.00    +0.000 NA
BRANCH  23  26
ATOM     26  C   UNL     1      44.239   4.472  11.193  0.00  0.00    +0.000 C 
BRANCH  26  27
ATOM     27  N   UNL     1      44.363   5.133   9.894  0.00  0.00    +0.000 NA
ATOM     28  H   UNL     1      44.502   6.134  10.040  0.00  0.00    +0.000 HD
BRANCH  27  29
ATOM     29  C   UNL     1      45.488   4.598   9.118  0.00  0.00    +0.000 C 
BRANCH  29  30
ATOM     30  C   UNL     1      44.962   3.692   7.973  0.00  0.00    +0.000 C 
ATOM     31  C   UNL     1      46.031   3.338   6.955  0.00  0.00    +0.000 C 
ATOM     32  C   UNL     1      46.750   2.164   7.590  0.00  0.00    +0.000 C 
ATOM     33  C   UNL     1      45.700   1.499   8.470  0.00  0.00    +0.000 C 
ATOM     34  N   UNL     1      44.524   2.374   8.462  0.00  0.00    +0.000 NA
ATOM     35  H   UNL     1      44.157   2.491   9.410  0.00  0.00    +0.000 HD
ENDBRANCH  29  30
ENDBRANCH  27  29
ENDBRANCH  26  27
ENDBRANCH  23  26
ENDBRANCH  19  20
ENDBRANCH   1  19
TORSDOF 10
ENDMDL
MODEL 2
REMARK VINA RESULT:    -7.471      1.681      2.193
REMARK INTER + INTRA:         -12.451
REMARK INTER:                 -11.345
REMARK INTRA:                  -1.106
REMARK UNBOUND:                -0.831
REMARK  Name = 
REMARK  10 active torsions:
REMARK  status: ('A' for Active; 'I' for Inactive)
REMARK    1  A    between atoms: N_1  and  C_2
REMARK    2  A    between atoms: C_2  and  C_3
REMARK    3  A    between atoms: C_3  and  N_4
REMARK    4  A    between atoms: C_3  and  C_20
REMARK    5  A    between atoms: N_4  and  C_5
REMARK    6  A    between atoms: C_5  and  C_6
REMARK    7  A    between atoms: C_9  and  C_10
REMARK    8  A    between atoms: C_10  and  N_11
REMARK    9  A    between atoms: N_11  and  C_12
REMARK   10  A    between atoms: C_12  and  C_13
REMARK                            x       y       z     vdW  Elec       q    Type
REMARK                         _______ _______ _______ _____ _____    ______ ____
ROOT
ATOM      1  N   UNL     1      48.735   6.298  16.771  0.00  0.00    +0.000 NA
ATOM      2  H   UNL     1      49.370   6.752  17.433  0.00  0.00    +0.000 HD
ENDROOT
BRANCH   1   3
ATOM      3  C   UNL     1      48.740   4.846  17.045  0.00  0.00    +0.000 C 
BRANCH   3   4
ATOM      4  C   UNL     1      50.078   4.499  17.693  0.00  0.00    +0.000 A 
ATOM      5  C   UNL     1      50.809   5.336  18.523  0.00  0.00    +0.000 A 
ATOM      6  S   UNL     1      52.250   4.628  19.102  0.00  0.00    +0.000 S 
ATOM      7  C   UNL     1      51.928   3.169  18.290  0.00  0.00    +0.000 A 
ATOM      8  N   UNL     1      52.774   2.105  18.380  0.00  0.00    +0.000 NA
ATOM      9  C   UNL     1      52.382   1.062  17.732  0.00  0.00    +0.000 A 
ATOM     10  N   UNL     1      51.225   0.979  16.994  0.00  0.00    +0.000 N 
ATOM     11  C   UNL     1      50.337   2.025  16.876  0.00  0.00    +0.000 A 
ATOM     12  O   UNL     1      49.301   1.917  16.228  0.00  0.00    +0.000 OA
ATOM     13  C   UNL     1      50.741   3.224  17.583  0.00  0.00    +0.000 A 
ATOM     14  H   UNL     1      50.976   0.126  16.518  0.00  0.00    +0.000 HD
ENDBRANCH   3   4
BRANCH   3  15
ATOM     15  C   UNL     1      47.553   4.382  17.953  0.00  0.00    +0.000 C 
BRANCH  15  16
ATOM     16  N   UNL     1      46.751   3.292  17.379  0.00  0.00    +0.000 NA
ATOM     17  H   UNL     1      47.334   2.480  17.200  0.00  0.00    +0.000 HD
ATOM     18  H   UNL     1      46.366   3.612  16.489  0.00  0.00    +0.000 HD
ENDBRANCH  15  16
ENDBRANCH   3  15
ENDBRANCH   1   3
BRANCH   1  19
ATOM     19  C   UNL     1      49.239   6.630  15.434  0.00  0.00    +0.000 C 
BRANCH  19  20
ATOM     20  C   UNL     1      48.096   6.940  14.483  0.00  0.00    +0.000 A 
ATOM     21  C   UNL     1      47.801   8.261  14.157  0.00  0.00    +0.000 A 
ATOM     22  C   UNL     1      46.776   8.516  13.253  0.00  0.00    +0.000 A 
ATOM     23  C   UNL     1      46.074   7.454  12.678  0.00  0.00    +0.000 A 
ATOM     24  C   UNL     1      46.433   6.169  13.070  0.00  0.00    +0.000 A 
ATOM     25  N   UNL     1      47.416   5.888  13.957  0.00  0.00    +0.000 NA
BRANCH  23  26
ATOM     26  C   UNL     1      44.985   7.696  11.668  0.00  0.00    +0.000 C 
BRANCH  26  27
ATOM     27  N   UNL     1      44.793   6.515  10.827  0.00  0.00    +0.000 NA
ATOM     28  H   UNL     1      45.568   5.867  10.978  0.00  0.00    +0.000 HD
BRANCH  27  29
ATOM     29  C   UNL     1      43.528   5.833  11.128  0.00  0.00    +0.000 C 
BRANCH  29  30
ATOM     30  C   UNL     1      43.551   4.392  10.553  0.00  0.00    +0.000 C 
ATOM     31  C   UNL     1      44.937   3.771  10.559  0.00  0.00    +0.000 C 
ATOM     32  C   UNL     1      45.080   3.239  11.971  0.00  0.00    +0.000 C 
ATOM     33  C   UNL     1      43.655   2.936  12.416  0.00  0.00    +0.000 C 
ATOM     34  N   UNL     1      42.766   3.453  11.371  0.00  0.00    +0.000 NA
ATOM     35  H   UNL     1      41.985   3.967  11.787  0.00  0.00    +0.000 HD
ENDBRANCH  29  30
ENDBRANCH  27  29
ENDBRANCH  26  27
ENDBRANCH  23  26
ENDBRANCH  19  20
ENDBRANCH   1  19
TORSDOF 10
ENDMDL
MODEL 3
REMARK VINA RESULT:    -6.973      1.948      2.775
REMARK INTER + INTRA:         -11.677
REMARK INTER:                 -10.712
REMARK INTRA:                  -0.964
REMARK UNBOUND:                -0.831
REMARK  Name = 
REMARK  10 active torsions:
REMARK  status: ('A' for Active; 'I' for Inactive)
REMARK    1  A    between atoms: N_1  and  C_2
REMARK    2  A    between atoms: C_2  and  C_3
REMARK    3  A    between atoms: C_3  and  N_4
REMARK    4  A    between atoms: C_3  and  C_20
REMARK    5  A    between atoms: N_4  and  C_5
REMARK    6  A    between atoms: C_5  and  C_6
REMARK    7  A    between atoms: C_9  and  C_10
REMARK    8  A    between atoms: C_10  and  N_11
REMARK    9  A    between atoms: N_11  and  C_12
REMARK   10  A    between atoms: C_12  and  C_13
REMARK                            x       y       z     vdW  Elec       q    Type
REMARK                         _______ _______ _______ _____ _____    ______ ____
ROOT
ATOM      1  N   UNL     1      48.368   5.744  14.375  0.00  0.00    +0.000 NA
ATOM      2  H   UNL     1      49.094   5.032  14.488  0.00  0.00    +0.000 HD
ENDROOT
BRANCH   1   3
ATOM      3  C   UNL     1      48.639   6.839  15.328  0.00  0.00    +0.000 C 
BRANCH   3   4
ATOM      4  C   UNL     1      50.053   6.647  15.870  0.00  0.00    +0.000 A 
ATOM      5  C   UNL     1      51.171   7.361  15.465  0.00  0.00    +0.000 A 
ATOM      6  S   UNL     1      52.597   6.916  16.292  0.00  0.00    +0.000 S 
ATOM      7  C   UNL     1      51.761   5.779  17.241  0.00  0.00    +0.000 A 
ATOM      8  N   UNL     1      52.399   5.041  18.191  0.00  0.00    +0.000 NA
ATOM      9  C   UNL     1      51.628   4.242  18.846  0.00  0.00    +0.000 A 
ATOM     10  N   UNL     1      50.276   4.103  18.639  0.00  0.00    +0.000 N 
ATOM     11  C   UNL     1      49.586   4.828  17.693  0.00  0.00    +0.000 A 
ATOM     12  O   UNL     1      48.375   4.699  17.544  0.00  0.00    +0.000 OA
ATOM     13  C   UNL     1      50.415   5.736  16.926  0.00  0.00    +0.000 A 
ATOM     14  H   UNL     1      49.732   3.462  19.196  0.00  0.00    +0.000 HD
ENDBRANCH   3   4
BRANCH   3  15
ATOM     15  C   UNL     1      48.481   8.263  14.699  0.00  0.00    +0.000 C 
BRANCH  15  16
ATOM     16  N   UNL     1      47.124   8.819  14.806  0.00  0.00    +0.000 NA
ATOM     17  H   UNL     1      46.444   8.073  14.922  0.00  0.00    +0.000 HD
ATOM     18  H   UNL     1      46.911   9.313  13.938  0.00  0.00    +0.000 HD
ENDBRANCH  15  16
ENDBRANCH   3  15
ENDBRANCH   1   3
BRANCH   1  19
ATOM     19  C   UNL     1      47.093   5.065  14.629  0.00  0.00    +0.000 C 
BRANCH  19  20
ATOM     20  C   UNL     1      46.269   4.961  13.358  0.00  0.00    +0.000 A 
ATOM     21  C   UNL     1      46.339   5.967  12.399  0.00  0.00    +0.000 A 
ATOM     22  C   UNL     1      45.606   5.829  11.226  0.00  0.00    +0.000 A 
ATOM     23  C   UNL     1      44.829   4.686  11.020  0.00  0.00    +0.000 A 
ATOM     24  C   UNL     1      44.813   3.738  12.037  0.00  0.00    +0.000 A 
ATOM     25  N   UNL     1      45.505   3.849  13.195  0.00  0.00    +0.000 NA
BRANCH  23  26
ATOM     26  C   UNL     1      44.054   4.490   9.745  0.00  0.00    +0.000 C 
BRANCH  26  27
ATOM     27  N   UNL     1      44.382   3.199   9.139  0.00  0.00    +0.000 NA
ATOM     28  H   UNL     1      43.552   2.603   9.152  0.00  0.00    +0.000 HD
BRANCH  27  29
ATOM     29  C   UNL     1      44.844   3.351   7.754  0.00  0.00    +0.000 C 
BRANCH  29  30
ATOM     30  C   UNL     1      46.395   3.404   7.714  0.00  0.00    +0.000 C 
ATOM     31  C   UNL     1      47.036   2.029   7.652  0.00  0.00    +0.000 C 
ATOM     32  C   UNL     1      46.982   1.679   6.178  0.00  0.00    +0.000 C 
ATOM     33  C   UNL     1      47.014   3.023   5.461  0.00  0.00    +0.000 C 
ATOM     34  N   UNL     1      46.899   4.057   6.494  0.00  0.00    +0.000 NA
ATOM     35  H   UNL     1      46.223   4.772   6.212  0.00  0.00    +0.000 HD
ENDBRANCH  29  30
ENDBRANCH  27  29
ENDBRANCH  26  27
ENDBRANCH  23  26
ENDBRANCH  19  20
ENDBRANCH   1  19
TORSDOF 10
ENDMDL
MODEL 4
REMARK VINA RESULT:    -6.938      2.050      2.607
REMARK INTER + INTRA:         -11.622
REMARK INTER:                 -10.507
REMARK INTRA:                  -1.116
REMARK UNBOUND:                -0.831
REMARK  Name = 
REMARK  10 active torsions:
REMARK  status: ('A' for Active; 'I' for Inactive)
REMARK    1  A    between atoms: N_1  and  C_2
REMARK    2  A    between atoms: C_2  and  C_3
REMARK    3  A    between atoms: C_3  and  N_4
REMARK    4  A    between atoms: C_3  and  C_20
REMARK    5  A    between atoms: N_4  and  C_5
REMARK    6  A    between atoms: C_5  and  C_6
REMARK    7  A    between atoms: C_9  and  C_10
REMARK    8  A    between atoms: C_10  and  N_11
REMARK    9  A    between atoms: N_11  and  C_12
REMARK   10  A    between atoms: C_12  and  C_13
REMARK                            x       y       z     vdW  Elec       q    Type
REMARK                         _______ _______ _______ _____ _____    ______ ____
ROOT
ATOM      1  N   UNL     1      47.123   5.024  15.506  0.00  0.00    +0.000 NA
ATOM      2  H   UNL     1      47.282   5.910  15.019  0.00  0.00    +0.000 HD
ENDROOT
BRANCH   1   3
ATOM      3  C   UNL     1      48.089   4.929  16.621  0.00  0.00    +0.000 C 
BRANCH   3   4
ATOM      4  C   UNL     1      49.178   5.971  16.384  0.00  0.00    +0.000 A 
ATOM      5  C   UNL     1      48.980   7.228  15.831  0.00  0.00    +0.000 A 
ATOM      6  S   UNL     1      50.407   8.159  15.730  0.00  0.00    +0.000 S 
ATOM      7  C   UNL     1      51.330   6.927  16.454  0.00  0.00    +0.000 A 
ATOM      8  N   UNL     1      52.663   7.083  16.688  0.00  0.00    +0.000 NA
ATOM      9  C   UNL     1      53.220   6.073  17.266  0.00  0.00    +0.000 A 
ATOM     10  N   UNL     1      52.574   4.916  17.628  0.00  0.00    +0.000 N 
ATOM     11  C   UNL     1      51.228   4.712  17.416  0.00  0.00    +0.000 A 
ATOM     12  O   UNL     1      50.672   3.677  17.769  0.00  0.00    +0.000 OA
ATOM     13  C   UNL     1      50.561   5.819  16.760  0.00  0.00    +0.000 A 
ATOM     14  H   UNL     1      53.072   4.168  18.086  0.00  0.00    +0.000 HD
ENDBRANCH   3   4
BRANCH   3  15
ATOM     15  C   UNL     1      47.434   5.129  18.028  0.00  0.00    +0.000 C 
BRANCH  15  16
ATOM     16  N   UNL     1      47.874   4.155  19.038  0.00  0.00    +0.000 NA
ATOM     17  H   UNL     1      47.340   3.295  18.956  0.00  0.00    +0.000 HD
ATOM     18  H   UNL     1      47.700   4.553  19.962  0.00  0.00    +0.000 HD
ENDBRANCH  15  16
ENDBRANCH   3  15
ENDBRANCH   1   3
BRANCH   1  19
ATOM     19  C   UNL     1      47.303   3.971  14.501  0.00  0.00    +0.000 C 
BRANCH  19  20
ATOM     20  C   UNL     1      46.354   4.169  13.331  0.00  0.00    +0.000 A 
ATOM     21  C   UNL     1      46.287   5.403  12.690  0.00  0.00    +0.000 A 
ATOM     22  C   UNL     1      45.440   5.546  11.597  0.00  0.00    +0.000 A 
ATOM     23  C   UNL     1      44.688   4.456  11.151  0.00  0.00    +0.000 A 
ATOM     24  C   UNL     1      44.814   3.265  11.859  0.00  0.00    +0.000 A 
ATOM     25  N   UNL     1      45.618   3.098  12.934  0.00  0.00    +0.000 NA
BRANCH  23  26
ATOM     26  C   UNL     1      43.792   4.569   9.947  0.00  0.00    +0.000 C 
BRANCH  26  27
ATOM     27  N   UNL     1      44.586   4.698   8.726  0.00  0.00    +0.000 NA
ATOM     28  H   UNL     1      45.455   5.188   8.942  0.00  0.00    +0.000 HD
BRANCH  27  29
ATOM     29  C   UNL     1      44.902   3.389   8.143  0.00  0.00    +0.000 C 
BRANCH  29  30
ATOM     30  C   UNL     1      46.438   3.237   7.978  0.00  0.00    +0.000 C 
ATOM     31  C   UNL     1      46.852   1.853   7.509  0.00  0.00    +0.000 C 
ATOM     32  C   UNL     1      46.669   1.919   6.006  0.00  0.00    +0.000 C 
ATOM     33  C   UNL     1      46.874   3.387   5.656  0.00  0.00    +0.000 C 
ATOM     34  N   UNL     1      46.975   4.114   6.924  0.00  0.00    +0.000 NA
ATOM     35  H   UNL     1      46.406   4.965   6.896  0.00  0.00    +0.000 HD
ENDBRANCH  29  30
ENDBRANCH  27  29
ENDBRANCH  26  27
ENDBRANCH  23  26
ENDBRANCH  19  20
ENDBRANCH   1  19
TORSDOF 10
ENDMDL
MODEL 5
REMARK VINA RESULT:    -6.509      3.313      8.725
REMARK INTER + INTRA:         -10.955
REMARK INTER:                  -9.940
REMARK INTRA:                  -1.015
REMARK UNBOUND:                -0.831
REMARK  Name = 
REMARK  10 active torsions:
REMARK  status: ('A' for Active; 'I' for Inactive)
REMARK    1  A    between atoms: N_1  and  C_2
REMARK    2  A    between atoms: C_2  and  C_3
REMARK    3  A    between atoms: C_3  and  N_4
REMARK    4  A    between atoms: C_3  and  C_20
REMARK    5  A    between atoms: N_4  and  C_5
REMARK    6  A    between atoms: C_5  and  C_6
REMARK    7  A    between atoms: C_9  and  C_10
REMARK    8  A    between atoms: C_10  and  N_11
REMARK    9  A    between atoms: N_11  and  C_12
REMARK   10  A    between atoms: C_12  and  C_13
REMARK                            x       y       z     vdW  Elec       q    Type
REMARK                         _______ _______ _______ _____ _____    ______ ____
ROOT
ATOM      1  N   UNL     1      46.569   6.816  13.274  0.00  0.00    +0.000 NA
ATOM      2  H   UNL     1      47.116   5.956  13.368  0.00  0.00    +0.000 HD
ENDROOT
BRANCH   1   3
ATOM      3  C   UNL     1      45.837   6.763  11.992  0.00  0.00    +0.000 C 
BRANCH   3   4
ATOM      4  C   UNL     1      45.114   5.420  11.923  0.00  0.00    +0.000 A 
ATOM      5  C   UNL     1      44.402   4.839  12.962  0.00  0.00    +0.000 A 
ATOM      6  S   UNL     1      43.690   3.344  12.544  0.00  0.00    +0.000 S 
ATOM      7  C   UNL     1      44.281   3.442  10.952  0.00  0.00    +0.000 A 
ATOM      8  N   UNL     1      44.014   2.471  10.035  0.00  0.00    +0.000 NA
ATOM      9  C   UNL     1      44.507   2.699   8.866  0.00  0.00    +0.000 A 
ATOM     10  N   UNL     1      45.251   3.803   8.524  0.00  0.00    +0.000 N 
ATOM     11  C   UNL     1      45.545   4.812   9.414  0.00  0.00    +0.000 A 
ATOM     12  O   UNL     1      46.193   5.797   9.076  0.00  0.00    +0.000 OA
ATOM     13  C   UNL     1      45.016   4.595  10.746  0.00  0.00    +0.000 A 
ATOM     14  H   UNL     1      45.599   3.920   7.585  0.00  0.00    +0.000 HD
ENDBRANCH   3   4
BRANCH   3  15
ATOM     15  C   UNL     1      44.825   7.942  11.806  0.00  0.00    +0.000 C 
BRANCH  15  16
ATOM     16  N   UNL     1      43.569   7.556  11.146  0.00  0.00    +0.000 NA
ATOM     17  H   UNL     1      43.682   7.565  10.137  0.00  0.00    +0.000 HD
ATOM     18  H   UNL     1      42.854   8.241  11.395  0.00  0.00    +0.000 HD
ENDBRANCH  15  16
ENDBRANCH   3  15
ENDBRANCH   1   3
BRANCH   1  19
ATOM     19  C   UNL     1      47.534   7.918  13.337  0.00  0.00    +0.000 C 
BRANCH  19  20
ATOM     20  C   UNL     1      48.413   7.802  14.571  0.00  0.00    +0.000 A 
ATOM     21  C   UNL     1      48.146   8.586  15.690  0.00  0.00    +0.000 A 
ATOM     22  C   UNL     1      48.940   8.432  16.821  0.00  0.00    +0.000 A 
ATOM     23  C   UNL     1      49.973   7.491  16.825  0.00  0.00    +0.000 A 
ATOM     24  C   UNL     1      50.170   6.760  15.658  0.00  0.00    +0.000 A 
ATOM     25  N   UNL     1      49.424   6.896  14.537  0.00  0.00    +0.000 NA
BRANCH  23  26
ATOM     26  C   UNL     1      50.826   7.274  18.046  0.00  0.00    +0.000 C 
BRANCH  26  27
ATOM     27  N   UNL     1      50.075   6.555  19.075  0.00  0.00    +0.000 NA
ATOM     28  H   UNL     1      49.165   7.001  19.198  0.00  0.00    +0.000 HD
BRANCH  27  29
ATOM     29  C   UNL     1      49.877   5.145  18.717  0.00  0.00    +0.000 C 
BRANCH  29  30
ATOM     30  C   UNL     1      48.478   4.668  19.190  0.00  0.00    +0.000 C 
ATOM     31  C   UNL     1      47.344   5.215  18.340  0.00  0.00    +0.000 C 
ATOM     32  C   UNL     1      47.299   4.267  17.158  0.00  0.00    +0.000 C 
ATOM     33  C   UNL     1      47.827   2.946  17.703  0.00  0.00    +0.000 C 
ATOM     34  N   UNL     1      48.312   3.211  19.060  0.00  0.00    +0.000 NA
ATOM     35  H   UNL     1      49.225   2.771  19.206  0.00  0.00    +0.000 HD
ENDBRANCH  29  30
ENDBRANCH  27  29
ENDBRANCH  26  27
ENDBRANCH  23  26
ENDBRANCH  19  20
ENDBRANCH   1  19
TORSDOF 10
ENDMDL
MODEL 6
REMARK VINA RESULT:    -6.448      3.466      8.047
REMARK INTER + INTRA:         -10.859
REMARK INTER:                  -8.798
REMARK INTRA:                  -2.061
REMARK UNBOUND:                -0.831
REMARK  Name = 
REMARK  10 active torsions:
REMARK  status: ('A' for Active; 'I' for Inactive)
REMARK    1  A    between atoms: N_1  and  C_2
REMARK    2  A    between atoms: C_2  and  C_3
REMARK    3  A    between atoms: C_3  and  N_4
REMARK    4  A    between atoms: C_3  and  C_20
REMARK    5  A    between atoms: N_4  and  C_5
REMARK    6  A    between atoms: C_5  and  C_6
REMARK    7  A    between atoms: C_9  and  C_10
REMARK    8  A    between atoms: C_10  and  N_11
REMARK    9  A    between atoms: N_11  and  C_12
REMARK   10  A    between atoms: C_12  and  C_13
REMARK                            x       y       z     vdW  Elec       q    Type
REMARK                         _______ _______ _______ _____ _____    ______ ____
ROOT
ATOM      1  N   UNL     1      46.913   8.811  13.751  0.00  0.00    +0.000 NA
ATOM      2  H   UNL     1      46.342   8.739  14.598  0.00  0.00    +0.000 HD
ENDROOT
BRANCH   1   3
ATOM      3  C   UNL     1      47.222   7.445  13.282  0.00  0.00    +0.000 C 
BRANCH   3   4
ATOM      4  C   UNL     1      45.952   6.866  12.664  0.00  0.00    +0.000 A 
ATOM      5  C   UNL     1      44.973   7.598  12.008  0.00  0.00    +0.000 A 
ATOM      6  S   UNL     1      43.694   6.639  11.410  0.00  0.00    +0.000 S 
ATOM      7  C   UNL     1      44.423   5.211  11.978  0.00  0.00    +0.000 A 
ATOM      8  N   UNL     1      43.848   3.992  11.778  0.00  0.00    +0.000 NA
ATOM      9  C   UNL     1      44.532   3.003  12.242  0.00  0.00    +0.000 A 
ATOM     10  N   UNL     1      45.736   3.113  12.896  0.00  0.00    +0.000 N 
ATOM     11  C   UNL     1      46.358   4.321  13.119  0.00  0.00    +0.000 A 
ATOM     12  O   UNL     1      47.444   4.388  13.686  0.00  0.00    +0.000 OA
ATOM     13  C   UNL     1      45.621   5.465  12.620  0.00  0.00    +0.000 A 
ATOM     14  H   UNL     1      46.221   2.292  13.226  0.00  0.00    +0.000 HD
ENDBRANCH   3   4
BRANCH   3  15
ATOM     15  C   UNL     1      48.404   7.394  12.258  0.00  0.00    +0.000 C 
BRANCH  15  16
ATOM     16  N   UNL     1      49.555   6.599  12.710  0.00  0.00    +0.000 NA
ATOM     17  H   UNL     1      49.709   6.734  13.705  0.00  0.00    +0.000 HD
ATOM     18  H   UNL     1      50.385   6.925  12.211  0.00  0.00    +0.000 HD
ENDBRANCH  15  16
ENDBRANCH   3  15
ENDBRANCH   1   3
BRANCH   1  19
ATOM     19  C   UNL     1      48.108   9.570  14.133  0.00  0.00    +0.000 C 
BRANCH  19  20
ATOM     20  C   UNL     1      48.698   9.041  15.429  0.00  0.00    +0.000 A 
ATOM     21  C   UNL     1      47.980   9.151  16.617  0.00  0.00    +0.000 A 
ATOM     22  C   UNL     1      48.524   8.623  17.782  0.00  0.00    +0.000 A 
ATOM     23  C   UNL     1      49.764   7.979  17.742  0.00  0.00    +0.000 A 
ATOM     24  C   UNL     1      50.412   7.925  16.513  0.00  0.00    +0.000 A 
ATOM     25  N   UNL     1      49.916   8.441  15.364  0.00  0.00    +0.000 NA
BRANCH  23  26
ATOM     26  C   UNL     1      50.362   7.364  18.978  0.00  0.00    +0.000 C 
BRANCH  26  27
ATOM     27  N   UNL     1      50.745   5.975  18.726  0.00  0.00    +0.000 NA
ATOM     28  H   UNL     1      51.401   5.672  19.449  0.00  0.00    +0.000 HD
BRANCH  27  29
ATOM     29  C   UNL     1      49.580   5.082  18.727  0.00  0.00    +0.000 C 
BRANCH  29  30
ATOM     30  C   UNL     1      49.480   4.337  17.369  0.00  0.00    +0.000 C 
ATOM     31  C   UNL     1      49.151   2.862  17.523  0.00  0.00    +0.000 C 
ATOM     32  C   UNL     1      47.642   2.849  17.673  0.00  0.00    +0.000 C 
ATOM     33  C   UNL     1      47.169   4.086  16.920  0.00  0.00    +0.000 C 
ATOM     34  N   UNL     1      48.370   4.836  16.540  0.00  0.00    +0.000 NA
ATOM     35  H   UNL     1      48.247   5.833  16.738  0.00  0.00    +0.000 HD
ENDBRANCH  29  30
ENDBRANCH  27  29
ENDBRANCH  26  27
ENDBRANCH  23  26
ENDBRANCH  19  20
ENDBRANCH   1  19
TORSDOF 10
ENDMDL
MODEL 7
REMARK VINA RESULT:    -6.383      3.091      8.934
REMARK INTER + INTRA:         -10.758
REMARK INTER:                  -9.653
REMARK INTRA:                  -1.105
REMARK UNBOUND:                -0.831
REMARK  Name = 
REMARK  10 active torsions:
REMARK  status: ('A' for Active; 'I' for Inactive)
REMARK    1  A    between atoms: N_1  and  C_2
REMARK    2  A    between atoms: C_2  and  C_3
REMARK    3  A    between atoms: C_3  and  N_4
REMARK    4  A    between atoms: C_3  and  C_20
REMARK    5  A    between atoms: N_4  and  C_5
REMARK    6  A    between atoms: C_5  and  C_6
REMARK    7  A    between atoms: C_9  and  C_10
REMARK    8  A    between atoms: C_10  and  N_11
REMARK    9  A    between atoms: N_11  and  C_12
REMARK   10  A    between atoms: C_12  and  C_13
REMARK                            x       y       z     vdW  Elec       q    Type
REMARK                         _______ _______ _______ _____ _____    ______ ____
ROOT
ATOM      1  N   UNL     1      47.869   6.004  15.260  0.00  0.00    +0.000 NA
ATOM      2  H   UNL     1      47.937   5.006  15.477  0.00  0.00    +0.000 HD
ENDROOT
BRANCH   1   3
ATOM      3  C   UNL     1      48.209   6.193  13.835  0.00  0.00    +0.000 C 
BRANCH   3   4
ATOM      4  C   UNL     1      46.905   6.194  13.041  0.00  0.00    +0.000 A 
ATOM      5  C   UNL     1      46.347   7.299  12.416  0.00  0.00    +0.000 A 
ATOM      6  S   UNL     1      44.896   6.950  11.588  0.00  0.00    +0.000 S 
ATOM      7  C   UNL     1      44.984   5.304  12.008  0.00  0.00    +0.000 A 
ATOM      8  N   UNL     1      44.040   4.414  11.594  0.00  0.00    +0.000 NA
ATOM      9  C   UNL     1      44.257   3.200  11.970  0.00  0.00    +0.000 A 
ATOM     10  N   UNL     1      45.327   2.788  12.729  0.00  0.00    +0.000 N 
ATOM     11  C   UNL     1      46.308   3.648  13.168  0.00  0.00    +0.000 A 
ATOM     12  O   UNL     1      47.264   3.249  13.826  0.00  0.00    +0.000 OA
ATOM     13  C   UNL     1      46.101   5.028  12.775  0.00  0.00    +0.000 A 
ATOM     14  H   UNL     1      45.438   1.817  12.980  0.00  0.00    +0.000 HD
ENDBRANCH   3   4
BRANCH   3  15
ATOM     15  C   UNL     1      49.021   7.502  13.560  0.00  0.00    +0.000 C 
BRANCH  15  16
ATOM     16  N   UNL     1      50.109   7.339  12.585  0.00  0.00    +0.000 NA
ATOM     17  H   UNL     1      49.736   7.060  11.682  0.00  0.00    +0.000 HD
ATOM     18  H   UNL     1      50.728   6.598  12.918  0.00  0.00    +0.000 HD
ENDBRANCH  15  16
ENDBRANCH   3  15
ENDBRANCH   1   3
BRANCH   1  19
ATOM     19  C   UNL     1      48.803   6.679  16.167  0.00  0.00    +0.000 C 
BRANCH  19  20
ATOM     20  C   UNL     1      49.851   5.711  16.688  0.00  0.00    +0.000 A 
ATOM     21  C   UNL     1      51.170   6.130  16.842  0.00  0.00    +0.000 A 
ATOM     22  C   UNL     1      52.102   5.237  17.358  0.00  0.00    +0.000 A 
ATOM     23  C   UNL     1      51.703   3.950  17.728  0.00  0.00    +0.000 A 
ATOM     24  C   UNL     1      50.367   3.617  17.529  0.00  0.00    +0.000 A 
ATOM     25  N   UNL     1      49.439   4.458  17.017  0.00  0.00    +0.000 NA
BRANCH  23  26
ATOM     26  C   UNL     1      52.680   2.973  18.325  0.00  0.00    +0.000 C 
BRANCH  26  27
ATOM     27  N   UNL     1      52.119   1.622  18.325  0.00  0.00    +0.000 NA
ATOM     28  H   UNL     1      51.122   1.673  18.109  0.00  0.00    +0.000 HD
BRANCH  27  29
ATOM     29  C   UNL     1      52.783   0.758  17.341  0.00  0.00    +0.000 C 
BRANCH  29  30
ATOM     30  C   UNL     1      54.321   0.812  17.537  0.00  0.00    +0.000 C 
ATOM     31  C   UNL     1      54.828  -0.201  18.550  0.00  0.00    +0.000 C 
ATOM     32  C   UNL     1      54.948  -1.479  17.744  0.00  0.00    +0.000 C 
ATOM     33  C   UNL     1      55.210  -1.012  16.318  0.00  0.00    +0.000 C 
ATOM     34  N   UNL     1      55.053   0.445  16.313  0.00  0.00    +0.000 NA
ATOM     35  H   UNL     1      54.496   0.744  15.507  0.00  0.00    +0.000 HD
ENDBRANCH  29  30
ENDBRANCH  27  29
ENDBRANCH  26  27
ENDBRANCH  23  26
ENDBRANCH  19  20
ENDBRANCH   1  19
TORSDOF 10
ENDMDL
MODEL 8
REMARK VINA RESULT:    -6.270      3.101      9.497
REMARK INTER + INTRA:         -10.582
REMARK INTER:                  -9.285
REMARK INTRA:                  -1.297
REMARK UNBOUND:                -0.831
REMARK  Name = 
REMARK  10 active torsions:
REMARK  status: ('A' for Active; 'I' for Inactive)
REMARK    1  A    between atoms: N_1  and  C_2
REMARK    2  A    between atoms: C_2  and  C_3
REMARK    3  A    between atoms: C_3  and  N_4
REMARK    4  A    between atoms: C_3  and  C_20
REMARK    5  A    between atoms: N_4  and  C_5
REMARK    6  A    between atoms: C_5  and  C_6
REMARK    7  A    between atoms: C_9  and  C_10
REMARK    8  A    between atoms: C_10  and  N_11
REMARK    9  A    between atoms: N_11  and  C_12
REMARK   10  A    between atoms: C_12  and  C_13
REMARK                            x       y       z     vdW  Elec       q    Type
REMARK                         _______ _______ _______ _____ _____    ______ ____
ROOT
ATOM      1  N   UNL     1      46.784   5.060  15.244  0.00  0.00    +0.000 NA
ATOM      2  H   UNL     1      45.863   4.678  15.013  0.00  0.00    +0.000 HD
ENDROOT
BRANCH   1   3
ATOM      3  C   UNL     1      47.386   5.600  14.008  0.00  0.00    +0.000 C 
BRANCH   3   4
ATOM      4  C   UNL     1      46.252   5.925  13.041  0.00  0.00    +0.000 A 
ATOM      5  C   UNL     1      45.890   7.199  12.628  0.00  0.00    +0.000 A 
ATOM      6  S   UNL     1      44.593   7.210  11.517  0.00  0.00    +0.000 S 
ATOM      7  C   UNL     1      44.496   5.512  11.526  0.00  0.00    +0.000 A 
ATOM      8  N   UNL     1      43.586   4.850  10.758  0.00  0.00    +0.000 NA
ATOM      9  C   UNL     1      43.652   3.565  10.852  0.00  0.00    +0.000 A 
ATOM     10  N   UNL     1      44.536   2.875  11.645  0.00  0.00    +0.000 N 
ATOM     11  C   UNL     1      45.475   3.500  12.436  0.00  0.00    +0.000 A 
ATOM     12  O   UNL     1      46.268   2.858  13.119  0.00  0.00    +0.000 OA
ATOM     13  C   UNL     1      45.434   4.947  12.369  0.00  0.00    +0.000 A 
ATOM     14  H   UNL     1      44.536   1.867  11.663  0.00  0.00    +0.000 HD
ENDBRANCH   3   4
BRANCH   3  15
ATOM     15  C   UNL     1      48.278   6.862  14.253  0.00  0.00    +0.000 C 
BRANCH  15  16
ATOM     16  N   UNL     1      49.673   6.552  14.602  0.00  0.00    +0.000 NA
ATOM     17  H   UNL     1      50.308   7.148  14.081  0.00  0.00    +0.000 HD
ATOM     18  H   UNL     1      49.859   5.582  14.343  0.00  0.00    +0.000 HD
ENDBRANCH  15  16
ENDBRANCH   3  15
ENDBRANCH   1   3
BRANCH   1  19
ATOM     19  C   UNL     1      47.551   3.948  15.816  0.00  0.00    +0.000 C 
BRANCH  19  20
ATOM     20  C   UNL     1      48.336   4.398  17.036  0.00  0.00    +0.000 A 
ATOM     21  C   UNL     1      47.664   4.869  18.161  0.00  0.00    +0.000 A 
ATOM     22  C   UNL     1      48.404   5.239  19.279  0.00  0.00    +0.000 A 
ATOM     23  C   UNL     1      49.796   5.117  19.265  0.00  0.00    +0.000 A 
ATOM     24  C   UNL     1      50.380   4.645  18.094  0.00  0.00    +0.000 A 
ATOM     25  N   UNL     1      49.689   4.291  16.985  0.00  0.00    +0.000 NA
BRANCH  23  26
ATOM     26  C   UNL     1      50.621   5.472  20.472  0.00  0.00    +0.000 C 
BRANCH  26  27
ATOM     27  N   UNL     1      51.485   4.354  20.850  0.00  0.00    +0.000 NA
ATOM     28  H   UNL     1      51.361   3.594  20.179  0.00  0.00    +0.000 HD
BRANCH  27  29
ATOM     29  C   UNL     1      52.899   4.746  20.881  0.00  0.00    +0.000 C 
BRANCH  29  30
ATOM     30  C   UNL     1      53.793   3.543  20.481  0.00  0.00    +0.000 C 
ATOM     31  C   UNL     1      53.348   2.874  19.191  0.00  0.00    +0.000 C 
ATOM     32  C   UNL     1      53.975   3.734  18.112  0.00  0.00    +0.000 C 
ATOM     33  C   UNL     1      55.222   4.321  18.761  0.00  0.00    +0.000 C 
ATOM     34  N   UNL     1      55.175   3.951  20.179  0.00  0.00    +0.000 NA
ATOM     35  H   UNL     1      55.406   4.756  20.767  0.00  0.00    +0.000 HD
ENDBRANCH  29  30
ENDBRANCH  27  29
ENDBRANCH  26  27
ENDBRANCH  23  26
ENDBRANCH  19  20
ENDBRANCH   1  19
TORSDOF 10
ENDMDL
MODEL 9
REMARK VINA RESULT:    -6.234      2.455      2.974
REMARK INTER + INTRA:         -10.528
REMARK INTER:                  -9.657
REMARK INTRA:                  -0.870
REMARK UNBOUND:                -0.831
REMARK  Name = 
REMARK  10 active torsions:
REMARK  status: ('A' for Active; 'I' for Inactive)
REMARK    1  A    between atoms: N_1  and  C_2
REMARK    2  A    between atoms: C_2  and  C_3
REMARK    3  A    between atoms: C_3  and  N_4
REMARK    4  A    between atoms: C_3  and  C_20
REMARK    5  A    between atoms: N_4  and  C_5
REMARK    6  A    between atoms: C_5  and  C_6
REMARK    7  A    between atoms: C_9  and  C_10
REMARK    8  A    between atoms: C_10  and  N_11
REMARK    9  A    between atoms: N_11  and  C_12
REMARK   10  A    between atoms: C_12  and  C_13
REMARK                            x       y       z     vdW  Elec       q    Type
REMARK                         _______ _______ _______ _____ _____    ______ ____
ROOT
ATOM      1  N   UNL     1      48.633   5.956  15.175  0.00  0.00    +0.000 NA
ATOM      2  H   UNL     1      49.543   5.490  15.208  0.00  0.00    +0.000 HD
ENDROOT
BRANCH   1   3
ATOM      3  C   UNL     1      48.542   6.879  16.325  0.00  0.00    +0.000 C 
BRANCH   3   4
ATOM      4  C   UNL     1      49.543   6.411  17.378  0.00  0.00    +0.000 A 
ATOM      5  C   UNL     1      50.921   6.543  17.291  0.00  0.00    +0.000 A 
ATOM      6  S   UNL     1      51.749   5.939  18.656  0.00  0.00    +0.000 S 
ATOM      7  C   UNL     1      50.292   5.512  19.422  0.00  0.00    +0.000 A 
ATOM      8  N   UNL     1      50.281   4.949  20.663  0.00  0.00    +0.000 NA
ATOM      9  C   UNL     1      49.102   4.706  21.122  0.00  0.00    +0.000 A 
ATOM     10  N   UNL     1      47.927   4.965  20.459  0.00  0.00    +0.000 N 
ATOM     11  C   UNL     1      47.886   5.536  19.206  0.00  0.00    +0.000 A 
ATOM     12  O   UNL     1      46.821   5.776  18.645  0.00  0.00    +0.000 OA
ATOM     13  C   UNL     1      49.191   5.820  18.644  0.00  0.00    +0.000 A 
ATOM     14  H   UNL     1      47.036   4.756  20.884  0.00  0.00    +0.000 HD
ENDBRANCH   3   4
BRANCH   3  15
ATOM     15  C   UNL     1      48.805   8.373  15.943  0.00  0.00    +0.000 C 
BRANCH  15  16
ATOM     16  N   UNL     1      47.599   9.110  15.539  0.00  0.00    +0.000 NA
ATOM     17  H   UNL     1      47.078   9.411  16.357  0.00  0.00    +0.000 HD
ATOM     18  H   UNL     1      47.006   8.480  14.995  0.00  0.00    +0.000 HD
ENDBRANCH  15  16
ENDBRANCH   3  15
ENDBRANCH   1   3
BRANCH   1  19
ATOM     19  C   UNL     1      47.629   4.887  15.218  0.00  0.00    +0.000 C 
BRANCH  19  20
ATOM     20  C   UNL     1      46.746   4.919  13.983  0.00  0.00    +0.000 A 
ATOM     21  C   UNL     1      46.843   5.979  13.086  0.00  0.00    +0.000 A 
ATOM     22  C   UNL     1      46.052   5.966  11.943  0.00  0.00    +0.000 A 
ATOM     23  C   UNL     1      45.193   4.890  11.703  0.00  0.00    +0.000 A 
ATOM     24  C   UNL     1      45.157   3.880  12.659  0.00  0.00    +0.000 A 
ATOM     25  N   UNL     1      45.903   3.871  13.788  0.00  0.00    +0.000 NA
BRANCH  23  26
ATOM     26  C   UNL     1      44.352   4.828  10.456  0.00  0.00    +0.000 C 
BRANCH  26  27
ATOM     27  N   UNL     1      44.463   3.512   9.828  0.00  0.00    +0.000 NA
ATOM     28  H   UNL     1      43.699   3.394   9.160  0.00  0.00    +0.000 HD
BRANCH  27  29
ATOM     29  C   UNL     1      45.744   3.350   9.128  0.00  0.00    +0.000 C 
BRANCH  29  30
ATOM     30  C   UNL     1      45.539   2.530   7.827  0.00  0.00    +0.000 C 
ATOM     31  C   UNL     1      46.182   3.173   6.611  0.00  0.00    +0.000 C 
ATOM     32  C   UNL     1      47.628   2.726   6.697  0.00  0.00    +0.000 C 
ATOM     33  C   UNL     1      47.577   1.392   7.432  0.00  0.00    +0.000 C 
ATOM     34  N   UNL     1      46.196   1.213   7.888  0.00  0.00    +0.000 NA
ATOM     35  H   UNL     1      46.178   0.893   8.860  0.00  0.00    +0.000 HD
ENDBRANCH  29  30
ENDBRANCH  27  29
ENDBRANCH  26  27
ENDBRANCH  23  26
ENDBRANCH  19  20
ENDBRANCH   1  19
TORSDOF 10
ENDMDL
