MODEL 1
REMARK VINA RESULT:    -8.811      0.000      0.000
REMARK INTER + INTRA:         -13.475
REMARK INTER:                 -13.189
REMARK INTRA:                  -0.285
REMARK UNBOUND:                -0.285
REMARK  Name = 
REMARK  9 active torsions:
REMARK  status: ('A' for Active; 'I' for Inactive)
REMARK    1  A    between atoms: N_1  and  C_2
REMARK    2  A    between atoms: C_2  and  C_3
REMARK    3  A    between atoms: C_3  and  N_4
REMARK    4  A    between atoms: C_3  and  C_25
REMARK    5  A    between atoms: N_4  and  C_5
REMARK    6  A    between atoms: C_5  and  C_6
REMARK    7  A    between atoms: C_9  and  C_10
REMARK    8  A    between atoms: C_10  and  N_11
REMARK    9  A    between atoms: C_12  and  C_14
REMARK                            x       y       z     vdW  Elec       q    Type
REMARK                         _______ _______ _______ _____ _____    ______ ____
ROOT
ATOM      1  C   UNL     1      44.695   5.543  11.461  0.00  0.00    +0.000 A 
ATOM      2  C   UNL     1      45.761   6.256  10.918  0.00  0.00    +0.000 A 
ATOM      3  C   UNL     1      46.830   6.609  11.734  0.00  0.00    +0.000 A 
ATOM      4  C   UNL     1      46.793   6.259  13.082  0.00  0.00    +0.000 A 
ATOM      5  N   UNL     1      45.751   5.596  13.639  0.00  0.00    +0.000 NA
ATOM      6  C   UNL     1      44.737   5.245  12.816  0.00  0.00    +0.000 A 
ENDROOT
BRANCH   1   7
ATOM      7  C   UNL     1      43.503   5.158  10.624  0.00  0.00    +0.000 C 
BRANCH   7   8
ATOM      8  N   UNL     1      43.900   4.596   9.331  0.00  0.00    +0.000 NA
ATOM      9  H   UNL     1      43.119   4.722   8.684  0.00  0.00    +0.000 HD
BRANCH   8  10
ATOM     10  C   UNL     1      44.155   3.139   9.386  0.00  0.00    +0.000 C 
BRANCH  10  11
ATOM     11  C   UNL     1      45.289   2.732   8.452  0.00  0.00    +0.000 A 
ATOM     12  C   UNL     1      45.943   3.713   7.689  0.00  0.00    +0.000 A 
ATOM     13  C   UNL     1      47.047   3.383   6.900  0.00  0.00    +0.000 A 
ATOM     14  C   UNL     1      47.520   2.073   6.872  0.00  0.00    +0.000 A 
ATOM     15  C   UNL     1      46.881   1.088   7.618  0.00  0.00    +0.000 A 
ATOM     16  C   UNL     1      45.772   1.414   8.397  0.00  0.00    +0.000 A 
ENDBRANCH  10  11
BRANCH  10  17
ATOM     17  C   UNL     1      44.295   2.588  10.843  0.00  0.00    +0.000 C 
BRANCH  17  18
ATOM     18  N   UNL     1      43.035   2.091  11.419  0.00  0.00    +0.000 NA
ATOM     19  H   UNL     1      42.965   2.439  12.379  0.00  0.00    +0.000 HD
ATOM     20  H   UNL     1      43.086   1.075  11.505  0.00  0.00    +0.000 HD
ENDBRANCH  17  18
ENDBRANCH  10  17
ENDBRANCH   8  10
ENDBRANCH   7   8
ENDBRANCH   1   7
BRANCH   4  21
ATOM     21  C   UNL     1      47.932   6.631  13.998  0.00  0.00    +0.000 C 
BRANCH  21  22
ATOM     22  N   UNL     1      47.887   5.922  15.260  0.00  0.00    +0.000 N 
ATOM     23  C   UNL     1      49.010   5.865  16.041  0.00  0.00    +0.000 C 
ATOM     24  O   UNL     1      50.034   6.477  15.731  0.00  0.00    +0.000 OA
ATOM     25  H   UNL     1      47.001   5.582  15.598  0.00  0.00    +0.000 HD
BRANCH  23  26
ATOM     26  C   UNL     1      48.980   4.984  17.203  0.00  0.00    +0.000 A 
ATOM     27  C   UNL     1      49.519   3.716  17.375  0.00  0.00    +0.000 A 
ATOM     28  N   UNL     1      49.397   3.379  18.706  0.00  0.00    +0.000 N 
ATOM     29  C   UNL     1      48.794   4.397  19.393  0.00  0.00    +0.000 A 
ATOM     30  N   UNL     1      48.611   4.431  20.726  0.00  0.00    +0.000 NA
ATOM     31  C   UNL     1      47.994   5.568  21.139  0.00  0.00    +0.000 A 
ATOM     32  C   UNL     1      47.520   6.583  20.319  0.00  0.00    +0.000 A 
ATOM     33  C   UNL     1      47.727   6.485  18.949  0.00  0.00    +0.000 A 
ATOM     34  C   UNL     1      48.431   5.366  18.470  0.00  0.00    +0.000 A 
ATOM     35  H   UNL     1      49.735   2.538  19.150  0.00  0.00    +0.000 HD
ENDBRANCH  23  26
ENDBRANCH  21  22
ENDBRANCH   4  21
TORSDOF 9
ENDMDL
MODEL 2
REMARK VINA RESULT:    -8.620      1.515      2.037
REMARK INTER + INTRA:         -13.188
REMARK INTER:                 -12.274
REMARK INTRA:                  -0.915
REMARK UNBOUND:                -0.285
REMARK  Name = 
REMARK  9 active torsions:
REMARK  status: ('A' for Active; 'I' for Inactive)
REMARK    1  A    between atoms: N_1  and  C_2
REMARK    2  A    between atoms: C_2  and  C_3
REMARK    3  A    between atoms: C_3  and  N_4
REMARK    4  A    between atoms: C_3  and  C_25
REMARK    5  A    between atoms: N_4  and  C_5
REMARK    6  A    between atoms: C_5  and  C_6
REMARK    7  A    between atoms: C_9  and  C_10
REMARK    8  A    between atoms: C_10  and  N_11
REMARK    9  A    between atoms: C_12  and  C_14
REMARK                            x       y       z     vdW  Elec       q    Type
REMARK                         _______ _______ _______ _____ _____    ______ ____
ROOT
ATOM      1  C   UNL     1      44.515   6.532  11.771  0.00  0.00    +0.000 A 
ATOM      2  C   UNL     1      44.558   7.904  11.535  0.00  0.00    +0.000 A 
ATOM      3  C   UNL     1      45.536   8.672  12.158  0.00  0.00    +0.000 A 
ATOM      4  C   UNL     1      46.433   8.048  13.022  0.00  0.00    +0.000 A 
ATOM      5  N   UNL     1      46.388   6.721  13.293  0.00  0.00    +0.000 NA
ATOM      6  C   UNL     1      45.442   5.997  12.654  0.00  0.00    +0.000 A 
ENDROOT
BRANCH   1   7
ATOM      7  C   UNL     1      43.460   5.662  11.139  0.00  0.00    +0.000 C 
BRANCH   7   8
ATOM      8  N   UNL     1      43.905   5.103   9.859  0.00  0.00    +0.000 NA
ATOM      9  H   UNL     1      43.206   5.342   9.155  0.00  0.00    +0.000 HD
BRANCH   8  10
ATOM     10  C   UNL     1      43.988   3.625   9.870  0.00  0.00    +0.000 C 
BRANCH  10  11
ATOM     11  C   UNL     1      45.021   3.113   8.873  0.00  0.00    +0.000 A 
ATOM     12  C   UNL     1      45.697   4.026   8.046  0.00  0.00    +0.000 A 
ATOM     13  C   UNL     1      46.716   3.596   7.195  0.00  0.00    +0.000 A 
ATOM     14  C   UNL     1      47.083   2.252   7.165  0.00  0.00    +0.000 A 
ATOM     15  C   UNL     1      46.420   1.334   7.974  0.00  0.00    +0.000 A 
ATOM     16  C   UNL     1      45.395   1.760   8.816  0.00  0.00    +0.000 A 
ENDBRANCH  10  11
BRANCH  10  17
ATOM     17  C   UNL     1      44.128   3.021  11.306  0.00  0.00    +0.000 C 
BRANCH  17  18
ATOM     18  N   UNL     1      43.004   2.158  11.705  0.00  0.00    +0.000 NA
ATOM     19  H   UNL     1      42.814   1.508  10.939  0.00  0.00    +0.000 HD
ATOM     20  H   UNL     1      42.161   2.727  11.789  0.00  0.00    +0.000 HD
ENDBRANCH  17  18
ENDBRANCH  10  17
ENDBRANCH   8  10
ENDBRANCH   7   8
ENDBRANCH   1   7
BRANCH   4  21
ATOM     21  C   UNL     1      47.502   8.850  13.720  0.00  0.00    +0.000 C 
BRANCH  21  22
ATOM     22  N   UNL     1      47.882   8.282  14.997  0.00  0.00    +0.000 N 
ATOM     23  C   UNL     1      49.022   7.530  15.088  0.00  0.00    +0.000 C 
ATOM     24  O   UNL     1      49.778   7.398  14.122  0.00  0.00    +0.000 OA
ATOM     25  H   UNL     1      47.365   8.543  15.821  0.00  0.00    +0.000 HD
BRANCH  23  26
ATOM     26  C   UNL     1      49.265   6.819  16.337  0.00  0.00    +0.000 A 
ATOM     27  C   UNL     1      49.981   7.209  17.461  0.00  0.00    +0.000 A 
ATOM     28  N   UNL     1      49.757   6.279  18.453  0.00  0.00    +0.000 N 
ATOM     29  C   UNL     1      48.915   5.302  17.996  0.00  0.00    +0.000 A 
ATOM     30  N   UNL     1      48.417   4.297  18.741  0.00  0.00    +0.000 NA
ATOM     31  C   UNL     1      47.598   3.479  18.032  0.00  0.00    +0.000 A 
ATOM     32  C   UNL     1      47.323   3.576  16.674  0.00  0.00    +0.000 A 
ATOM     33  C   UNL     1      47.877   4.628  15.956  0.00  0.00    +0.000 A 
ATOM     34  C   UNL     1      48.671   5.554  16.655  0.00  0.00    +0.000 A 
ATOM     35  H   UNL     1      50.105   6.309  19.400  0.00  0.00    +0.000 HD
ENDBRANCH  23  26
ENDBRANCH  21  22
ENDBRANCH   4  21
TORSDOF 9
ENDMDL
MODEL 3
REMARK VINA RESULT:    -8.011      4.628      6.514
REMARK INTER + INTRA:         -12.277
REMARK INTER:                 -11.164
REMARK INTRA:                  -1.113
REMARK UNBOUND:                -0.285
REMARK  Name = 
REMARK  9 active torsions:
REMARK  status: ('A' for Active; 'I' for Inactive)
REMARK    1  A    between atoms: N_1  and  C_2
REMARK    2  A    between atoms: C_2  and  C_3
REMARK    3  A    between atoms: C_3  and  N_4
REMARK    4  A    between atoms: C_3  and  C_25
REMARK    5  A    between atoms: N_4  and  C_5
REMARK    6  A    between atoms: C_5  and  C_6
REMARK    7  A    between atoms: C_9  and  C_10
REMARK    8  A    between atoms: C_10  and  N_11
REMARK    9  A    between atoms: C_12  and  C_14
REMARK                            x       y       z     vdW  Elec       q    Type
REMARK                         _______ _______ _______ _____ _____    ______ ____
ROOT
ATOM      1  C   UNL     1      44.898   6.507  11.660  0.00  0.00    +0.000 A 
ATOM      2  C   UNL     1      46.186   6.029  11.891  0.00  0.00    +0.000 A 
ATOM      3  C   UNL     1      47.195   6.925  12.226  0.00  0.00    +0.000 A 
ATOM      4  C   UNL     1      46.893   8.283  12.298  0.00  0.00    +0.000 A 
ATOM      5  N   UNL     1      45.656   8.774  12.044  0.00  0.00    +0.000 NA
ATOM      6  C   UNL     1      44.690   7.876  11.745  0.00  0.00    +0.000 A 
ENDROOT
BRANCH   1   7
ATOM      7  C   UNL     1      43.777   5.579  11.271  0.00  0.00    +0.000 C 
BRANCH   7   8
ATOM      8  N   UNL     1      43.955   5.039   9.921  0.00  0.00    +0.000 NA
ATOM      9  H   UNL     1      43.126   5.284   9.377  0.00  0.00    +0.000 HD
BRANCH   8  10
ATOM     10  C   UNL     1      44.043   3.562   9.893  0.00  0.00    +0.000 C 
BRANCH  10  11
ATOM     11  C   UNL     1      45.068   3.079   8.874  0.00  0.00    +0.000 A 
ATOM     12  C   UNL     1      45.714   4.013   8.046  0.00  0.00    +0.000 A 
ATOM     13  C   UNL     1      46.727   3.610   7.173  0.00  0.00    +0.000 A 
ATOM     14  C   UNL     1      47.117   2.274   7.123  0.00  0.00    +0.000 A 
ATOM     15  C   UNL     1      46.484   1.335   7.933  0.00  0.00    +0.000 A 
ATOM     16  C   UNL     1      45.465   1.734   8.797  0.00  0.00    +0.000 A 
ENDBRANCH  10  11
BRANCH  10  17
ATOM     17  C   UNL     1      44.198   2.922  11.312  0.00  0.00    +0.000 C 
BRANCH  17  18
ATOM     18  N   UNL     1      43.034   2.131  11.743  0.00  0.00    +0.000 NA
ATOM     19  H   UNL     1      43.355   1.183  11.954  0.00  0.00    +0.000 HD
ATOM     20  H   UNL     1      42.392   2.027  10.957  0.00  0.00    +0.000 HD
ENDBRANCH  17  18
ENDBRANCH  10  17
ENDBRANCH   8  10
ENDBRANCH   7   8
ENDBRANCH   1   7
BRANCH   4  21
ATOM     21  C   UNL     1      47.964   9.284  12.652  0.00  0.00    +0.000 C 
BRANCH  21  22
ATOM     22  N   UNL     1      48.965   9.422  11.615  0.00  0.00    +0.000 N 
ATOM     23  C   UNL     1      50.270   9.117  11.893  0.00  0.00    +0.000 C 
ATOM     24  O   UNL     1      50.596   8.645  12.985  0.00  0.00    +0.000 OA
ATOM     25  H   UNL     1      48.669   9.628  10.674  0.00  0.00    +0.000 HD
BRANCH  23  26
ATOM     26  C   UNL     1      51.270   9.451  10.887  0.00  0.00    +0.000 A 
ATOM     27  C   UNL     1      51.731  10.691  10.465  0.00  0.00    +0.000 A 
ATOM     28  N   UNL     1      52.814  10.484   9.638  0.00  0.00    +0.000 N 
ATOM     29  C   UNL     1      53.062   9.144   9.519  0.00  0.00    +0.000 A 
ATOM     30  N   UNL     1      54.106   8.604   8.863  0.00  0.00    +0.000 NA
ATOM     31  C   UNL     1      54.109   7.248   8.914  0.00  0.00    +0.000 A 
ATOM     32  C   UNL     1      53.135   6.451   9.502  0.00  0.00    +0.000 A 
ATOM     33  C   UNL     1      52.075   7.067  10.153  0.00  0.00    +0.000 A 
ATOM     34  C   UNL     1      52.059   8.472  10.201  0.00  0.00    +0.000 A 
ATOM     35  H   UNL     1      53.391  11.193   9.209  0.00  0.00    +0.000 HD
ENDBRANCH  23  26
ENDBRANCH  21  22
ENDBRANCH   4  21
TORSDOF 9
ENDMDL
MODEL 4
REMARK VINA RESULT:    -7.841      2.251      2.847
REMARK INTER + INTRA:         -12.023
REMARK INTER:                 -11.067
REMARK INTRA:                  -0.957
REMARK UNBOUND:                -0.285
REMARK  Name = 
REMARK  9 active torsions:
REMARK  status: ('A' for Active; 'I' for Inactive)
REMARK    1  A    between atoms: N_1  and  C_2
REMARK    2  A    between atoms: C_2  and  C_3
REMARK    3  A    between atoms: C_3  and  N_4
REMARK    4  A    between atoms: C_3  and  C_25
REMARK    5  A    between atoms: N_4  and  C_5
REMARK    6  A    between atoms: C_5  and  C_6
REMARK    7  A    between atoms: C_9  and  C_10
REMARK    8  A    between atoms: C_10  and  N_11
REMARK    9  A    between atoms: C_12  and  C_14
REMARK                            x       y       z     vdW  Elec       q    Type
REMARK                         _______ _______ _______ _____ _____    ______ ____
ROOT
ATOM      1  C   UNL     1      45.376   6.492  12.086  0.00  0.00    +0.000 A 
ATOM      2  C   UNL     1      46.566   5.836  12.392  0.00  0.00    +0.000 A 
ATOM      3  C   UNL     1      47.556   6.513  13.094  0.00  0.00    +0.000 A 
ATOM      4  C   UNL     1      47.339   7.842  13.452  0.00  0.00    +0.000 A 
ATOM      5  N   UNL     1      46.203   8.510  13.136  0.00  0.00    +0.000 NA
ATOM      6  C   UNL     1      45.249   7.818  12.474  0.00  0.00    +0.000 A 
ENDROOT
BRANCH   1   7
ATOM      7  C   UNL     1      44.283   5.809  11.306  0.00  0.00    +0.000 C 
BRANCH   7   8
ATOM      8  N   UNL     1      44.780   5.233  10.053  0.00  0.00    +0.000 NA
ATOM      9  H   UNL     1      44.331   5.730   9.283  0.00  0.00    +0.000 HD
BRANCH   8  10
ATOM     10  C   UNL     1      44.422   3.807   9.888  0.00  0.00    +0.000 C 
BRANCH  10  11
ATOM     11  C   UNL     1      45.267   3.136   8.812  0.00  0.00    +0.000 A 
ATOM     12  C   UNL     1      45.864   3.921   7.811  0.00  0.00    +0.000 A 
ATOM     13  C   UNL     1      46.723   3.346   6.872  0.00  0.00    +0.000 A 
ATOM     14  C   UNL     1      47.006   1.983   6.926  0.00  0.00    +0.000 A 
ATOM     15  C   UNL     1      46.420   1.190   7.908  0.00  0.00    +0.000 A 
ATOM     16  C   UNL     1      45.554   1.761   8.839  0.00  0.00    +0.000 A 
ENDBRANCH  10  11
BRANCH  10  17
ATOM     17  C   UNL     1      44.361   3.021  11.239  0.00  0.00    +0.000 C 
BRANCH  17  18
ATOM     18  N   UNL     1      43.063   2.375  11.499  0.00  0.00    +0.000 NA
ATOM     19  H   UNL     1      42.723   2.700  12.407  0.00  0.00    +0.000 HD
ATOM     20  H   UNL     1      43.207   1.371  11.609  0.00  0.00    +0.000 HD
ENDBRANCH  17  18
ENDBRANCH  10  17
ENDBRANCH   8  10
ENDBRANCH   7   8
ENDBRANCH   1   7
BRANCH   4  21
ATOM     21  C   UNL     1      48.393   8.610  14.210  0.00  0.00    +0.000 C 
BRANCH  21  22
ATOM     22  N   UNL     1      49.551   7.801  14.528  0.00  0.00    +0.000 N 
ATOM     23  C   UNL     1      49.903   7.614  15.837  0.00  0.00    +0.000 C 
ATOM     24  O   UNL     1      49.204   8.049  16.755  0.00  0.00    +0.000 OA
ATOM     25  H   UNL     1      50.012   7.295  13.789  0.00  0.00    +0.000 HD
BRANCH  23  26
ATOM     26  C   UNL     1      51.178   6.960  16.107  0.00  0.00    +0.000 A 
ATOM     27  C   UNL     1      52.473   7.395  15.861  0.00  0.00    +0.000 A 
ATOM     28  N   UNL     1      53.341   6.515  16.470  0.00  0.00    +0.000 N 
ATOM     29  C   UNL     1      52.638   5.526  17.102  0.00  0.00    +0.000 A 
ATOM     30  N   UNL     1      53.176   4.562  17.872  0.00  0.00    +0.000 NA
ATOM     31  C   UNL     1      52.242   3.720  18.382  0.00  0.00    +0.000 A 
ATOM     32  C   UNL     1      50.879   3.755  18.117  0.00  0.00    +0.000 A 
ATOM     33  C   UNL     1      50.385   4.767  17.304  0.00  0.00    +0.000 A 
ATOM     34  C   UNL     1      51.296   5.718  16.810  0.00  0.00    +0.000 A 
ATOM     35  H   UNL     1      54.348   6.586  16.507  0.00  0.00    +0.000 HD
ENDBRANCH  23  26
ENDBRANCH  21  22
ENDBRANCH   4  21
TORSDOF 9
ENDMDL
MODEL 5
REMARK VINA RESULT:    -7.759      1.368      1.665
REMARK INTER + INTRA:         -11.900
REMARK INTER:                 -11.132
REMARK INTRA:                  -0.768
REMARK UNBOUND:                -0.285
REMARK  Name = 
REMARK  9 active torsions:
REMARK  status: ('A' for Active; 'I' for Inactive)
REMARK    1  A    between atoms: N_1  and  C_2
REMARK    2  A    between atoms: C_2  and  C_3
REMARK    3  A    between atoms: C_3  and  N_4
REMARK    4  A    between atoms: C_3  and  C_25
REMARK    5  A    between atoms: N_4  and  C_5
REMARK    6  A    between atoms: C_5  and  C_6
REMARK    7  A    between atoms: C_9  and  C_10
REMARK    8  A    between atoms: C_10  and  N_11
REMARK    9  A    between atoms: C_12  and  C_14
REMARK                            x       y       z     vdW  Elec       q    Type
REMARK                         _______ _______ _______ _____ _____    ______ ____
ROOT
ATOM      1  C   UNL     1      45.070   6.246  12.055  0.00  0.00    +0.000 A 
ATOM      2  C   UNL     1      45.220   7.630  12.107  0.00  0.00    +0.000 A 
ATOM      3  C   UNL     1      46.307   8.172  12.784  0.00  0.00    +0.000 A 
ATOM      4  C   UNL     1      47.204   7.313  13.414  0.00  0.00    +0.000 A 
ATOM      5  N   UNL     1      47.059   5.966  13.406  0.00  0.00    +0.000 NA
ATOM      6  C   UNL     1      46.007   5.467  12.719  0.00  0.00    +0.000 A 
ENDROOT
BRANCH   1   7
ATOM      7  C   UNL     1      43.897   5.611  11.354  0.00  0.00    +0.000 C 
BRANCH   7   8
ATOM      8  N   UNL     1      44.250   5.138  10.013  0.00  0.00    +0.000 NA
ATOM      9  H   UNL     1      43.564   5.517   9.359  0.00  0.00    +0.000 HD
BRANCH   8  10
ATOM     10  C   UNL     1      44.174   3.665   9.880  0.00  0.00    +0.000 C 
BRANCH  10  11
ATOM     11  C   UNL     1      45.210   3.137   8.895  0.00  0.00    +0.000 A 
ATOM     12  C   UNL     1      45.494   1.761   8.861  0.00  0.00    +0.000 A 
ATOM     13  C   UNL     1      46.364   1.236   7.903  0.00  0.00    +0.000 A 
ATOM     14  C   UNL     1      46.955   2.076   6.961  0.00  0.00    +0.000 A 
ATOM     15  C   UNL     1      46.689   3.441   6.984  0.00  0.00    +0.000 A 
ATOM     16  C   UNL     1      45.828   3.967   7.945  0.00  0.00    +0.000 A 
ENDBRANCH  10  11
BRANCH  10  17
ATOM     17  C   UNL     1      44.154   2.917  11.253  0.00  0.00    +0.000 C 
BRANCH  17  18
ATOM     18  N   UNL     1      42.971   2.065  11.454  0.00  0.00    +0.000 NA
ATOM     19  H   UNL     1      42.445   2.434  12.250  0.00  0.00    +0.000 HD
ATOM     20  H   UNL     1      43.276   1.134  11.741  0.00  0.00    +0.000 HD
ENDBRANCH  17  18
ENDBRANCH  10  17
ENDBRANCH   8  10
ENDBRANCH   7   8
ENDBRANCH   1   7
BRANCH   4  21
ATOM     21  C   UNL     1      48.391   7.866  14.163  0.00  0.00    +0.000 C 
BRANCH  21  22
ATOM     22  N   UNL     1      48.776   7.038  15.287  0.00  0.00    +0.000 N 
ATOM     23  C   UNL     1      49.177   7.630  16.455  0.00  0.00    +0.000 C 
ATOM     24  O   UNL     1      49.133   8.854  16.596  0.00  0.00    +0.000 OA
ATOM     25  H   UNL     1      48.634   6.042  15.232  0.00  0.00    +0.000 HD
BRANCH  23  26
ATOM     26  C   UNL     1      49.738   6.771  17.490  0.00  0.00    +0.000 A 
ATOM     27  C   UNL     1      51.037   6.309  17.658  0.00  0.00    +0.000 A 
ATOM     28  N   UNL     1      51.113   5.692  18.888  0.00  0.00    +0.000 N 
ATOM     29  C   UNL     1      49.899   5.747  19.515  0.00  0.00    +0.000 A 
ATOM     30  N   UNL     1      49.654   5.324  20.769  0.00  0.00    +0.000 NA
ATOM     31  C   UNL     1      48.361   5.509  21.139  0.00  0.00    +0.000 A 
ATOM     32  C   UNL     1      47.345   6.007  20.334  0.00  0.00    +0.000 A 
ATOM     33  C   UNL     1      47.657   6.415  19.044  0.00  0.00    +0.000 A 
ATOM     34  C   UNL     1      48.998   6.321  18.631  0.00  0.00    +0.000 A 
ATOM     35  H   UNL     1      51.937   5.294  19.314  0.00  0.00    +0.000 HD
ENDBRANCH  23  26
ENDBRANCH  21  22
ENDBRANCH   4  21
TORSDOF 9
ENDMDL
MODEL 6
REMARK VINA RESULT:    -7.642      3.261      5.410
REMARK INTER + INTRA:         -11.725
REMARK INTER:                 -10.411
REMARK INTRA:                  -1.313
REMARK UNBOUND:                -0.285
REMARK  Name = 
REMARK  9 active torsions:
REMARK  status: ('A' for Active; 'I' for Inactive)
REMARK    1  A    between atoms: N_1  and  C_2
REMARK    2  A    between atoms: C_2  and  C_3
REMARK    3  A    between atoms: C_3  and  N_4
REMARK    4  A    between atoms: C_3  and  C_25
REMARK    5  A    between atoms: N_4  and  C_5
REMARK    6  A    between atoms: C_5  and  C_6
REMARK    7  A    between atoms: C_9  and  C_10
REMARK    8  A    between atoms: C_10  and  N_11
REMARK    9  A    between atoms: C_12  and  C_14
REMARK                            x       y       z     vdW  Elec       q    Type
REMARK                         _______ _______ _______ _____ _____    ______ ____
ROOT
ATOM      1  C   UNL     1      47.629   5.984  14.384  0.00  0.00    +0.000 A 
ATOM      2  C   UNL     1      46.966   4.770  14.224  0.00  0.00    +0.000 A 
ATOM      3  C   UNL     1      47.080   3.796  15.210  0.00  0.00    +0.000 A 
ATOM      4  C   UNL     1      47.878   4.055  16.322  0.00  0.00    +0.000 A 
ATOM      5  N   UNL     1      48.560   5.215  16.483  0.00  0.00    +0.000 NA
ATOM      6  C   UNL     1      48.410   6.152  15.519  0.00  0.00    +0.000 A 
ENDROOT
BRANCH   1   7
ATOM      7  C   UNL     1      47.556   7.061  13.333  0.00  0.00    +0.000 C 
BRANCH   7   8
ATOM      8  N   UNL     1      46.244   7.714  13.308  0.00  0.00    +0.000 NA
ATOM      9  H   UNL     1      45.657   7.258  14.007  0.00  0.00    +0.000 HD
BRANCH   8  10
ATOM     10  C   UNL     1      45.542   7.556  12.014  0.00  0.00    +0.000 C 
BRANCH  10  11
ATOM     11  C   UNL     1      44.820   6.217  11.928  0.00  0.00    +0.000 A 
ATOM     12  C   UNL     1      45.204   5.285  10.949  0.00  0.00    +0.000 A 
ATOM     13  C   UNL     1      44.627   4.014  10.910  0.00  0.00    +0.000 A 
ATOM     14  C   UNL     1      43.667   3.652  11.853  0.00  0.00    +0.000 A 
ATOM     15  C   UNL     1      43.272   4.564  12.826  0.00  0.00    +0.000 A 
ATOM     16  C   UNL     1      43.839   5.837  12.859  0.00  0.00    +0.000 A 
ENDBRANCH  10  11
BRANCH  10  17
ATOM     17  C   UNL     1      44.657   8.787  11.633  0.00  0.00    +0.000 C 
BRANCH  17  18
ATOM     18  N   UNL     1      44.613   9.836  12.665  0.00  0.00    +0.000 NA
ATOM     19  H   UNL     1      45.492   9.806  13.187  0.00  0.00    +0.000 HD
ATOM     20  H   UNL     1      43.889   9.604  13.345  0.00  0.00    +0.000 HD
ENDBRANCH  17  18
ENDBRANCH  10  17
ENDBRANCH   8  10
ENDBRANCH   7   8
ENDBRANCH   1   7
BRANCH   4  21
ATOM     21  C   UNL     1      48.031   3.020  17.409  0.00  0.00    +0.000 C 
BRANCH  21  22
ATOM     22  N   UNL     1      49.406   2.855  17.833  0.00  0.00    +0.000 N 
ATOM     23  C   UNL     1      50.259   2.099  17.075  0.00  0.00    +0.000 C 
ATOM     24  O   UNL     1      49.903   1.627  15.993  0.00  0.00    +0.000 OA
ATOM     25  H   UNL     1      49.743   3.391  18.616  0.00  0.00    +0.000 HD
BRANCH  23  26
ATOM     26  C   UNL     1      51.572   1.799  17.633  0.00  0.00    +0.000 A 
ATOM     27  C   UNL     1      52.159   0.575  17.924  0.00  0.00    +0.000 A 
ATOM     28  N   UNL     1      53.479   0.802  18.249  0.00  0.00    +0.000 N 
ATOM     29  C   UNL     1      53.755   2.140  18.174  0.00  0.00    +0.000 A 
ATOM     30  N   UNL     1      54.973   2.690  18.335  0.00  0.00    +0.000 NA
ATOM     31  C   UNL     1      54.958   4.040  18.197  0.00  0.00    +0.000 A 
ATOM     32  C   UNL     1      53.833   4.826  17.983  0.00  0.00    +0.000 A 
ATOM     33  C   UNL     1      52.602   4.201  17.837  0.00  0.00    +0.000 A 
ATOM     34  C   UNL     1      52.567   2.796  17.892  0.00  0.00    +0.000 A 
ATOM     35  H   UNL     1      54.176   0.105  18.466  0.00  0.00    +0.000 HD
ENDBRANCH  23  26
ENDBRANCH  21  22
ENDBRANCH   4  21
TORSDOF 9
ENDMDL
MODEL 7
REMARK VINA RESULT:    -7.561      2.538      3.757
REMARK INTER + INTRA:         -11.603
REMARK INTER:                 -10.817
REMARK INTRA:                  -0.786
REMARK UNBOUND:                -0.285
REMARK  Name = 
REMARK  9 active torsions:
REMARK  status: ('A' for Active; 'I' for Inactive)
REMARK    1  A    between atoms: N_1  and  C_2
REMARK    2  A    between atoms: C_2  and  C_3
REMARK    3  A    between atoms: C_3  and  N_4
REMARK    4  A    between atoms: C_3  and  C_25
REMARK    5  A    between atoms: N_4  and  C_5
REMARK    6  A    between atoms: C_5  and  C_6
REMARK    7  A    between atoms: C_9  and  C_10
REMARK    8  A    between atoms: C_10  and  N_11
REMARK    9  A    between atoms: C_12  and  C_14
REMARK                            x       y       z     vdW  Elec       q    Type
REMARK                         _______ _______ _______ _____ _____    ______ ____
ROOT
ATOM      1  C   UNL     1      46.807   5.066  13.515  0.00  0.00    +0.000 A 
ATOM      2  C   UNL     1      47.493   6.257  13.288  0.00  0.00    +0.000 A 
ATOM      3  C   UNL     1      48.319   6.768  14.282  0.00  0.00    +0.000 A 
ATOM      4  C   UNL     1      48.418   6.085  15.492  0.00  0.00    +0.000 A 
ATOM      5  N   UNL     1      47.734   4.943  15.748  0.00  0.00    +0.000 NA
ATOM      6  C   UNL     1      46.958   4.458  14.753  0.00  0.00    +0.000 A 
ENDROOT
BRANCH   1   7
ATOM      7  C   UNL     1      45.882   4.485  12.478  0.00  0.00    +0.000 C 
BRANCH   7   8
ATOM      8  N   UNL     1      45.374   5.508  11.561  0.00  0.00    +0.000 NA
ATOM      9  H   UNL     1      44.928   6.235  12.122  0.00  0.00    +0.000 HD
BRANCH   8  10
ATOM     10  C   UNL     1      44.330   4.998  10.644  0.00  0.00    +0.000 C 
BRANCH  10  11
ATOM     11  C   UNL     1      44.907   4.031   9.617  0.00  0.00    +0.000 A 
ATOM     12  C   UNL     1      45.703   4.526   8.571  0.00  0.00    +0.000 A 
ATOM     13  C   UNL     1      46.325   3.654   7.675  0.00  0.00    +0.000 A 
ATOM     14  C   UNL     1      46.169   2.277   7.817  0.00  0.00    +0.000 A 
ATOM     15  C   UNL     1      45.380   1.770   8.845  0.00  0.00    +0.000 A 
ATOM     16  C   UNL     1      44.750   2.640   9.734  0.00  0.00    +0.000 A 
ENDBRANCH  10  11
BRANCH  10  17
ATOM     17  C   UNL     1      43.059   4.465  11.384  0.00  0.00    +0.000 C 
BRANCH  17  18
ATOM     18  N   UNL     1      42.490   5.414  12.355  0.00  0.00    +0.000 NA
ATOM     19  H   UNL     1      43.162   5.533  13.116  0.00  0.00    +0.000 HD
ATOM     20  H   UNL     1      41.666   4.993  12.788  0.00  0.00    +0.000 HD
ENDBRANCH  17  18
ENDBRANCH  10  17
ENDBRANCH   8  10
ENDBRANCH   7   8
ENDBRANCH   1   7
BRANCH   4  21
ATOM     21  C   UNL     1      49.300   6.613  16.596  0.00  0.00    +0.000 C 
BRANCH  21  22
ATOM     22  N   UNL     1      50.419   5.740  16.882  0.00  0.00    +0.000 N 
ATOM     23  C   UNL     1      50.639   5.324  18.167  0.00  0.00    +0.000 C 
ATOM     24  O   UNL     1      49.852   5.609  19.073  0.00  0.00    +0.000 OA
ATOM     25  H   UNL     1      50.951   5.359  16.115  0.00  0.00    +0.000 HD
BRANCH  23  26
ATOM     26  C   UNL     1      51.879   4.610  18.443  0.00  0.00    +0.000 A 
ATOM     27  C   UNL     1      53.014   5.024  19.129  0.00  0.00    +0.000 A 
ATOM     28  N   UNL     1      53.836   3.930  19.293  0.00  0.00    +0.000 N 
ATOM     29  C   UNL     1      53.259   2.824  18.731  0.00  0.00    +0.000 A 
ATOM     30  N   UNL     1      53.752   1.573  18.799  0.00  0.00    +0.000 NA
ATOM     31  C   UNL     1      52.968   0.668  18.161  0.00  0.00    +0.000 A 
ATOM     32  C   UNL     1      51.814   0.950  17.443  0.00  0.00    +0.000 A 
ATOM     33  C   UNL     1      51.362   2.263  17.398  0.00  0.00    +0.000 A 
ATOM     34  C   UNL     1      52.090   3.234  18.107  0.00  0.00    +0.000 A 
ATOM     35  H   UNL     1      54.714   3.903  19.790  0.00  0.00    +0.000 HD
ENDBRANCH  23  26
ENDBRANCH  21  22
ENDBRANCH   4  21
TORSDOF 9
ENDMDL
MODEL 8
REMARK VINA RESULT:    -7.482      2.003      2.641
REMARK INTER + INTRA:         -11.486
REMARK INTER:                 -10.596
REMARK INTRA:                  -0.890
REMARK UNBOUND:                -0.285
REMARK  Name = 
REMARK  9 active torsions:
REMARK  status: ('A' for Active; 'I' for Inactive)
REMARK    1  A    between atoms: N_1  and  C_2
REMARK    2  A    between atoms: C_2  and  C_3
REMARK    3  A    between atoms: C_3  and  N_4
REMARK    4  A    between atoms: C_3  and  C_25
REMARK    5  A    between atoms: N_4  and  C_5
REMARK    6  A    between atoms: C_5  and  C_6
REMARK    7  A    between atoms: C_9  and  C_10
REMARK    8  A    between atoms: C_10  and  N_11
REMARK    9  A    between atoms: C_12  and  C_14
REMARK                            x       y       z     vdW  Elec       q    Type
REMARK                         _______ _______ _______ _____ _____    ______ ____
ROOT
ATOM      1  C   UNL     1      45.689   5.949  12.518  0.00  0.00    +0.000 A 
ATOM      2  C   UNL     1      46.091   7.282  12.456  0.00  0.00    +0.000 A 
ATOM      3  C   UNL     1      47.232   7.682  13.142  0.00  0.00    +0.000 A 
ATOM      4  C   UNL     1      47.931   6.740  13.893  0.00  0.00    +0.000 A 
ATOM      5  N   UNL     1      47.541   5.446  13.995  0.00  0.00    +0.000 NA
ATOM      6  C   UNL     1      46.441   5.081  13.298  0.00  0.00    +0.000 A 
ENDROOT
BRANCH   1   7
ATOM      7  C   UNL     1      44.447   5.472  11.813  0.00  0.00    +0.000 C 
BRANCH   7   8
ATOM      8  N   UNL     1      44.699   5.170  10.401  0.00  0.00    +0.000 NA
ATOM      9  H   UNL     1      44.067   5.745   9.842  0.00  0.00    +0.000 HD
BRANCH   8  10
ATOM     10  C   UNL     1      44.398   3.765  10.046  0.00  0.00    +0.000 C 
BRANCH  10  11
ATOM     11  C   UNL     1      45.338   3.245   8.965  0.00  0.00    +0.000 A 
ATOM     12  C   UNL     1      45.615   1.870   8.890  0.00  0.00    +0.000 A 
ATOM     13  C   UNL     1      46.393   1.354   7.852  0.00  0.00    +0.000 A 
ATOM     14  C   UNL     1      46.897   2.203   6.868  0.00  0.00    +0.000 A 
ATOM     15  C   UNL     1      46.637   3.568   6.930  0.00  0.00    +0.000 A 
ATOM     16  C   UNL     1      45.869   4.085   7.972  0.00  0.00    +0.000 A 
ENDBRANCH  10  11
BRANCH  10  17
ATOM     17  C   UNL     1      44.268   2.824  11.289  0.00  0.00    +0.000 C 
BRANCH  17  18
ATOM     18  N   UNL     1      42.923   2.255  11.470  0.00  0.00    +0.000 NA
ATOM     19  H   UNL     1      42.442   2.797  12.192  0.00  0.00    +0.000 HD
ATOM     20  H   UNL     1      43.009   1.314  11.855  0.00  0.00    +0.000 HD
ENDBRANCH  17  18
ENDBRANCH  10  17
ENDBRANCH   8  10
ENDBRANCH   7   8
ENDBRANCH   1   7
BRANCH   4  21
ATOM     21  C   UNL     1      49.170   7.139  14.654  0.00  0.00    +0.000 C 
BRANCH  21  22
ATOM     22  N   UNL     1      49.441   6.265  15.777  0.00  0.00    +0.000 N 
ATOM     23  C   UNL     1      49.550   6.797  17.034  0.00  0.00    +0.000 C 
ATOM     24  O   UNL     1      49.337   7.994  17.241  0.00  0.00    +0.000 OA
ATOM     25  H   UNL     1      49.431   5.268  15.635  0.00  0.00    +0.000 HD
BRANCH  23  26
ATOM     26  C   UNL     1      50.012   5.918  18.101  0.00  0.00    +0.000 A 
ATOM     27  C   UNL     1      49.296   5.054  18.918  0.00  0.00    +0.000 A 
ATOM     28  N   UNL     1      50.200   4.299  19.636  0.00  0.00    +0.000 N 
ATOM     29  C   UNL     1      51.477   4.656  19.300  0.00  0.00    +0.000 A 
ATOM     30  N   UNL     1      52.594   4.049  19.745  0.00  0.00    +0.000 NA
ATOM     31  C   UNL     1      53.725   4.605  19.241  0.00  0.00    +0.000 A 
ATOM     32  C   UNL     1      53.789   5.718  18.413  0.00  0.00    +0.000 A 
ATOM     33  C   UNL     1      52.603   6.309  17.999  0.00  0.00    +0.000 A 
ATOM     34  C   UNL     1      51.395   5.728  18.425  0.00  0.00    +0.000 A 
ATOM     35  H   UNL     1      49.986   3.554  20.281  0.00  0.00    +0.000 HD
ENDBRANCH  23  26
ENDBRANCH  21  22
ENDBRANCH   4  21
TORSDOF 9
ENDMDL
MODEL 9
REMARK VINA RESULT:    -7.444      4.212      6.455
REMARK INTER + INTRA:         -11.428
REMARK INTER:                 -10.579
REMARK INTRA:                  -0.850
REMARK UNBOUND:                -0.285
REMARK  Name = 
REMARK  9 active torsions:
REMARK  status: ('A' for Active; 'I' for Inactive)
REMARK    1  A    between atoms: N_1  and  C_2
REMARK    2  A    between atoms: C_2  and  C_3
REMARK    3  A    between atoms: C_3  and  N_4
REMARK    4  A    between atoms: C_3  and  C_25
REMARK    5  A    between atoms: N_4  and  C_5
REMARK    6  A    between atoms: C_5  and  C_6
REMARK    7  A    between atoms: C_9  and  C_10
REMARK    8  A    between atoms: C_10  and  N_11
REMARK    9  A    between atoms: C_12  and  C_14
REMARK                            x       y       z     vdW  Elec       q    Type
REMARK                         _______ _______ _______ _____ _____    ______ ____
ROOT
ATOM      1  C   UNL     1      45.673   6.404  12.447  0.00  0.00    +0.000 A 
ATOM      2  C   UNL     1      45.866   7.732  12.820  0.00  0.00    +0.000 A 
ATOM      3  C   UNL     1      47.112   8.134  13.288  0.00  0.00    +0.000 A 
ATOM      4  C   UNL     1      48.128   7.188  13.394  0.00  0.00    +0.000 A 
ATOM      5  N   UNL     1      47.954   5.884  13.070  0.00  0.00    +0.000 NA
ATOM      6  C   UNL     1      46.739   5.528  12.595  0.00  0.00    +0.000 A 
ENDROOT
BRANCH   1   7
ATOM      7  C   UNL     1      44.335   5.915  11.957  0.00  0.00    +0.000 C 
BRANCH   7   8
ATOM      8  N   UNL     1      44.375   5.531  10.543  0.00  0.00    +0.000 NA
ATOM      9  H   UNL     1      43.608   6.010  10.069  0.00  0.00    +0.000 HD
BRANCH   8  10
ATOM     10  C   UNL     1      44.152   4.084  10.328  0.00  0.00    +0.000 C 
BRANCH  10  11
ATOM     11  C   UNL     1      45.097   3.520   9.275  0.00  0.00    +0.000 A 
ATOM     12  C   UNL     1      45.269   2.129   9.172  0.00  0.00    +0.000 A 
ATOM     13  C   UNL     1      46.052   1.581   8.154  0.00  0.00    +0.000 A 
ATOM     14  C   UNL     1      46.665   2.412   7.219  0.00  0.00    +0.000 A 
ATOM     15  C   UNL     1      46.509   3.792   7.308  0.00  0.00    +0.000 A 
ATOM     16  C   UNL     1      45.737   4.341   8.331  0.00  0.00    +0.000 A 
ENDBRANCH  10  11
BRANCH  10  17
ATOM     17  C   UNL     1      44.105   3.259  11.656  0.00  0.00    +0.000 C 
BRANCH  17  18
ATOM     18  N   UNL     1      42.985   2.307  11.731  0.00  0.00    +0.000 NA
ATOM     19  H   UNL     1      43.007   1.862  12.652  0.00  0.00    +0.000 HD
ATOM     20  H   UNL     1      43.144   1.551  11.064  0.00  0.00    +0.000 HD
ENDBRANCH  17  18
ENDBRANCH  10  17
ENDBRANCH   8  10
ENDBRANCH   7   8
ENDBRANCH   1   7
BRANCH   4  21
ATOM     21  C   UNL     1      49.491   7.586  13.903  0.00  0.00    +0.000 C 
BRANCH  21  22
ATOM     22  N   UNL     1      50.474   7.687  12.845  0.00  0.00    +0.000 N 
ATOM     23  C   UNL     1      51.537   8.538  12.992  0.00  0.00    +0.000 C 
ATOM     24  O   UNL     1      51.719   9.156  14.043  0.00  0.00    +0.000 OA
ATOM     25  H   UNL     1      50.425   7.047  12.069  0.00  0.00    +0.000 HD
BRANCH  23  26
ATOM     26  C   UNL     1      52.393   8.754  11.832  0.00  0.00    +0.000 A 
ATOM     27  C   UNL     1      53.491   8.029  11.386  0.00  0.00    +0.000 A 
ATOM     28  N   UNL     1      53.842   8.511  10.143  0.00  0.00    +0.000 N 
ATOM     29  C   UNL     1      53.000   9.526   9.779  0.00  0.00    +0.000 A 
ATOM     30  N   UNL     1      53.006  10.148   8.586  0.00  0.00    +0.000 NA
ATOM     31  C   UNL     1      52.052  11.110   8.495  0.00  0.00    +0.000 A 
ATOM     32  C   UNL     1      51.187  11.501   9.509  0.00  0.00    +0.000 A 
ATOM     33  C   UNL     1      51.237  10.829  10.723  0.00  0.00    +0.000 A 
ATOM     34  C   UNL     1      52.152   9.768  10.850  0.00  0.00    +0.000 A 
ATOM     35  H   UNL     1      54.573   8.159   9.543  0.00  0.00    +0.000 HD
ENDBRANCH  23  26
ENDBRANCH  21  22
ENDBRANCH   4  21
TORSDOF 9
ENDMDL
