MODEL 1
REMARK VINA RESULT:    -8.519      0.000      0.000
REMARK INTER + INTRA:         -11.689
REMARK INTER:                 -11.009
REMARK INTRA:                  -0.680
REMARK UNBOUND:                -0.680
REMARK  Name = 
REMARK  5 active torsions:
REMARK  status: ('A' for Active; 'I' for Inactive)
REMARK    1  A    between atoms: C_2  and  C_19
REMARK    2  A    between atoms: N_3  and  C_4
REMARK    3  A    between atoms: C_4  and  C_5
REMARK    4  A    between atoms: C_8  and  C_9
REMARK    5  A    between atoms: C_9  and  N_10
REMARK                            x       y       z     vdW  Elec       q    Type
REMARK                         _______ _______ _______ _____ _____    ______ ____
ROOT
ATOM      1  C   UNL     1      47.699   7.071  13.827  0.00  0.00    +0.000 C 
ENDROOT
BRANCH   1   2
ATOM      2  C   UNL     1      47.074   6.157  12.779  0.00  0.00    +0.000 C 
ATOM      3  C   UNL     1      46.323   6.950  11.703  0.00  0.00    +0.000 C 
ATOM      4  C   UNL     1      45.677   6.013  10.688  0.00  0.00    +0.000 C 
ATOM      5  C   UNL     1      44.752   4.999  11.377  0.00  0.00    +0.000 C 
ATOM      6  C   UNL     1      45.511   4.221  12.463  0.00  0.00    +0.000 C 
ATOM      7  C   UNL     1      46.152   5.154  13.476  0.00  0.00    +0.000 C 
BRANCH   5   8
ATOM      8  C   UNL     1      44.150   3.993  10.388  0.00  0.00    +0.000 C 
BRANCH   8   9
ATOM      9  N   UNL     1      44.423   4.382   9.014  0.00  0.00    +0.000 N 
ATOM     10  C   UNL     1      45.325   3.526   8.392  0.00  0.00    +0.000 A 
ATOM     11  N   UNL     1      45.339   2.221   8.702  0.00  0.00    +0.000 NA
ATOM     12  C   UNL     1      46.256   1.454   8.092  0.00  0.00    +0.000 A 
ATOM     13  C   UNL     1      47.154   1.937   7.176  0.00  0.00    +0.000 A 
ATOM     14  C   UNL     1      47.061   3.283   6.923  0.00  0.00    +0.000 A 
ATOM     15  N   UNL     1      46.169   4.094   7.524  0.00  0.00    +0.000 NA
ATOM     16  H   UNL     1      44.813   5.309   8.888  0.00  0.00    +0.000 HD
ENDBRANCH   8   9
ENDBRANCH   5   8
ENDBRANCH   1   2
BRANCH   1  19
ATOM     17  O   UNL     1      48.645   8.215  16.319  0.00  0.00    +0.000 OA
ATOM     18  C   UNL     1      48.747   7.019  16.082  0.00  0.00    +0.000 C 
ATOM     19  N   UNL     1      48.249   6.381  14.964  0.00  0.00    +0.000 N 
ATOM     20  H   UNL     1      48.588   5.449  14.777  0.00  0.00    +0.000 HD
BRANCH  18  21
ATOM     21  C   UNL     1      49.602   6.136  16.858  0.00  0.00    +0.000 A 
ATOM     22  C   UNL     1      50.819   6.550  17.368  0.00  0.00    +0.000 A 
ATOM     23  S   UNL     1      51.838   5.216  17.716  0.00  0.00    +0.000 S 
ATOM     24  C   UNL     1      50.604   4.103  17.332  0.00  0.00    +0.000 A 
ATOM     25  N   UNL     1      50.827   2.762  17.252  0.00  0.00    +0.000 NA
ATOM     26  C   UNL     1      49.769   2.064  16.995  0.00  0.00    +0.000 A 
ATOM     27  N   UNL     1      48.500   2.575  16.857  0.00  0.00    +0.000 N 
ATOM     28  C   UNL     1      48.226   3.919  16.932  0.00  0.00    +0.000 A 
ATOM     29  O   UNL     1      47.083   4.352  16.869  0.00  0.00    +0.000 OA
ATOM     30  C   UNL     1      49.409   4.740  17.092  0.00  0.00    +0.000 A 
ATOM     31  H   UNL     1      47.703   1.965  16.751  0.00  0.00    +0.000 HD
ENDBRANCH  18  21
ENDBRANCH   1  19
TORSDOF 5
ENDMDL
MODEL 2
REMARK VINA RESULT:    -8.035      2.178      2.803
REMARK INTER + INTRA:         -11.064
REMARK INTER:                 -10.199
REMARK INTRA:                  -0.865
REMARK UNBOUND:                -0.680
REMARK  Name = 
REMARK  5 active torsions:
REMARK  status: ('A' for Active; 'I' for Inactive)
REMARK    1  A    between atoms: C_2  and  C_19
REMARK    2  A    between atoms: N_3  and  C_4
REMARK    3  A    between atoms: C_4  and  C_5
REMARK    4  A    between atoms: C_8  and  C_9
REMARK    5  A    between atoms: C_9  and  N_10
REMARK                            x       y       z     vdW  Elec       q    Type
REMARK                         _______ _______ _______ _____ _____    ______ ____
ROOT
ATOM      1  C   UNL     1      47.927   7.476  13.464  0.00  0.00    +0.000 C 
ENDROOT
BRANCH   1   2
ATOM      2  C   UNL     1      47.008   6.669  12.553  0.00  0.00    +0.000 C 
ATOM      3  C   UNL     1      45.815   7.499  12.064  0.00  0.00    +0.000 C 
ATOM      4  C   UNL     1      44.893   6.661  11.185  0.00  0.00    +0.000 C 
ATOM      5  C   UNL     1      44.424   5.395  11.918  0.00  0.00    +0.000 C 
ATOM      6  C   UNL     1      45.627   4.580  12.417  0.00  0.00    +0.000 C 
ATOM      7  C   UNL     1      46.545   5.413  13.295  0.00  0.00    +0.000 C 
BRANCH   5   8
ATOM      8  C   UNL     1      43.559   4.494  11.030  0.00  0.00    +0.000 C 
BRANCH   8   9
ATOM      9  N   UNL     1      43.755   4.800   9.623  0.00  0.00    +0.000 N 
ATOM     10  C   UNL     1      44.609   3.896   8.999  0.00  0.00    +0.000 A 
ATOM     11  N   UNL     1      44.623   2.610   9.382  0.00  0.00    +0.000 NA
ATOM     12  C   UNL     1      45.493   1.795   8.765  0.00  0.00    +0.000 A 
ATOM     13  C   UNL     1      46.341   2.211   7.772  0.00  0.00    +0.000 A 
ATOM     14  C   UNL     1      46.252   3.542   7.449  0.00  0.00    +0.000 A 
ATOM     15  N   UNL     1      45.408   4.401   8.053  0.00  0.00    +0.000 NA
ATOM     16  H   UNL     1      44.150   5.712   9.422  0.00  0.00    +0.000 HD
ENDBRANCH   8   9
ENDBRANCH   5   8
ENDBRANCH   1   2
BRANCH   1  19
ATOM     17  O   UNL     1      50.213   6.820  15.122  0.00  0.00    +0.000 OA
ATOM     18  C   UNL     1      49.067   6.677  15.525  0.00  0.00    +0.000 C 
ATOM     19  N   UNL     1      47.928   7.043  14.837  0.00  0.00    +0.000 N 
ATOM     20  H   UNL     1      47.051   6.673  15.170  0.00  0.00    +0.000 HD
BRANCH  18  21
ATOM     21  C   UNL     1      48.743   5.899  16.709  0.00  0.00    +0.000 A 
ATOM     22  C   UNL     1      48.329   4.582  16.634  0.00  0.00    +0.000 A 
ATOM     23  S   UNL     1      47.489   4.109  18.053  0.00  0.00    +0.000 S 
ATOM     24  C   UNL     1      47.814   5.602  18.809  0.00  0.00    +0.000 A 
ATOM     25  N   UNL     1      47.253   5.958  19.998  0.00  0.00    +0.000 NA
ATOM     26  C   UNL     1      47.647   7.105  20.447  0.00  0.00    +0.000 A 
ATOM     27  N   UNL     1      48.586   7.909  19.844  0.00  0.00    +0.000 N 
ATOM     28  C   UNL     1      49.181   7.591  18.648  0.00  0.00    +0.000 A 
ATOM     29  O   UNL     1      50.060   8.287  18.156  0.00  0.00    +0.000 OA
ATOM     30  C   UNL     1      48.667   6.374  18.055  0.00  0.00    +0.000 A 
ATOM     31  H   UNL     1      48.918   8.748  20.295  0.00  0.00    +0.000 HD
ENDBRANCH  18  21
ENDBRANCH   1  19
TORSDOF 5
ENDMDL
MODEL 3
REMARK VINA RESULT:    -7.904      1.943      2.123
REMARK INTER + INTRA:         -10.895
REMARK INTER:                  -9.971
REMARK INTRA:                  -0.924
REMARK UNBOUND:                -0.680
REMARK  Name = 
REMARK  5 active torsions:
REMARK  status: ('A' for Active; 'I' for Inactive)
REMARK    1  A    between atoms: C_2  and  C_19
REMARK    2  A    between atoms: N_3  and  C_4
REMARK    3  A    between atoms: C_4  and  C_5
REMARK    4  A    between atoms: C_8  and  C_9
REMARK    5  A    between atoms: C_9  and  N_10
REMARK                            x       y       z     vdW  Elec       q    Type
REMARK                         _______ _______ _______ _____ _____    ______ ____
ROOT
ATOM      1  C   UNL     1      48.787   7.207  13.893  0.00  0.00    +0.000 C 
ENDROOT
BRANCH   1   2
ATOM      2  C   UNL     1      47.903   6.339  13.004  0.00  0.00    +0.000 C 
ATOM      3  C   UNL     1      47.169   7.168  11.943  0.00  0.00    +0.000 C 
ATOM      4  C   UNL     1      46.265   6.283  11.091  0.00  0.00    +0.000 C 
ATOM      5  C   UNL     1      45.274   5.497  11.963  0.00  0.00    +0.000 C 
ATOM      6  C   UNL     1      46.020   4.683  13.032  0.00  0.00    +0.000 C 
ATOM      7  C   UNL     1      46.919   5.564  13.882  0.00  0.00    +0.000 C 
BRANCH   5   8
ATOM      8  C   UNL     1      44.406   4.539  11.139  0.00  0.00    +0.000 C 
BRANCH   8   9
ATOM      9  N   UNL     1      44.424   4.896   9.730  0.00  0.00    +0.000 N 
ATOM     10  C   UNL     1      45.123   3.972   8.960  0.00  0.00    +0.000 A 
ATOM     11  N   UNL     1      45.109   2.672   9.291  0.00  0.00    +0.000 NA
ATOM     12  C   UNL     1      45.831   1.836   8.528  0.00  0.00    +0.000 A 
ATOM     13  C   UNL     1      46.558   2.245   7.441  0.00  0.00    +0.000 A 
ATOM     14  C   UNL     1      46.509   3.593   7.181  0.00  0.00    +0.000 A 
ATOM     15  N   UNL     1      45.813   4.471   7.929  0.00  0.00    +0.000 NA
ATOM     16  H   UNL     1      44.844   5.791   9.508  0.00  0.00    +0.000 HD
ENDBRANCH   8   9
ENDBRANCH   5   8
ENDBRANCH   1   2
BRANCH   1  19
ATOM     17  O   UNL     1      50.306   7.926  16.256  0.00  0.00    +0.000 OA
ATOM     18  C   UNL     1      49.122   7.627  16.321  0.00  0.00    +0.000 C 
ATOM     19  N   UNL     1      48.306   7.357  15.241  0.00  0.00    +0.000 N 
ATOM     20  H   UNL     1      47.423   6.909  15.433  0.00  0.00    +0.000 HD
BRANCH  18  21
ATOM     21  C   UNL     1      48.462   7.308  17.576  0.00  0.00    +0.000 A 
ATOM     22  C   UNL     1      47.849   8.274  18.352  0.00  0.00    +0.000 A 
ATOM     23  S   UNL     1      47.675   7.754  19.976  0.00  0.00    +0.000 S 
ATOM     24  C   UNL     1      48.274   6.202  19.602  0.00  0.00    +0.000 A 
ATOM     25  N   UNL     1      48.552   5.274  20.559  0.00  0.00    +0.000 NA
ATOM     26  C   UNL     1      48.954   4.137  20.092  0.00  0.00    +0.000 A 
ATOM     27  N   UNL     1      49.058   3.823  18.758  0.00  0.00    +0.000 N 
ATOM     28  C   UNL     1      48.785   4.723  17.757  0.00  0.00    +0.000 A 
ATOM     29  O   UNL     1      48.823   4.410  16.574  0.00  0.00    +0.000 OA
ATOM     30  C   UNL     1      48.455   6.046  18.247  0.00  0.00    +0.000 A 
ATOM     31  H   UNL     1      49.288   2.886  18.460  0.00  0.00    +0.000 HD
ENDBRANCH  18  21
ENDBRANCH   1  19
TORSDOF 5
ENDMDL
MODEL 4
REMARK VINA RESULT:    -7.896      2.597      4.457
REMARK INTER + INTRA:         -10.884
REMARK INTER:                 -10.111
REMARK INTRA:                  -0.773
REMARK UNBOUND:                -0.680
REMARK  Name = 
REMARK  5 active torsions:
REMARK  status: ('A' for Active; 'I' for Inactive)
REMARK    1  A    between atoms: C_2  and  C_19
REMARK    2  A    between atoms: N_3  and  C_4
REMARK    3  A    between atoms: C_4  and  C_5
REMARK    4  A    between atoms: C_8  and  C_9
REMARK    5  A    between atoms: C_9  and  N_10
REMARK                            x       y       z     vdW  Elec       q    Type
REMARK                         _______ _______ _______ _____ _____    ______ ____
ROOT
ATOM      1  C   UNL     1      47.325   5.244  14.639  0.00  0.00    +0.000 C 
ENDROOT
BRANCH   1   2
ATOM      2  C   UNL     1      46.161   4.958  13.696  0.00  0.00    +0.000 C 
ATOM      3  C   UNL     1      46.202   3.523  13.157  0.00  0.00    +0.000 C 
ATOM      4  C   UNL     1      45.050   3.273  12.189  0.00  0.00    +0.000 C 
ATOM      5  C   UNL     1      45.053   4.296  11.043  0.00  0.00    +0.000 C 
ATOM      6  C   UNL     1      45.028   5.730  11.596  0.00  0.00    +0.000 C 
ATOM      7  C   UNL     1      46.177   5.980  12.558  0.00  0.00    +0.000 C 
BRANCH   5   8
ATOM      8  C   UNL     1      43.859   4.117  10.099  0.00  0.00    +0.000 C 
BRANCH   8   9
ATOM      9  N   UNL     1      44.231   4.404   8.723  0.00  0.00    +0.000 N 
ATOM     10  C   UNL     1      45.194   3.525   8.242  0.00  0.00    +0.000 A 
ATOM     11  N   UNL     1      45.207   2.248   8.653  0.00  0.00    +0.000 NA
ATOM     12  C   UNL     1      46.182   1.459   8.178  0.00  0.00    +0.000 A 
ATOM     13  C   UNL     1      47.140   1.890   7.298  0.00  0.00    +0.000 A 
ATOM     14  C   UNL     1      47.044   3.210   6.933  0.00  0.00    +0.000 A 
ATOM     15  N   UNL     1      46.093   4.044   7.398  0.00  0.00    +0.000 NA
ATOM     16  H   UNL     1      44.614   5.328   8.555  0.00  0.00    +0.000 HD
ENDBRANCH   8   9
ENDBRANCH   5   8
ENDBRANCH   1   2
BRANCH   1  19
ATOM     17  O   UNL     1      49.788   6.207  15.829  0.00  0.00    +0.000 OA
ATOM     18  C   UNL     1      49.138   6.895  15.055  0.00  0.00    +0.000 C 
ATOM     19  N   UNL     1      48.006   6.486  14.380  0.00  0.00    +0.000 N 
ATOM     20  H   UNL     1      47.440   7.203  13.953  0.00  0.00    +0.000 HD
BRANCH  18  21
ATOM     21  C   UNL     1      49.356   8.324  14.903  0.00  0.00    +0.000 A 
ATOM     22  C   UNL     1      49.565   9.156  15.988  0.00  0.00    +0.000 A 
ATOM     23  S   UNL     1      49.223  10.791  15.597  0.00  0.00    +0.000 S 
ATOM     24  C   UNL     1      48.948  10.400  13.960  0.00  0.00    +0.000 A 
ATOM     25  N   UNL     1      48.453  11.300  13.066  0.00  0.00    +0.000 NA
ATOM     26  C   UNL     1      48.353  10.845  11.859  0.00  0.00    +0.000 A 
ATOM     27  N   UNL     1      48.745   9.592  11.451  0.00  0.00    +0.000 N 
ATOM     28  C   UNL     1      49.253   8.652  12.315  0.00  0.00    +0.000 A 
ATOM     29  O   UNL     1      49.655   7.564  11.926  0.00  0.00    +0.000 OA
ATOM     30  C   UNL     1      49.259   9.086  13.698  0.00  0.00    +0.000 A 
ATOM     31  H   UNL     1      48.727   9.333  10.476  0.00  0.00    +0.000 HD
ENDBRANCH  18  21
ENDBRANCH   1  19
TORSDOF 5
ENDMDL
MODEL 5
REMARK VINA RESULT:    -7.542      3.464      9.043
REMARK INTER + INTRA:         -10.427
REMARK INTER:                  -9.878
REMARK INTRA:                  -0.548
REMARK UNBOUND:                -0.680
REMARK  Name = 
REMARK  5 active torsions:
REMARK  status: ('A' for Active; 'I' for Inactive)
REMARK    1  A    between atoms: C_2  and  C_19
REMARK    2  A    between atoms: N_3  and  C_4
REMARK    3  A    between atoms: C_4  and  C_5
REMARK    4  A    between atoms: C_8  and  C_9
REMARK    5  A    between atoms: C_9  and  N_10
REMARK                            x       y       z     vdW  Elec       q    Type
REMARK                         _______ _______ _______ _____ _____    ______ ____
ROOT
ATOM      1  C   UNL     1      47.170   4.129  16.794  0.00  0.00    +0.000 C 
ENDROOT
BRANCH   1   2
ATOM      2  C   UNL     1      48.679   3.910  16.775  0.00  0.00    +0.000 C 
ATOM      3  C   UNL     1      49.060   2.506  17.263  0.00  0.00    +0.000 C 
ATOM      4  C   UNL     1      50.573   2.324  17.269  0.00  0.00    +0.000 C 
ATOM      5  C   UNL     1      51.262   3.409  18.111  0.00  0.00    +0.000 C 
ATOM      6  C   UNL     1      50.861   4.810  17.623  0.00  0.00    +0.000 C 
ATOM      7  C   UNL     1      49.353   4.993  17.619  0.00  0.00    +0.000 C 
BRANCH   5   8
ATOM      8  C   UNL     1      52.790   3.297  18.070  0.00  0.00    +0.000 C 
BRANCH   8   9
ATOM      9  N   UNL     1      53.258   2.207  18.909  0.00  0.00    +0.000 N 
ATOM     10  C   UNL     1      53.916   1.223  18.178  0.00  0.00    +0.000 A 
ATOM     11  N   UNL     1      54.641   1.557  17.100  0.00  0.00    +0.000 NA
ATOM     12  C   UNL     1      55.224   0.559  16.418  0.00  0.00    +0.000 A 
ATOM     13  C   UNL     1      55.121  -0.760  16.777  0.00  0.00    +0.000 A 
ATOM     14  C   UNL     1      54.361  -1.002  17.894  0.00  0.00    +0.000 A 
ATOM     15  N   UNL     1      53.743  -0.034  18.599  0.00  0.00    +0.000 NA
ATOM     16  H   UNL     1      52.542   1.711  19.427  0.00  0.00    +0.000 HD
ENDBRANCH   8   9
ENDBRANCH   5   8
ENDBRANCH   1   2
BRANCH   1  19
ATOM     17  O   UNL     1      47.390   2.953  14.152  0.00  0.00    +0.000 OA
ATOM     18  C   UNL     1      46.851   4.036  14.330  0.00  0.00    +0.000 C 
ATOM     19  N   UNL     1      46.628   4.626  15.557  0.00  0.00    +0.000 N 
ATOM     20  H   UNL     1      46.384   5.605  15.560  0.00  0.00    +0.000 HD
BRANCH  18  21
ATOM     21  C   UNL     1      46.558   4.954  13.241  0.00  0.00    +0.000 A 
ATOM     22  C   UNL     1      47.402   5.999  12.912  0.00  0.00    +0.000 A 
ATOM     23  S   UNL     1      46.577   7.214  12.026  0.00  0.00    +0.000 S 
ATOM     24  C   UNL     1      45.154   6.276  11.959  0.00  0.00    +0.000 A 
ATOM     25  N   UNL     1      43.976   6.766  11.483  0.00  0.00    +0.000 NA
ATOM     26  C   UNL     1      43.014   5.903  11.462  0.00  0.00    +0.000 A 
ATOM     27  N   UNL     1      43.129   4.582  11.828  0.00  0.00    +0.000 N 
ATOM     28  C   UNL     1      44.296   4.042  12.311  0.00  0.00    +0.000 A 
ATOM     29  O   UNL     1      44.399   2.851  12.573  0.00  0.00    +0.000 OA
ATOM     30  C   UNL     1      45.359   5.014  12.466  0.00  0.00    +0.000 A 
ATOM     31  H   UNL     1      42.363   3.938  11.699  0.00  0.00    +0.000 HD
ENDBRANCH  18  21
ENDBRANCH   1  19
TORSDOF 5
ENDMDL
MODEL 6
REMARK VINA RESULT:    -7.479      3.133      4.669
REMARK INTER + INTRA:         -10.345
REMARK INTER:                  -9.626
REMARK INTRA:                  -0.719
REMARK UNBOUND:                -0.680
REMARK  Name = 
REMARK  5 active torsions:
REMARK  status: ('A' for Active; 'I' for Inactive)
REMARK    1  A    between atoms: C_2  and  C_19
REMARK    2  A    between atoms: N_3  and  C_4
REMARK    3  A    between atoms: C_4  and  C_5
REMARK    4  A    between atoms: C_8  and  C_9
REMARK    5  A    between atoms: C_9  and  N_10
REMARK                            x       y       z     vdW  Elec       q    Type
REMARK                         _______ _______ _______ _____ _____    ______ ____
ROOT
ATOM      1  C   UNL     1      47.572   5.881  14.325  0.00  0.00    +0.000 C 
ENDROOT
BRANCH   1   2
ATOM      2  C   UNL     1      46.371   5.529  13.453  0.00  0.00    +0.000 C 
ATOM      3  C   UNL     1      46.233   4.015  13.255  0.00  0.00    +0.000 C 
ATOM      4  C   UNL     1      45.049   3.690  12.351  0.00  0.00    +0.000 C 
ATOM      5  C   UNL     1      45.161   4.418  11.003  0.00  0.00    +0.000 C 
ATOM      6  C   UNL     1      45.316   5.932  11.215  0.00  0.00    +0.000 C 
ATOM      7  C   UNL     1      46.497   6.256  12.113  0.00  0.00    +0.000 C 
BRANCH   5   8
ATOM      8  C   UNL     1      43.944   4.172  10.105  0.00  0.00    +0.000 C 
BRANCH   8   9
ATOM      9  N   UNL     1      44.268   4.404   8.707  0.00  0.00    +0.000 N 
ATOM     10  C   UNL     1      45.206   3.497   8.225  0.00  0.00    +0.000 A 
ATOM     11  N   UNL     1      45.221   2.236   8.684  0.00  0.00    +0.000 NA
ATOM     12  C   UNL     1      46.171   1.419   8.204  0.00  0.00    +0.000 A 
ATOM     13  C   UNL     1      47.100   1.807   7.274  0.00  0.00    +0.000 A 
ATOM     14  C   UNL     1      47.003   3.114   6.864  0.00  0.00    +0.000 A 
ATOM     15  N   UNL     1      46.078   3.975   7.331  0.00  0.00    +0.000 NA
ATOM     16  H   UNL     1      44.654   5.316   8.490  0.00  0.00    +0.000 HD
ENDBRANCH   8   9
ENDBRANCH   5   8
ENDBRANCH   1   2
BRANCH   1  19
ATOM     17  O   UNL     1      48.301   8.467  15.416  0.00  0.00    +0.000 OA
ATOM     18  C   UNL     1      48.679   8.108  14.310  0.00  0.00    +0.000 C 
ATOM     19  N   UNL     1      48.452   6.866  13.752  0.00  0.00    +0.000 N 
ATOM     20  H   UNL     1      48.615   6.769  12.762  0.00  0.00    +0.000 HD
BRANCH  18  21
ATOM     21  C   UNL     1      49.247   9.027  13.338  0.00  0.00    +0.000 A 
ATOM     22  C   UNL     1      48.475   9.957  12.666  0.00  0.00    +0.000 A 
ATOM     23  S   UNL     1      49.244  10.484  11.226  0.00  0.00    +0.000 S 
ATOM     24  C   UNL     1      50.652   9.592  11.586  0.00  0.00    +0.000 A 
ATOM     25  N   UNL     1      51.675   9.450  10.698  0.00  0.00    +0.000 NA
ATOM     26  C   UNL     1      52.683   8.780  11.155  0.00  0.00    +0.000 A 
ATOM     27  N   UNL     1      52.785   8.279  12.432  0.00  0.00    +0.000 N 
ATOM     28  C   UNL     1      51.781   8.400  13.362  0.00  0.00    +0.000 A 
ATOM     29  O   UNL     1      51.912   8.002  14.512  0.00  0.00    +0.000 OA
ATOM     30  C   UNL     1      50.587   9.034  12.841  0.00  0.00    +0.000 A 
ATOM     31  H   UNL     1      53.638   7.847  12.754  0.00  0.00    +0.000 HD
ENDBRANCH  18  21
ENDBRANCH   1  19
TORSDOF 5
ENDMDL
MODEL 7
REMARK VINA RESULT:    -7.354      2.648      3.778
REMARK INTER + INTRA:         -10.184
REMARK INTER:                  -9.512
REMARK INTRA:                  -0.672
REMARK UNBOUND:                -0.680
REMARK  Name = 
REMARK  5 active torsions:
REMARK  status: ('A' for Active; 'I' for Inactive)
REMARK    1  A    between atoms: C_2  and  C_19
REMARK    2  A    between atoms: N_3  and  C_4
REMARK    3  A    between atoms: C_4  and  C_5
REMARK    4  A    between atoms: C_8  and  C_9
REMARK    5  A    between atoms: C_9  and  N_10
REMARK                            x       y       z     vdW  Elec       q    Type
REMARK                         _______ _______ _______ _____ _____    ______ ____
ROOT
ATOM      1  C   UNL     1      47.228   5.266  14.779  0.00  0.00    +0.000 C 
ENDROOT
BRANCH   1   2
ATOM      2  C   UNL     1      46.095   4.861  13.842  0.00  0.00    +0.000 C 
ATOM      3  C   UNL     1      46.440   3.599  13.041  0.00  0.00    +0.000 C 
ATOM      4  C   UNL     1      45.309   3.235  12.086  0.00  0.00    +0.000 C 
ATOM      5  C   UNL     1      44.968   4.407  11.154  0.00  0.00    +0.000 C 
ATOM      6  C   UNL     1      44.639   5.669  11.967  0.00  0.00    +0.000 C 
ATOM      7  C   UNL     1      45.767   6.034  12.917  0.00  0.00    +0.000 C 
BRANCH   5   8
ATOM      8  C   UNL     1      43.780   4.096  10.236  0.00  0.00    +0.000 C 
BRANCH   8   9
ATOM      9  N   UNL     1      44.100   4.385   8.848  0.00  0.00    +0.000 N 
ATOM     10  C   UNL     1      45.060   3.519   8.336  0.00  0.00    +0.000 A 
ATOM     11  N   UNL     1      45.106   2.243   8.750  0.00  0.00    +0.000 NA
ATOM     12  C   UNL     1      46.077   1.467   8.243  0.00  0.00    +0.000 A 
ATOM     13  C   UNL     1      46.997   1.911   7.330  0.00  0.00    +0.000 A 
ATOM     14  C   UNL     1      46.868   3.228   6.965  0.00  0.00    +0.000 A 
ATOM     15  N   UNL     1      45.922   4.049   7.461  0.00  0.00    +0.000 NA
ATOM     16  H   UNL     1      44.463   5.314   8.664  0.00  0.00    +0.000 HD
ENDBRANCH   8   9
ENDBRANCH   5   8
ENDBRANCH   1   2
BRANCH   1  19
ATOM     17  O   UNL     1      49.295   6.517  13.175  0.00  0.00    +0.000 OA
ATOM     18  C   UNL     1      48.632   7.157  13.980  0.00  0.00    +0.000 C 
ATOM     19  N   UNL     1      47.576   6.662  14.718  0.00  0.00    +0.000 N 
ATOM     20  H   UNL     1      47.261   7.216  15.499  0.00  0.00    +0.000 HD
BRANCH  18  21
ATOM     21  C   UNL     1      49.009   8.488  14.424  0.00  0.00    +0.000 A 
ATOM     22  C   UNL     1      48.776   9.614  13.656  0.00  0.00    +0.000 A 
ATOM     23  S   UNL     1      49.795  10.912  14.123  0.00  0.00    +0.000 S 
ATOM     24  C   UNL     1      50.426  10.018  15.431  0.00  0.00    +0.000 A 
ATOM     25  N   UNL     1      51.477  10.458  16.178  0.00  0.00    +0.000 NA
ATOM     26  C   UNL     1      51.793   9.674  17.158  0.00  0.00    +0.000 A 
ATOM     27  N   UNL     1      51.128   8.517  17.491  0.00  0.00    +0.000 N 
ATOM     28  C   UNL     1      50.062   8.037  16.770  0.00  0.00    +0.000 A 
ATOM     29  O   UNL     1      49.443   7.039  17.115  0.00  0.00    +0.000 OA
ATOM     30  C   UNL     1      49.764   8.824  15.590  0.00  0.00    +0.000 A 
ATOM     31  H   UNL     1      51.368   8.002  18.324  0.00  0.00    +0.000 HD
ENDBRANCH  18  21
ENDBRANCH   1  19
TORSDOF 5
ENDMDL
MODEL 8
REMARK VINA RESULT:    -7.134      3.867      8.965
REMARK INTER + INTRA:          -9.899
REMARK INTER:                  -8.882
REMARK INTRA:                  -1.017
REMARK UNBOUND:                -0.680
REMARK  Name = 
REMARK  5 active torsions:
REMARK  status: ('A' for Active; 'I' for Inactive)
REMARK    1  A    between atoms: C_2  and  C_19
REMARK    2  A    between atoms: N_3  and  C_4
REMARK    3  A    between atoms: C_4  and  C_5
REMARK    4  A    between atoms: C_8  and  C_9
REMARK    5  A    between atoms: C_9  and  N_10
REMARK                            x       y       z     vdW  Elec       q    Type
REMARK                         _______ _______ _______ _____ _____    ______ ____
ROOT
ATOM      1  C   UNL     1      47.558   3.911  17.107  0.00  0.00    +0.000 C 
ENDROOT
BRANCH   1   2
ATOM      2  C   UNL     1      49.077   3.785  17.066  0.00  0.00    +0.000 C 
ATOM      3  C   UNL     1      49.533   2.327  17.198  0.00  0.00    +0.000 C 
ATOM      4  C   UNL     1      51.055   2.230  17.191  0.00  0.00    +0.000 C 
ATOM      5  C   UNL     1      51.674   3.107  18.290  0.00  0.00    +0.000 C 
ATOM      6  C   UNL     1      51.197   4.562  18.156  0.00  0.00    +0.000 C 
ATOM      7  C   UNL     1      49.682   4.659  18.166  0.00  0.00    +0.000 C 
BRANCH   5   8
ATOM      8  C   UNL     1      53.206   3.090  18.255  0.00  0.00    +0.000 C 
BRANCH   8   9
ATOM      9  N   UNL     1      53.739   2.024  19.087  0.00  0.00    +0.000 N 
ATOM     10  C   UNL     1      54.180   0.939  18.337  0.00  0.00    +0.000 A 
ATOM     11  N   UNL     1      54.721   1.133  17.125  0.00  0.00    +0.000 NA
ATOM     12  C   UNL     1      55.096   0.044  16.437  0.00  0.00    +0.000 A 
ATOM     13  C   UNL     1      54.965  -1.233  16.917  0.00  0.00    +0.000 A 
ATOM     14  C   UNL     1      54.403  -1.331  18.166  0.00  0.00    +0.000 A 
ATOM     15  N   UNL     1      53.995  -0.267  18.885  0.00  0.00    +0.000 NA
ATOM     16  H   UNL     1      53.093   1.629  19.762  0.00  0.00    +0.000 HD
ENDBRANCH   8   9
ENDBRANCH   5   8
ENDBRANCH   1   2
BRANCH   1  19
ATOM     17  O   UNL     1      47.345   3.154  14.316  0.00  0.00    +0.000 OA
ATOM     18  C   UNL     1      47.010   4.264  14.707  0.00  0.00    +0.000 C 
ATOM     19  N   UNL     1      46.998   4.676  16.024  0.00  0.00    +0.000 N 
ATOM     20  H   UNL     1      46.920   5.667  16.195  0.00  0.00    +0.000 HD
BRANCH  18  21
ATOM     21  C   UNL     1      46.777   5.377  13.802  0.00  0.00    +0.000 A 
ATOM     22  C   UNL     1      45.581   5.540  13.128  0.00  0.00    +0.000 A 
ATOM     23  S   UNL     1      45.770   6.544  11.751  0.00  0.00    +0.000 S 
ATOM     24  C   UNL     1      47.396   6.873  12.146  0.00  0.00    +0.000 A 
ATOM     25  N   UNL     1      48.232   7.545  11.307  0.00  0.00    +0.000 NA
ATOM     26  C   UNL     1      49.416   7.745  11.788  0.00  0.00    +0.000 A 
ATOM     27  N   UNL     1      49.830   7.379  13.047  0.00  0.00    +0.000 N 
ATOM     28  C   UNL     1      49.022   6.704  13.930  0.00  0.00    +0.000 A 
ATOM     29  O   UNL     1      49.384   6.440  15.068  0.00  0.00    +0.000 OA
ATOM     30  C   UNL     1      47.731   6.351  13.374  0.00  0.00    +0.000 A 
ATOM     31  H   UNL     1      50.737   7.649  13.395  0.00  0.00    +0.000 HD
ENDBRANCH  18  21
ENDBRANCH   1  19
TORSDOF 5
ENDMDL
MODEL 9
REMARK VINA RESULT:    -6.262      3.559      9.207
REMARK INTER + INTRA:          -8.772
REMARK INTER:                  -7.980
REMARK INTRA:                  -0.793
REMARK UNBOUND:                -0.680
REMARK  Name = 
REMARK  5 active torsions:
REMARK  status: ('A' for Active; 'I' for Inactive)
REMARK    1  A    between atoms: C_2  and  C_19
REMARK    2  A    between atoms: N_3  and  C_4
REMARK    3  A    between atoms: C_4  and  C_5
REMARK    4  A    between atoms: C_8  and  C_9
REMARK    5  A    between atoms: C_9  and  N_10
REMARK                            x       y       z     vdW  Elec       q    Type
REMARK                         _______ _______ _______ _____ _____    ______ ____
ROOT
ATOM      1  C   UNL     1      47.150   3.915  16.771  0.00  0.00    +0.000 C 
ENDROOT
BRANCH   1   2
ATOM      2  C   UNL     1      48.582   4.391  16.995  0.00  0.00    +0.000 C 
ATOM      3  C   UNL     1      49.491   3.256  17.483  0.00  0.00    +0.000 C 
ATOM      4  C   UNL     1      50.907   3.763  17.734  0.00  0.00    +0.000 C 
ATOM      5  C   UNL     1      50.910   4.940  18.721  0.00  0.00    +0.000 C 
ATOM      6  C   UNL     1      49.983   6.063  18.230  0.00  0.00    +0.000 C 
ATOM      7  C   UNL     1      48.572   5.559  17.982  0.00  0.00    +0.000 C 
BRANCH   5   8
ATOM      8  C   UNL     1      52.313   5.521  18.931  0.00  0.00    +0.000 C 
BRANCH   8   9
ATOM      9  N   UNL     1      52.348   6.937  18.604  0.00  0.00    +0.000 N 
ATOM     10  C   UNL     1      53.500   7.290  17.909  0.00  0.00    +0.000 A 
ATOM     11  N   UNL     1      54.064   6.422  17.055  0.00  0.00    +0.000 NA
ATOM     12  C   UNL     1      55.193   6.809  16.441  0.00  0.00    +0.000 A 
ATOM     13  C   UNL     1      55.775   8.034  16.636  0.00  0.00    +0.000 A 
ATOM     14  C   UNL     1      55.125   8.853  17.526  0.00  0.00    +0.000 A 
ATOM     15  N   UNL     1      54.000   8.500  18.179  0.00  0.00    +0.000 NA
ATOM     16  H   UNL     1      52.315   7.573  19.393  0.00  0.00    +0.000 HD
ENDBRANCH   8   9
ENDBRANCH   5   8
ENDBRANCH   1   2
BRANCH   1  19
ATOM     17  O   UNL     1      47.462   2.896  14.075  0.00  0.00    +0.000 OA
ATOM     18  C   UNL     1      46.813   3.906  14.308  0.00  0.00    +0.000 C 
ATOM     19  N   UNL     1      46.544   4.410  15.564  0.00  0.00    +0.000 N 
ATOM     20  H   UNL     1      46.197   5.356  15.615  0.00  0.00    +0.000 HD
BRANCH  18  21
ATOM     21  C   UNL     1      46.412   4.837  13.267  0.00  0.00    +0.000 A 
ATOM     22  C   UNL     1      47.147   5.971  12.969  0.00  0.00    +0.000 A 
ATOM     23  S   UNL     1      46.192   7.139  12.154  0.00  0.00    +0.000 S 
ATOM     24  C   UNL     1      44.862   6.075  12.071  0.00  0.00    +0.000 A 
ATOM     25  N   UNL     1      43.633   6.472  11.638  0.00  0.00    +0.000 NA
ATOM     26  C   UNL     1      42.756   5.523  11.596  0.00  0.00    +0.000 A 
ATOM     27  N   UNL     1      43.002   4.205  11.901  0.00  0.00    +0.000 N 
ATOM     28  C   UNL     1      44.225   3.757  12.337  0.00  0.00    +0.000 A 
ATOM     29  O   UNL     1      44.445   2.571  12.545  0.00  0.00    +0.000 OA
ATOM     30  C   UNL     1      45.195   4.817  12.517  0.00  0.00    +0.000 A 
ATOM     31  H   UNL     1      42.297   3.497  11.757  0.00  0.00    +0.000 HD
ENDBRANCH  18  21
ENDBRANCH   1  19
TORSDOF 5
ENDMDL
