MODEL 1
REMARK VINA RESULT:    -8.123      0.000      0.000
REMARK INTER + INTRA:         -11.358
REMARK INTER:                 -10.497
REMARK INTRA:                  -0.861
REMARK UNBOUND:                -0.861
REMARK  Name = 
REMARK  7 active torsions:
REMARK  status: ('A' for Active; 'I' for Inactive)
REMARK    1  A    between atoms: C_1  and  C_2
REMARK    2  A    between atoms: C_2  and  C_3
REMARK    3  A    between atoms: C_6  and  C_7
REMARK    4  A    between atoms: C_7  and  C_8
REMARK    5  A    between atoms: C_7  and  N_9
REMARK    6  A    between atoms: N_9  and  C_10
REMARK    7  A    between atoms: C_13  and  C_14
REMARK                            x       y       z     vdW  Elec       q    Type
REMARK                         _______ _______ _______ _____ _____    ______ ____
ROOT
ATOM      1  N   UNL     1      43.676   4.815   9.823  0.00  0.00    +0.000 N 
ATOM      2  H   UNL     1      43.820   5.774   9.500  0.00  0.00    +0.000 HD
ENDROOT
BRANCH   1   3
ATOM      3  C   UNL     1      44.577   3.972   9.144  0.00  0.00    +0.000 A 
ATOM      4  C   UNL     1      45.562   4.453   8.280  0.00  0.00    +0.000 A 
ATOM      5  C   UNL     1      46.419   3.592   7.605  0.00  0.00    +0.000 A 
ATOM      6  C   UNL     1      46.344   2.240   7.877  0.00  0.00    +0.000 A 
ATOM      7  N   UNL     1      45.469   1.701   8.773  0.00  0.00    +0.000 NA
ATOM      8  C   UNL     1      44.630   2.588   9.385  0.00  0.00    +0.000 A 
BRANCH   6   9
ATOM      9  C   UNL     1      47.289   1.312   7.186  0.00  0.00    +0.000 C 
ATOM     10  N   UNL     1      48.296   1.885   6.472  0.00  0.00    +0.000 N 
ATOM     11  O   UNL     1      47.167   0.083   7.248  0.00  0.00    +0.000 OA
ATOM     12  H   UNL     1      48.359   2.897   6.412  0.00  0.00    +0.000 HD
ATOM     13  H   UNL     1      48.932   1.296   5.956  0.00  0.00    +0.000 HD
ENDBRANCH   6   9
ENDBRANCH   1   3
BRANCH   1  14
ATOM     14  C   UNL     1      43.629   4.786  11.314  0.00  0.00    +0.000 C 
ATOM     15  C   UNL     1      42.438   5.588  11.861  0.00  0.00    +0.000 C 
BRANCH  14  19
ATOM     16  C   UNL     1      47.421   6.396  12.775  0.00  0.00    +0.000 A 
ATOM     17  C   UNL     1      46.934   5.184  13.268  0.00  0.00    +0.000 A 
ATOM     18  C   UNL     1      45.707   4.665  12.828  0.00  0.00    +0.000 A 
ATOM     19  C   UNL     1      44.926   5.368  11.892  0.00  0.00    +0.000 A 
ATOM     20  C   UNL     1      45.382   6.630  11.484  0.00  0.00    +0.000 A 
ATOM     21  C   UNL     1      46.626   7.125  11.890  0.00  0.00    +0.000 A 
BRANCH  16  23
ATOM     22  C   UNL     1      49.539   7.481  11.965  0.00  0.00    +0.000 C 
ATOM     23  C   UNL     1      48.802   6.873  13.153  0.00  0.00    +0.000 C 
ENDBRANCH  16  23
ENDBRANCH  14  19
ENDBRANCH   1  14
TORSDOF 5
ENDMDL
MODEL 2
REMARK VINA RESULT:    -7.897      0.642      1.077
REMARK INTER + INTRA:         -11.066
REMARK INTER:                 -10.275
REMARK INTRA:                  -0.790
REMARK UNBOUND:                -0.861
REMARK  Name = 
REMARK  7 active torsions:
REMARK  status: ('A' for Active; 'I' for Inactive)
REMARK    1  A    between atoms: C_1  and  C_2
REMARK    2  A    between atoms: C_2  and  C_3
REMARK    3  A    between atoms: C_6  and  C_7
REMARK    4  A    between atoms: C_7  and  C_8
REMARK    5  A    between atoms: C_7  and  N_9
REMARK    6  A    between atoms: N_9  and  C_10
REMARK    7  A    between atoms: C_13  and  C_14
REMARK                            x       y       z     vdW  Elec       q    Type
REMARK                         _______ _______ _______ _____ _____    ______ ____
ROOT
ATOM      1  N   UNL     1      43.691   4.779   9.805  0.00  0.00    +0.000 N 
ATOM      2  H   UNL     1      43.865   5.732   9.479  0.00  0.00    +0.000 HD
ENDROOT
BRANCH   1   3
ATOM      3  C   UNL     1      44.602   3.914   9.168  0.00  0.00    +0.000 A 
ATOM      4  C   UNL     1      44.544   2.525   9.294  0.00  0.00    +0.000 A 
ATOM      5  C   UNL     1      45.475   1.700   8.674  0.00  0.00    +0.000 A 
ATOM      6  C   UNL     1      46.415   2.276   7.843  0.00  0.00    +0.000 A 
ATOM      7  N   UNL     1      46.483   3.615   7.598  0.00  0.00    +0.000 NA
ATOM      8  C   UNL     1      45.564   4.382   8.257  0.00  0.00    +0.000 A 
BRANCH   6   9
ATOM      9  C   UNL     1      47.395   1.392   7.140  0.00  0.00    +0.000 C 
ATOM     10  N   UNL     1      48.356   2.011   6.403  0.00  0.00    +0.000 N 
ATOM     11  O   UNL     1      47.338   0.159   7.214  0.00  0.00    +0.000 OA
ATOM     12  H   UNL     1      48.366   3.024   6.335  0.00  0.00    +0.000 HD
ATOM     13  H   UNL     1      49.013   1.452   5.879  0.00  0.00    +0.000 HD
ENDBRANCH   6   9
ENDBRANCH   1   3
BRANCH   1  14
ATOM     14  C   UNL     1      43.586   4.764  11.292  0.00  0.00    +0.000 C 
ATOM     15  C   UNL     1      42.382   5.582  11.785  0.00  0.00    +0.000 C 
BRANCH  14  19
ATOM     16  C   UNL     1      47.336   6.338  12.892  0.00  0.00    +0.000 A 
ATOM     17  C   UNL     1      46.766   5.186  13.439  0.00  0.00    +0.000 A 
ATOM     18  C   UNL     1      45.550   4.682  12.954  0.00  0.00    +0.000 A 
ATOM     19  C   UNL     1      44.864   5.340  11.916  0.00  0.00    +0.000 A 
ATOM     20  C   UNL     1      45.401   6.548  11.448  0.00  0.00    +0.000 A 
ATOM     21  C   UNL     1      46.635   7.026  11.902  0.00  0.00    +0.000 A 
BRANCH  16  23
ATOM     22  C   UNL     1      49.474   7.463  12.197  0.00  0.00    +0.000 C 
ATOM     23  C   UNL     1      48.708   6.790  13.330  0.00  0.00    +0.000 C 
ENDBRANCH  16  23
ENDBRANCH  14  19
ENDBRANCH   1  14
TORSDOF 5
ENDMDL
MODEL 3
REMARK VINA RESULT:    -7.357      3.055      6.139
REMARK INTER + INTRA:         -10.368
REMARK INTER:                 -10.350
REMARK INTRA:                  -0.018
REMARK UNBOUND:                -0.861
REMARK  Name = 
REMARK  7 active torsions:
REMARK  status: ('A' for Active; 'I' for Inactive)
REMARK    1  A    between atoms: C_1  and  C_2
REMARK    2  A    between atoms: C_2  and  C_3
REMARK    3  A    between atoms: C_6  and  C_7
REMARK    4  A    between atoms: C_7  and  C_8
REMARK    5  A    between atoms: C_7  and  N_9
REMARK    6  A    between atoms: N_9  and  C_10
REMARK    7  A    between atoms: C_13  and  C_14
REMARK                            x       y       z     vdW  Elec       q    Type
REMARK                         _______ _______ _______ _____ _____    ______ ____
ROOT
ATOM      1  N   UNL     1      44.002   5.569  10.656  0.00  0.00    +0.000 N 
ATOM      2  H   UNL     1      43.207   6.121  10.984  0.00  0.00    +0.000 HD
ENDROOT
BRANCH   1   3
ATOM      3  C   UNL     1      45.068   5.735  11.561  0.00  0.00    +0.000 A 
ATOM      4  C   UNL     1      46.208   6.481  11.261  0.00  0.00    +0.000 A 
ATOM      5  C   UNL     1      47.255   6.604  12.167  0.00  0.00    +0.000 A 
ATOM      6  C   UNL     1      47.109   6.048  13.423  0.00  0.00    +0.000 A 
ATOM      7  N   UNL     1      45.990   5.380  13.823  0.00  0.00    +0.000 NA
ATOM      8  C   UNL     1      45.005   5.262  12.883  0.00  0.00    +0.000 A 
BRANCH   6   9
ATOM      9  C   UNL     1      48.212   6.211  14.417  0.00  0.00    +0.000 C 
ATOM     10  N   UNL     1      47.919   5.908  15.710  0.00  0.00    +0.000 N 
ATOM     11  O   UNL     1      49.338   6.605  14.090  0.00  0.00    +0.000 OA
ATOM     12  H   UNL     1      46.979   5.614  15.959  0.00  0.00    +0.000 HD
ATOM     13  H   UNL     1      48.623   6.044  16.421  0.00  0.00    +0.000 HD
ENDBRANCH   6   9
ENDBRANCH   1   3
BRANCH   1  14
ATOM     14  C   UNL     1      43.549   4.192  10.305  0.00  0.00    +0.000 C 
ATOM     15  C   UNL     1      43.440   3.295  11.548  0.00  0.00    +0.000 C 
BRANCH  14  19
ATOM     16  C   UNL     1      46.493   2.345   7.654  0.00  0.00    +0.000 A 
ATOM     17  C   UNL     1      46.215   3.710   7.555  0.00  0.00    +0.000 A 
ATOM     18  C   UNL     1      45.255   4.314   8.381  0.00  0.00    +0.000 A 
ATOM     19  C   UNL     1      44.533   3.550   9.317  0.00  0.00    +0.000 A 
ATOM     20  C   UNL     1      44.753   2.165   9.333  0.00  0.00    +0.000 A 
ATOM     21  C   UNL     1      45.741   1.572   8.540  0.00  0.00    +0.000 A 
BRANCH  16  23
ATOM     22  C   UNL     1      47.823   2.448   5.523  0.00  0.00    +0.000 C 
ATOM     23  C   UNL     1      47.621   1.738   6.857  0.00  0.00    +0.000 C 
ENDBRANCH  16  23
ENDBRANCH  14  19
ENDBRANCH   1  14
TORSDOF 5
ENDMDL
MODEL 4
REMARK VINA RESULT:    -7.046      3.700      6.506
REMARK INTER + INTRA:          -9.966
REMARK INTER:                  -9.244
REMARK INTRA:                  -0.722
REMARK UNBOUND:                -0.861
REMARK  Name = 
REMARK  7 active torsions:
REMARK  status: ('A' for Active; 'I' for Inactive)
REMARK    1  A    between atoms: C_1  and  C_2
REMARK    2  A    between atoms: C_2  and  C_3
REMARK    3  A    between atoms: C_6  and  C_7
REMARK    4  A    between atoms: C_7  and  C_8
REMARK    5  A    between atoms: C_7  and  N_9
REMARK    6  A    between atoms: N_9  and  C_10
REMARK    7  A    between atoms: C_13  and  C_14
REMARK                            x       y       z     vdW  Elec       q    Type
REMARK                         _______ _______ _______ _____ _____    ______ ____
ROOT
ATOM      1  N   UNL     1      45.108   4.360  12.445  0.00  0.00    +0.000 N 
ATOM      2  H   UNL     1      45.436   3.399  12.325  0.00  0.00    +0.000 HD
ENDROOT
BRANCH   1   3
ATOM      3  C   UNL     1      46.179   5.144  12.915  0.00  0.00    +0.000 A 
ATOM      4  C   UNL     1      46.517   6.378  12.358  0.00  0.00    +0.000 A 
ATOM      5  C   UNL     1      47.597   7.116  12.829  0.00  0.00    +0.000 A 
ATOM      6  C   UNL     1      48.283   6.650  13.933  0.00  0.00    +0.000 A 
ATOM      7  N   UNL     1      47.960   5.499  14.587  0.00  0.00    +0.000 NA
ATOM      8  C   UNL     1      46.910   4.797  14.065  0.00  0.00    +0.000 A 
BRANCH   6   9
ATOM      9  C   UNL     1      49.419   7.458  14.470  0.00  0.00    +0.000 C 
ATOM     10  N   UNL     1      50.518   7.570  13.675  0.00  0.00    +0.000 N 
ATOM     11  O   UNL     1      49.375   7.996  15.582  0.00  0.00    +0.000 OA
ATOM     12  H   UNL     1      50.543   7.095  12.778  0.00  0.00    +0.000 HD
ATOM     13  H   UNL     1      51.325   8.072  14.016  0.00  0.00    +0.000 HD
ENDBRANCH   6   9
ENDBRANCH   1   3
BRANCH   1  14
ATOM     14  C   UNL     1      44.362   4.795  11.229  0.00  0.00    +0.000 C 
ATOM     15  C   UNL     1      42.860   4.489  11.344  0.00  0.00    +0.000 C 
BRANCH  14  19
ATOM     16  C   UNL     1      46.112   2.700   7.815  0.00  0.00    +0.000 A 
ATOM     17  C   UNL     1      46.149   4.094   7.880  0.00  0.00    +0.000 A 
ATOM     18  C   UNL     1      45.571   4.783   8.957  0.00  0.00    +0.000 A 
ATOM     19  C   UNL     1      44.918   4.084   9.988  0.00  0.00    +0.000 A 
ATOM     20  C   UNL     1      44.802   2.692   9.855  0.00  0.00    +0.000 A 
ATOM     21  C   UNL     1      45.417   2.003   8.805  0.00  0.00    +0.000 A 
BRANCH  16  23
ATOM     22  C   UNL     1      46.957   2.796   5.449  0.00  0.00    +0.000 C 
ATOM     23  C   UNL     1      46.855   1.967   6.725  0.00  0.00    +0.000 C 
ENDBRANCH  16  23
ENDBRANCH  14  19
ENDBRANCH   1  14
TORSDOF 5
ENDMDL
MODEL 5
REMARK VINA RESULT:    -6.881      3.667      6.759
REMARK INTER + INTRA:          -9.753
REMARK INTER:                  -9.044
REMARK INTRA:                  -0.709
REMARK UNBOUND:                -0.861
REMARK  Name = 
REMARK  7 active torsions:
REMARK  status: ('A' for Active; 'I' for Inactive)
REMARK    1  A    between atoms: C_1  and  C_2
REMARK    2  A    between atoms: C_2  and  C_3
REMARK    3  A    between atoms: C_6  and  C_7
REMARK    4  A    between atoms: C_7  and  C_8
REMARK    5  A    between atoms: C_7  and  N_9
REMARK    6  A    between atoms: N_9  and  C_10
REMARK    7  A    between atoms: C_13  and  C_14
REMARK                            x       y       z     vdW  Elec       q    Type
REMARK                         _______ _______ _______ _____ _____    ______ ____
ROOT
ATOM      1  N   UNL     1      45.156   4.654  11.973  0.00  0.00    +0.000 N 
ATOM      2  H   UNL     1      46.054   4.183  11.842  0.00  0.00    +0.000 HD
ENDROOT
BRANCH   1   3
ATOM      3  C   UNL     1      45.379   6.045  12.004  0.00  0.00    +0.000 A 
ATOM      4  C   UNL     1      44.489   6.968  11.453  0.00  0.00    +0.000 A 
ATOM      5  C   UNL     1      44.751   8.332  11.477  0.00  0.00    +0.000 A 
ATOM      6  C   UNL     1      45.875   8.776  12.147  0.00  0.00    +0.000 A 
ATOM      7  N   UNL     1      46.746   7.945  12.785  0.00  0.00    +0.000 NA
ATOM      8  C   UNL     1      46.458   6.612  12.704  0.00  0.00    +0.000 A 
BRANCH   6   9
ATOM      9  C   UNL     1      46.142  10.245  12.212  0.00  0.00    +0.000 C 
ATOM     10  N   UNL     1      47.317  10.627  12.783  0.00  0.00    +0.000 N 
ATOM     11  O   UNL     1      45.339  11.079  11.777  0.00  0.00    +0.000 OA
ATOM     12  H   UNL     1      47.947   9.925  13.158  0.00  0.00    +0.000 HD
ATOM     13  H   UNL     1      47.519  11.610  12.885  0.00  0.00    +0.000 HD
ENDBRANCH   6   9
ENDBRANCH   1   3
BRANCH   1  14
ATOM     14  C   UNL     1      44.150   4.096  11.024  0.00  0.00    +0.000 C 
ATOM     15  C   UNL     1      43.337   2.958  11.662  0.00  0.00    +0.000 C 
BRANCH  14  19
ATOM     16  C   UNL     1      46.320   2.526   7.570  0.00  0.00    +0.000 A 
ATOM     17  C   UNL     1      46.099   3.899   7.698  0.00  0.00    +0.000 A 
ATOM     18  C   UNL     1      45.384   4.417   8.788  0.00  0.00    +0.000 A 
ATOM     19  C   UNL     1      44.851   3.560   9.768  0.00  0.00    +0.000 A 
ATOM     20  C   UNL     1      44.995   2.179   9.570  0.00  0.00    +0.000 A 
ATOM     21  C   UNL     1      45.746   1.666   8.507  0.00  0.00    +0.000 A 
BRANCH  16  23
ATOM     22  C   UNL     1      47.126   2.854   5.211  0.00  0.00    +0.000 C 
ATOM     23  C   UNL     1      47.206   1.996   6.469  0.00  0.00    +0.000 C 
ENDBRANCH  16  23
ENDBRANCH  14  19
ENDBRANCH   1  14
TORSDOF 5
ENDMDL
MODEL 6
REMARK VINA RESULT:    -5.907      4.942      6.637
REMARK INTER + INTRA:          -8.495
REMARK INTER:                  -7.913
REMARK INTRA:                  -0.582
REMARK UNBOUND:                -0.861
REMARK  Name = 
REMARK  7 active torsions:
REMARK  status: ('A' for Active; 'I' for Inactive)
REMARK    1  A    between atoms: C_1  and  C_2
REMARK    2  A    between atoms: C_2  and  C_3
REMARK    3  A    between atoms: C_6  and  C_7
REMARK    4  A    between atoms: C_7  and  C_8
REMARK    5  A    between atoms: C_7  and  N_9
REMARK    6  A    between atoms: N_9  and  C_10
REMARK    7  A    between atoms: C_13  and  C_14
REMARK                            x       y       z     vdW  Elec       q    Type
REMARK                         _______ _______ _______ _____ _____    ______ ____
ROOT
ATOM      1  N   UNL     1      47.620   5.161  15.537  0.00  0.00    +0.000 N 
ATOM      2  H   UNL     1      48.581   5.340  15.241  0.00  0.00    +0.000 HD
ENDROOT
BRANCH   1   3
ATOM      3  C   UNL     1      46.852   4.841  14.399  0.00  0.00    +0.000 A 
ATOM      4  C   UNL     1      46.293   5.809  13.565  0.00  0.00    +0.000 A 
ATOM      5  C   UNL     1      45.518   5.461  12.465  0.00  0.00    +0.000 A 
ATOM      6  C   UNL     1      45.386   4.124  12.149  0.00  0.00    +0.000 A 
ATOM      7  N   UNL     1      45.973   3.121  12.863  0.00  0.00    +0.000 NA
ATOM      8  C   UNL     1      46.698   3.518  13.951  0.00  0.00    +0.000 A 
BRANCH   6   9
ATOM      9  C   UNL     1      44.588   3.742  10.945  0.00  0.00    +0.000 C 
ATOM     10  N   UNL     1      44.595   2.426  10.599  0.00  0.00    +0.000 N 
ATOM     11  O   UNL     1      43.955   4.575  10.285  0.00  0.00    +0.000 OA
ATOM     12  H   UNL     1      45.145   1.765  11.139  0.00  0.00    +0.000 HD
ATOM     13  H   UNL     1      44.104   2.131   9.768  0.00  0.00    +0.000 HD
ENDBRANCH   6   9
ENDBRANCH   1   3
BRANCH   1  14
ATOM     14  C   UNL     1      47.616   4.233  16.705  0.00  0.00    +0.000 C 
ATOM     15  C   UNL     1      47.088   4.920  17.974  0.00  0.00    +0.000 C 
BRANCH  14  19
ATOM     16  C   UNL     1      51.591   2.687  17.658  0.00  0.00    +0.000 A 
ATOM     17  C   UNL     1      51.334   4.058  17.726  0.00  0.00    +0.000 A 
ATOM     18  C   UNL     1      50.070   4.573  17.400  0.00  0.00    +0.000 A 
ATOM     19  C   UNL     1      49.036   3.720  16.974  0.00  0.00    +0.000 A 
ATOM     20  C   UNL     1      49.342   2.360  16.815  0.00  0.00    +0.000 A 
ATOM     21  C   UNL     1      50.588   1.842  17.182  0.00  0.00    +0.000 A 
BRANCH  16  23
ATOM     22  C   UNL     1      53.132   0.701  17.674  0.00  0.00    +0.000 C 
ATOM     23  C   UNL     1      52.909   2.134  18.142  0.00  0.00    +0.000 C 
ENDBRANCH  16  23
ENDBRANCH  14  19
ENDBRANCH   1  14
TORSDOF 5
ENDMDL
MODEL 7
REMARK VINA RESULT:    -5.568      2.924      5.203
REMARK INTER + INTRA:          -8.056
REMARK INTER:                  -7.366
REMARK INTRA:                  -0.691
REMARK UNBOUND:                -0.861
REMARK  Name = 
REMARK  7 active torsions:
REMARK  status: ('A' for Active; 'I' for Inactive)
REMARK    1  A    between atoms: C_1  and  C_2
REMARK    2  A    between atoms: C_2  and  C_3
REMARK    3  A    between atoms: C_6  and  C_7
REMARK    4  A    between atoms: C_7  and  C_8
REMARK    5  A    between atoms: C_7  and  N_9
REMARK    6  A    between atoms: N_9  and  C_10
REMARK    7  A    between atoms: C_13  and  C_14
REMARK                            x       y       z     vdW  Elec       q    Type
REMARK                         _______ _______ _______ _____ _____    ______ ____
ROOT
ATOM      1  N   UNL     1      47.093   6.856  13.848  0.00  0.00    +0.000 N 
ATOM      2  H   UNL     1      46.698   7.781  13.668  0.00  0.00    +0.000 HD
ENDROOT
BRANCH   1   3
ATOM      3  C   UNL     1      46.351   5.903  13.122  0.00  0.00    +0.000 A 
ATOM      4  C   UNL     1      45.989   6.080  11.786  0.00  0.00    +0.000 A 
ATOM      5  C   UNL     1      45.234   5.132  11.106  0.00  0.00    +0.000 A 
ATOM      6  C   UNL     1      44.924   3.951  11.750  0.00  0.00    +0.000 A 
ATOM      7  N   UNL     1      45.316   3.664  13.024  0.00  0.00    +0.000 NA
ATOM      8  C   UNL     1      46.029   4.643  13.656  0.00  0.00    +0.000 A 
BRANCH   6   9
ATOM      9  C   UNL     1      44.148   2.909  11.012  0.00  0.00    +0.000 C 
ATOM     10  N   UNL     1      44.770   2.318   9.956  0.00  0.00    +0.000 N 
ATOM     11  O   UNL     1      42.996   2.596  11.335  0.00  0.00    +0.000 OA
ATOM     12  H   UNL     1      45.705   2.612   9.692  0.00  0.00    +0.000 HD
ATOM     13  H   UNL     1      44.267   1.639   9.404  0.00  0.00    +0.000 HD
ENDBRANCH   6   9
ENDBRANCH   1   3
BRANCH   1  14
ATOM     14  C   UNL     1      48.575   6.900  13.692  0.00  0.00    +0.000 C 
ATOM     15  C   UNL     1      49.281   7.129  15.038  0.00  0.00    +0.000 C 
BRANCH  14  19
ATOM     16  C   UNL     1      49.829  10.189  11.101  0.00  0.00    +0.000 A 
ATOM     17  C   UNL     1      48.548  10.180  11.657  0.00  0.00    +0.000 A 
ATOM     18  C   UNL     1      48.121   9.120  12.471  0.00  0.00    +0.000 A 
ATOM     19  C   UNL     1      48.970   8.028  12.729  0.00  0.00    +0.000 A 
ATOM     20  C   UNL     1      50.214   8.006  12.082  0.00  0.00    +0.000 A 
ATOM     21  C   UNL     1      50.655   9.083  11.307  0.00  0.00    +0.000 A 
BRANCH  16  23
ATOM     22  C   UNL     1      51.765  11.229   9.879  0.00  0.00    +0.000 C 
ATOM     23  C   UNL     1      50.322  11.397  10.343  0.00  0.00    +0.000 C 
ENDBRANCH  16  23
ENDBRANCH  14  19
ENDBRANCH   1  14
TORSDOF 5
ENDMDL
MODEL 8
REMARK VINA RESULT:    -5.301      3.962      6.041
REMARK INTER + INTRA:          -7.712
REMARK INTER:                  -7.162
REMARK INTRA:                  -0.550
REMARK UNBOUND:                -0.861
REMARK  Name = 
REMARK  7 active torsions:
REMARK  status: ('A' for Active; 'I' for Inactive)
REMARK    1  A    between atoms: C_1  and  C_2
REMARK    2  A    between atoms: C_2  and  C_3
REMARK    3  A    between atoms: C_6  and  C_7
REMARK    4  A    between atoms: C_7  and  C_8
REMARK    5  A    between atoms: C_7  and  N_9
REMARK    6  A    between atoms: N_9  and  C_10
REMARK    7  A    between atoms: C_13  and  C_14
REMARK                            x       y       z     vdW  Elec       q    Type
REMARK                         _______ _______ _______ _____ _____    ______ ____
ROOT
ATOM      1  N   UNL     1      48.306   6.586  13.308  0.00  0.00    +0.000 N 
ATOM      2  H   UNL     1      49.107   5.951  13.301  0.00  0.00    +0.000 HD
ENDROOT
BRANCH   1   3
ATOM      3  C   UNL     1      47.152   5.857  12.960  0.00  0.00    +0.000 A 
ATOM      4  C   UNL     1      46.404   6.122  11.812  0.00  0.00    +0.000 A 
ATOM      5  C   UNL     1      45.255   5.400  11.511  0.00  0.00    +0.000 A 
ATOM      6  C   UNL     1      44.912   4.339  12.324  0.00  0.00    +0.000 A 
ATOM      7  N   UNL     1      45.638   3.961  13.414  0.00  0.00    +0.000 NA
ATOM      8  C   UNL     1      46.740   4.723  13.681  0.00  0.00    +0.000 A 
BRANCH   6   9
ATOM      9  C   UNL     1      43.700   3.533  11.984  0.00  0.00    +0.000 C 
ATOM     10  N   UNL     1      43.693   2.237  12.400  0.00  0.00    +0.000 N 
ATOM     11  O   UNL     1      42.750   4.008  11.352  0.00  0.00    +0.000 OA
ATOM     12  H   UNL     1      44.496   1.861  12.894  0.00  0.00    +0.000 HD
ATOM     13  H   UNL     1      42.912   1.645  12.156  0.00  0.00    +0.000 HD
ENDBRANCH   6   9
ENDBRANCH   1   3
BRANCH   1  14
ATOM     14  C   UNL     1      48.310   7.391  14.563  0.00  0.00    +0.000 C 
ATOM     15  C   UNL     1      48.876   8.801  14.332  0.00  0.00    +0.000 C 
BRANCH  14  19
ATOM     16  C   UNL     1      50.794   5.266  17.464  0.00  0.00    +0.000 A 
ATOM     17  C   UNL     1      49.414   5.055  17.431  0.00  0.00    +0.000 A 
ATOM     18  C   UNL     1      48.599   5.748  16.522  0.00  0.00    +0.000 A 
ATOM     19  C   UNL     1      49.153   6.689  15.636  0.00  0.00    +0.000 A 
ATOM     20  C   UNL     1      50.524   6.961  15.752  0.00  0.00    +0.000 A 
ATOM     21  C   UNL     1      51.342   6.239  16.627  0.00  0.00    +0.000 A 
BRANCH  16  23
ATOM     22  C   UNL     1      51.831   3.001  17.805  0.00  0.00    +0.000 C 
ATOM     23  C   UNL     1      51.674   4.417  18.349  0.00  0.00    +0.000 C 
ENDBRANCH  16  23
ENDBRANCH  14  19
ENDBRANCH   1  14
TORSDOF 5
ENDMDL
