MODEL 1
REMARK VINA RESULT:    -8.667      0.000      0.000
REMARK INTER + INTRA:         -13.500
REMARK INTER:                 -12.213
REMARK INTRA:                  -1.287
REMARK UNBOUND:                -1.287
REMARK  Name = 
REMARK  8 active torsions:
REMARK  status: ('A' for Active; 'I' for Inactive)
REMARK    1  A    between atoms: C_1  and  C_2
REMARK    2  A    between atoms: C_2  and  N_3
REMARK    3  A    between atoms: C_2  and  C_25
REMARK    4  A    between atoms: N_3  and  C_4
REMARK    5  A    between atoms: C_4  and  C_5
REMARK    6  A    between atoms: C_8  and  C_9
REMARK    7  A    between atoms: C_9  and  N_10
REMARK    8  A    between atoms: C_11  and  C_13
REMARK                            x       y       z     vdW  Elec       q    Type
REMARK                         _______ _______ _______ _____ _____    ______ ____
ROOT
ATOM      1  C   UNL     1      44.661   5.644  10.969  0.00  0.00    +0.000 A 
ATOM      2  C   UNL     1      45.988   5.815  10.600  0.00  0.00    +0.000 A 
ATOM      3  C   UNL     1      46.813   6.591  11.405  0.00  0.00    +0.000 A 
ATOM      4  C   UNL     1      46.271   7.177  12.535  0.00  0.00    +0.000 A 
ATOM      5  N   UNL     1      44.981   6.974  12.887  0.00  0.00    +0.000 NA
ATOM      6  N   UNL     1      44.170   6.200  12.101  0.00  0.00    +0.000 NA
ENDROOT
BRANCH   1   7
ATOM      7  C   UNL     1      43.705   4.843  10.113  0.00  0.00    +0.000 C 
BRANCH   7   8
ATOM      8  N   UNL     1      44.332   4.426   8.857  0.00  0.00    +0.000 NA
ATOM      9  H   UNL     1      43.781   4.823   8.090  0.00  0.00    +0.000 HD
BRANCH   8  11
ATOM     10  C   UNL     1      44.469   2.222  10.013  0.00  0.00    +0.000 C 
ATOM     11  C   UNL     1      44.404   2.971   8.675  0.00  0.00    +0.000 C 
BRANCH  11  12
ATOM     12  C   UNL     1      45.630   2.633   7.834  0.00  0.00    +0.000 A 
ATOM     13  C   UNL     1      46.352   1.451   8.059  0.00  0.00    +0.000 A 
ATOM     14  C   UNL     1      47.459   1.134   7.265  0.00  0.00    +0.000 A 
ATOM     15  C   UNL     1      47.858   1.993   6.243  0.00  0.00    +0.000 A 
ATOM     16  C   UNL     1      47.157   3.173   6.014  0.00  0.00    +0.000 A 
ATOM     17  C   UNL     1      46.052   3.490   6.803  0.00  0.00    +0.000 A 
ENDBRANCH  11  12
ENDBRANCH   8  11
ENDBRANCH   7   8
ENDBRANCH   1   7
BRANCH   4  18
ATOM     18  C   UNL     1      47.099   8.063  13.426  0.00  0.00    +0.000 C 
BRANCH  18  19
ATOM     19  N   UNL     1      47.548   7.381  14.616  0.00  0.00    +0.000 N 
ATOM     20  C   UNL     1      48.796   6.831  14.729  0.00  0.00    +0.000 C 
ATOM     21  O   UNL     1      49.618   6.884  13.817  0.00  0.00    +0.000 OA
ATOM     22  H   UNL     1      46.822   7.120  15.276  0.00  0.00    +0.000 HD
BRANCH  20  23
ATOM     23  C   UNL     1      49.130   6.236  16.030  0.00  0.00    +0.000 A 
ATOM     24  C   UNL     1      50.142   6.789  16.802  0.00  0.00    +0.000 A 
ATOM     25  S   UNL     1      50.365   6.005  18.300  0.00  0.00    +0.000 S 
ATOM     26  C   UNL     1      49.148   4.867  17.949  0.00  0.00    +0.000 A 
ATOM     27  N   UNL     1      48.847   3.871  18.824  0.00  0.00    +0.000 NA
ATOM     28  C   UNL     1      47.927   3.062  18.415  0.00  0.00    +0.000 A 
ATOM     29  N   UNL     1      47.274   3.165  17.214  0.00  0.00    +0.000 N 
ATOM     30  C   UNL     1      47.508   4.185  16.323  0.00  0.00    +0.000 A 
ATOM     31  O   UNL     1      46.845   4.303  15.301  0.00  0.00    +0.000 OA
ATOM     32  C   UNL     1      48.562   5.101  16.718  0.00  0.00    +0.000 A 
ATOM     33  H   UNL     1      46.548   2.513  16.960  0.00  0.00    +0.000 HD
ENDBRANCH  20  23
ENDBRANCH  18  19
ENDBRANCH   4  18
TORSDOF 7
ENDMDL
MODEL 2
REMARK VINA RESULT:    -7.932      2.458      3.091
REMARK INTER + INTRA:         -12.465
REMARK INTER:                 -11.394
REMARK INTRA:                  -1.071
REMARK UNBOUND:                -1.287
REMARK  Name = 
REMARK  8 active torsions:
REMARK  status: ('A' for Active; 'I' for Inactive)
REMARK    1  A    between atoms: C_1  and  C_2
REMARK    2  A    between atoms: C_2  and  N_3
REMARK    3  A    between atoms: C_2  and  C_25
REMARK    4  A    between atoms: N_3  and  C_4
REMARK    5  A    between atoms: C_4  and  C_5
REMARK    6  A    between atoms: C_8  and  C_9
REMARK    7  A    between atoms: C_9  and  N_10
REMARK    8  A    between atoms: C_11  and  C_13
REMARK                            x       y       z     vdW  Elec       q    Type
REMARK                         _______ _______ _______ _____ _____    ______ ____
ROOT
ATOM      1  C   UNL     1      45.381   5.607  11.722  0.00  0.00    +0.000 A 
ATOM      2  C   UNL     1      45.682   4.793  12.805  0.00  0.00    +0.000 A 
ATOM      3  C   UNL     1      46.714   5.164  13.657  0.00  0.00    +0.000 A 
ATOM      4  C   UNL     1      47.413   6.325  13.380  0.00  0.00    +0.000 A 
ATOM      5  N   UNL     1      47.084   7.116  12.332  0.00  0.00    +0.000 NA
ATOM      6  N   UNL     1      46.059   6.757  11.499  0.00  0.00    +0.000 NA
ENDROOT
BRANCH   1   7
ATOM      7  C   UNL     1      44.295   5.235  10.737  0.00  0.00    +0.000 C 
BRANCH   7   8
ATOM      8  N   UNL     1      44.858   4.818   9.452  0.00  0.00    +0.000 NA
ATOM      9  H   UNL     1      44.545   5.489   8.744  0.00  0.00    +0.000 HD
BRANCH   8  11
ATOM     10  C   UNL     1      44.129   2.561  10.219  0.00  0.00    +0.000 C 
ATOM     11  C   UNL     1      44.455   3.471   9.027  0.00  0.00    +0.000 C 
BRANCH  11  12
ATOM     12  C   UNL     1      45.574   2.853   8.196  0.00  0.00    +0.000 A 
ATOM     13  C   UNL     1      46.284   3.622   7.261  0.00  0.00    +0.000 A 
ATOM     14  C   UNL     1      47.328   3.056   6.523  0.00  0.00    +0.000 A 
ATOM     15  C   UNL     1      47.672   1.717   6.708  0.00  0.00    +0.000 A 
ATOM     16  C   UNL     1      46.972   0.940   7.626  0.00  0.00    +0.000 A 
ATOM     17  C   UNL     1      45.931   1.504   8.364  0.00  0.00    +0.000 A 
ENDBRANCH  11  12
ENDBRANCH   8  11
ENDBRANCH   7   8
ENDBRANCH   1   7
BRANCH   4  18
ATOM     18  C   UNL     1      48.569   6.762  14.239  0.00  0.00    +0.000 C 
BRANCH  18  19
ATOM     19  N   UNL     1      48.245   6.749  15.646  0.00  0.00    +0.000 N 
ATOM     20  C   UNL     1      49.103   6.273  16.600  0.00  0.00    +0.000 C 
ATOM     21  O   UNL     1      50.210   5.823  16.315  0.00  0.00    +0.000 OA
ATOM     22  H   UNL     1      47.265   6.888  15.874  0.00  0.00    +0.000 HD
BRANCH  20  23
ATOM     23  C   UNL     1      48.658   6.396  17.994  0.00  0.00    +0.000 A 
ATOM     24  C   UNL     1      48.700   5.291  18.832  0.00  0.00    +0.000 A 
ATOM     25  S   UNL     1      48.193   5.622  20.427  0.00  0.00    +0.000 S 
ATOM     26  C   UNL     1      47.854   7.244  20.041  0.00  0.00    +0.000 A 
ATOM     27  N   UNL     1      47.348   8.096  20.974  0.00  0.00    +0.000 NA
ATOM     28  C   UNL     1      47.109   9.286  20.536  0.00  0.00    +0.000 A 
ATOM     29  N   UNL     1      47.339   9.706  19.251  0.00  0.00    +0.000 N 
ATOM     30  C   UNL     1      47.898   8.897  18.291  0.00  0.00    +0.000 A 
ATOM     31  O   UNL     1      48.177   9.327  17.179  0.00  0.00    +0.000 OA
ATOM     32  C   UNL     1      48.150   7.535  18.722  0.00  0.00    +0.000 A 
ATOM     33  H   UNL     1      47.150  10.658  18.974  0.00  0.00    +0.000 HD
ENDBRANCH  20  23
ENDBRANCH  18  19
ENDBRANCH   4  18
TORSDOF 7
ENDMDL
MODEL 3
REMARK VINA RESULT:    -7.678      1.603      2.039
REMARK INTER + INTRA:         -12.107
REMARK INTER:                 -10.963
REMARK INTRA:                  -1.144
REMARK UNBOUND:                -1.287
REMARK  Name = 
REMARK  8 active torsions:
REMARK  status: ('A' for Active; 'I' for Inactive)
REMARK    1  A    between atoms: C_1  and  C_2
REMARK    2  A    between atoms: C_2  and  N_3
REMARK    3  A    between atoms: C_2  and  C_25
REMARK    4  A    between atoms: N_3  and  C_4
REMARK    5  A    between atoms: C_4  and  C_5
REMARK    6  A    between atoms: C_8  and  C_9
REMARK    7  A    between atoms: C_9  and  N_10
REMARK    8  A    between atoms: C_11  and  C_13
REMARK                            x       y       z     vdW  Elec       q    Type
REMARK                         _______ _______ _______ _____ _____    ______ ____
ROOT
ATOM      1  C   UNL     1      46.117   5.706  12.139  0.00  0.00    +0.000 A 
ATOM      2  C   UNL     1      46.843   6.654  11.432  0.00  0.00    +0.000 A 
ATOM      3  C   UNL     1      47.996   7.178  12.001  0.00  0.00    +0.000 A 
ATOM      4  C   UNL     1      48.366   6.745  13.262  0.00  0.00    +0.000 A 
ATOM      5  N   UNL     1      47.656   5.800  13.921  0.00  0.00    +0.000 NA
ATOM      6  N   UNL     1      46.526   5.274  13.355  0.00  0.00    +0.000 NA
ENDROOT
BRANCH   1   7
ATOM      7  C   UNL     1      44.833   5.128  11.589  0.00  0.00    +0.000 C 
BRANCH   7   8
ATOM      8  N   UNL     1      44.854   5.075  10.125  0.00  0.00    +0.000 NA
ATOM      9  H   UNL     1      44.311   5.871   9.779  0.00  0.00    +0.000 HD
BRANCH   8  11
ATOM     10  C   UNL     1      43.845   2.856  10.649  0.00  0.00    +0.000 C 
ATOM     11  C   UNL     1      44.287   3.844   9.560  0.00  0.00    +0.000 C 
BRANCH  11  12
ATOM     12  C   UNL     1      45.324   3.186   8.656  0.00  0.00    +0.000 A 
ATOM     13  C   UNL     1      45.582   1.809   8.741  0.00  0.00    +0.000 A 
ATOM     14  C   UNL     1      46.513   1.208   7.889  0.00  0.00    +0.000 A 
ATOM     15  C   UNL     1      47.199   1.974   6.947  0.00  0.00    +0.000 A 
ATOM     16  C   UNL     1      46.960   3.341   6.856  0.00  0.00    +0.000 A 
ATOM     17  C   UNL     1      46.029   3.943   7.704  0.00  0.00    +0.000 A 
ENDBRANCH  11  12
ENDBRANCH   8  11
ENDBRANCH   7   8
ENDBRANCH   1   7
BRANCH   4  18
ATOM     18  C   UNL     1      49.580   7.304  13.953  0.00  0.00    +0.000 C 
BRANCH  18  19
ATOM     19  N   UNL     1      49.553   7.081  15.379  0.00  0.00    +0.000 N 
ATOM     20  C   UNL     1      50.689   6.992  16.137  0.00  0.00    +0.000 C 
ATOM     21  O   UNL     1      51.811   7.099  15.647  0.00  0.00    +0.000 OA
ATOM     22  H   UNL     1      48.669   6.756  15.759  0.00  0.00    +0.000 HD
BRANCH  20  23
ATOM     23  C   UNL     1      50.494   6.838  17.585  0.00  0.00    +0.000 A 
ATOM     24  C   UNL     1      50.944   7.825  18.450  0.00  0.00    +0.000 A 
ATOM     25  S   UNL     1      50.595   7.508  20.090  0.00  0.00    +0.000 S 
ATOM     26  C   UNL     1      49.873   6.015  19.705  0.00  0.00    +0.000 A 
ATOM     27  N   UNL     1      49.379   5.204  20.678  0.00  0.00    +0.000 NA
ATOM     28  C   UNL     1      48.890   4.090  20.247  0.00  0.00    +0.000 A 
ATOM     29  N   UNL     1      48.841   3.717  18.928  0.00  0.00    +0.000 N 
ATOM     30  C   UNL     1      49.278   4.527  17.908  0.00  0.00    +0.000 A 
ATOM     31  O   UNL     1      49.136   4.207  16.735  0.00  0.00    +0.000 OA
ATOM     32  C   UNL     1      49.874   5.777  18.343  0.00  0.00    +0.000 A 
ATOM     33  H   UNL     1      48.425   2.841  18.651  0.00  0.00    +0.000 HD
ENDBRANCH  20  23
ENDBRANCH  18  19
ENDBRANCH   4  18
TORSDOF 7
ENDMDL
MODEL 4
REMARK VINA RESULT:    -7.663      2.269      3.136
REMARK INTER + INTRA:         -12.085
REMARK INTER:                 -11.470
REMARK INTRA:                  -0.616
REMARK UNBOUND:                -1.287
REMARK  Name = 
REMARK  8 active torsions:
REMARK  status: ('A' for Active; 'I' for Inactive)
REMARK    1  A    between atoms: C_1  and  C_2
REMARK    2  A    between atoms: C_2  and  N_3
REMARK    3  A    between atoms: C_2  and  C_25
REMARK    4  A    between atoms: N_3  and  C_4
REMARK    5  A    between atoms: C_4  and  C_5
REMARK    6  A    between atoms: C_8  and  C_9
REMARK    7  A    between atoms: C_9  and  N_10
REMARK    8  A    between atoms: C_11  and  C_13
REMARK                            x       y       z     vdW  Elec       q    Type
REMARK                         _______ _______ _______ _____ _____    ______ ____
ROOT
ATOM      1  C   UNL     1      45.663   5.349  11.842  0.00  0.00    +0.000 A 
ATOM      2  C   UNL     1      46.594   6.163  12.473  0.00  0.00    +0.000 A 
ATOM      3  C   UNL     1      47.134   5.750  13.684  0.00  0.00    +0.000 A 
ATOM      4  C   UNL     1      46.709   4.548  14.222  0.00  0.00    +0.000 A 
ATOM      5  N   UNL     1      45.820   3.760  13.575  0.00  0.00    +0.000 NA
ATOM      6  N   UNL     1      45.295   4.160  12.375  0.00  0.00    +0.000 NA
ENDROOT
BRANCH   1   7
ATOM      7  C   UNL     1      45.011   5.762  10.542  0.00  0.00    +0.000 C 
BRANCH   7   8
ATOM      8  N   UNL     1      45.673   5.145   9.391  0.00  0.00    +0.000 NA
ATOM      9  H   UNL     1      45.889   5.891   8.723  0.00  0.00    +0.000 HD
BRANCH   8  11
ATOM     10  C   UNL     1      43.973   3.346   9.682  0.00  0.00    +0.000 C 
ATOM     11  C   UNL     1      44.867   4.126   8.708  0.00  0.00    +0.000 C 
BRANCH  11  12
ATOM     12  C   UNL     1      45.794   3.165   7.973  0.00  0.00    +0.000 A 
ATOM     13  C   UNL     1      45.932   1.834   8.397  0.00  0.00    +0.000 A 
ATOM     14  C   UNL     1      46.763   0.951   7.702  0.00  0.00    +0.000 A 
ATOM     15  C   UNL     1      47.466   1.385   6.580  0.00  0.00    +0.000 A 
ATOM     16  C   UNL     1      47.345   2.704   6.152  0.00  0.00    +0.000 A 
ATOM     17  C   UNL     1      46.515   3.586   6.843  0.00  0.00    +0.000 A 
ENDBRANCH  11  12
ENDBRANCH   8  11
ENDBRANCH   7   8
ENDBRANCH   1   7
BRANCH   4  18
ATOM     18  C   UNL     1      47.223   4.064  15.550  0.00  0.00    +0.000 C 
BRANCH  18  19
ATOM     19  N   UNL     1      47.965   5.081  16.258  0.00  0.00    +0.000 N 
ATOM     20  C   UNL     1      47.724   5.399  17.567  0.00  0.00    +0.000 C 
ATOM     21  O   UNL     1      46.855   4.833  18.226  0.00  0.00    +0.000 OA
ATOM     22  H   UNL     1      48.509   5.713  15.678  0.00  0.00    +0.000 HD
BRANCH  20  23
ATOM     23  C   UNL     1      48.613   6.403  18.166  0.00  0.00    +0.000 A 
ATOM     24  C   UNL     1      48.070   7.499  18.822  0.00  0.00    +0.000 A 
ATOM     25  S   UNL     1      49.241   8.540  19.498  0.00  0.00    +0.000 S 
ATOM     26  C   UNL     1      50.516   7.586  18.895  0.00  0.00    +0.000 A 
ATOM     27  N   UNL     1      51.813   7.941  19.098  0.00  0.00    +0.000 NA
ATOM     28  C   UNL     1      52.675   7.145  18.559  0.00  0.00    +0.000 A 
ATOM     29  N   UNL     1      52.358   6.020  17.844  0.00  0.00    +0.000 N 
ATOM     30  C   UNL     1      51.064   5.594  17.659  0.00  0.00    +0.000 A 
ATOM     31  O   UNL     1      50.816   4.536  17.096  0.00  0.00    +0.000 OA
ATOM     32  C   UNL     1      50.054   6.476  18.213  0.00  0.00    +0.000 A 
ATOM     33  H   UNL     1      53.078   5.425  17.464  0.00  0.00    +0.000 HD
ENDBRANCH  20  23
ENDBRANCH  18  19
ENDBRANCH   4  18
TORSDOF 7
ENDMDL
MODEL 5
REMARK VINA RESULT:    -7.514      2.051      3.516
REMARK INTER + INTRA:         -11.876
REMARK INTER:                 -10.970
REMARK INTRA:                  -0.906
REMARK UNBOUND:                -1.287
REMARK  Name = 
REMARK  8 active torsions:
REMARK  status: ('A' for Active; 'I' for Inactive)
REMARK    1  A    between atoms: C_1  and  C_2
REMARK    2  A    between atoms: C_2  and  N_3
REMARK    3  A    between atoms: C_2  and  C_25
REMARK    4  A    between atoms: N_3  and  C_4
REMARK    5  A    between atoms: C_4  and  C_5
REMARK    6  A    between atoms: C_8  and  C_9
REMARK    7  A    between atoms: C_9  and  N_10
REMARK    8  A    between atoms: C_11  and  C_13
REMARK                            x       y       z     vdW  Elec       q    Type
REMARK                         _______ _______ _______ _____ _____    ______ ____
ROOT
ATOM      1  C   UNL     1      45.258   4.804  11.727  0.00  0.00    +0.000 A 
ATOM      2  C   UNL     1      45.896   5.912  12.268  0.00  0.00    +0.000 A 
ATOM      3  C   UNL     1      46.599   5.766  13.456  0.00  0.00    +0.000 A 
ATOM      4  C   UNL     1      46.620   4.523  14.064  0.00  0.00    +0.000 A 
ATOM      5  N   UNL     1      46.012   3.452  13.503  0.00  0.00    +0.000 NA
ATOM      6  N   UNL     1      45.329   3.592  12.325  0.00  0.00    +0.000 NA
ENDROOT
BRANCH   1   7
ATOM      7  C   UNL     1      44.445   4.909  10.456  0.00  0.00    +0.000 C 
BRANCH   7   8
ATOM      8  N   UNL     1      45.242   4.554   9.280  0.00  0.00    +0.000 NA
ATOM      9  H   UNL     1      45.240   5.361   8.650  0.00  0.00    +0.000 HD
BRANCH   8  11
ATOM     10  C   UNL     1      44.255   2.274   9.482  0.00  0.00    +0.000 C 
ATOM     11  C   UNL     1      44.741   3.387   8.543  0.00  0.00    +0.000 C 
BRANCH  11  12
ATOM     12  C   UNL     1      45.847   2.854   7.639  0.00  0.00    +0.000 A 
ATOM     13  C   UNL     1      46.248   3.565   6.498  0.00  0.00    +0.000 A 
ATOM     14  C   UNL     1      47.281   3.083   5.689  0.00  0.00    +0.000 A 
ATOM     15  C   UNL     1      47.923   1.888   6.008  0.00  0.00    +0.000 A 
ATOM     16  C   UNL     1      47.532   1.168   7.133  0.00  0.00    +0.000 A 
ATOM     17  C   UNL     1      46.501   1.647   7.942  0.00  0.00    +0.000 A 
ENDBRANCH  11  12
ENDBRANCH   8  11
ENDBRANCH   7   8
ENDBRANCH   1   7
BRANCH   4  18
ATOM     18  C   UNL     1      47.328   4.308  15.374  0.00  0.00    +0.000 C 
BRANCH  18  19
ATOM     19  N   UNL     1      47.911   5.524  15.891  0.00  0.00    +0.000 N 
ATOM     20  C   UNL     1      48.852   5.530  16.884  0.00  0.00    +0.000 C 
ATOM     21  O   UNL     1      49.263   4.494  17.401  0.00  0.00    +0.000 OA
ATOM     22  H   UNL     1      47.423   6.382  15.654  0.00  0.00    +0.000 HD
BRANCH  20  23
ATOM     23  C   UNL     1      49.403   6.842  17.249  0.00  0.00    +0.000 A 
ATOM     24  C   UNL     1      49.421   7.236  18.580  0.00  0.00    +0.000 A 
ATOM     25  S   UNL     1      50.136   8.764  18.831  0.00  0.00    +0.000 S 
ATOM     26  C   UNL     1      50.403   8.975  17.163  0.00  0.00    +0.000 A 
ATOM     27  N   UNL     1      50.970  10.114  16.682  0.00  0.00    +0.000 NA
ATOM     28  C   UNL     1      51.083  10.152  15.396  0.00  0.00    +0.000 A 
ATOM     29  N   UNL     1      50.689   9.150  14.548  0.00  0.00    +0.000 N 
ATOM     30  C   UNL     1      50.162   7.961  14.992  0.00  0.00    +0.000 A 
ATOM     31  O   UNL     1      49.906   7.048  14.218  0.00  0.00    +0.000 OA
ATOM     32  C   UNL     1      49.978   7.882  16.430  0.00  0.00    +0.000 A 
ATOM     33  H   UNL     1      50.824   9.230  13.551  0.00  0.00    +0.000 HD
ENDBRANCH  20  23
ENDBRANCH  18  19
ENDBRANCH   4  18
TORSDOF 7
ENDMDL
MODEL 6
REMARK VINA RESULT:    -7.254      3.354      8.080
REMARK INTER + INTRA:         -11.509
REMARK INTER:                  -9.754
REMARK INTRA:                  -1.755
REMARK UNBOUND:                -1.287
REMARK  Name = 
REMARK  8 active torsions:
REMARK  status: ('A' for Active; 'I' for Inactive)
REMARK    1  A    between atoms: C_1  and  C_2
REMARK    2  A    between atoms: C_2  and  N_3
REMARK    3  A    between atoms: C_2  and  C_25
REMARK    4  A    between atoms: N_3  and  C_4
REMARK    5  A    between atoms: C_4  and  C_5
REMARK    6  A    between atoms: C_8  and  C_9
REMARK    7  A    between atoms: C_9  and  N_10
REMARK    8  A    between atoms: C_11  and  C_13
REMARK                            x       y       z     vdW  Elec       q    Type
REMARK                         _______ _______ _______ _____ _____    ______ ____
ROOT
ATOM      1  C   UNL     1      48.659   7.929  16.349  0.00  0.00    +0.000 A 
ATOM      2  C   UNL     1      49.342   6.960  15.628  0.00  0.00    +0.000 A 
ATOM      3  C   UNL     1      49.291   6.996  14.240  0.00  0.00    +0.000 A 
ATOM      4  C   UNL     1      48.545   7.990  13.633  0.00  0.00    +0.000 A 
ATOM      5  N   UNL     1      47.909   8.939  14.357  0.00  0.00    +0.000 NA
ATOM      6  N   UNL     1      47.968   8.912  15.725  0.00  0.00    +0.000 NA
ENDROOT
BRANCH   1   7
ATOM      7  C   UNL     1      48.645   7.919  17.861  0.00  0.00    +0.000 C 
BRANCH   7   8
ATOM      8  N   UNL     1      47.516   7.145  18.381  0.00  0.00    +0.000 NA
ATOM      9  H   UNL     1      46.936   7.779  18.938  0.00  0.00    +0.000 HD
BRANCH   8  11
ATOM     10  C   UNL     1      49.139   6.314  20.080  0.00  0.00    +0.000 C 
ATOM     11  C   UNL     1      47.903   6.007  19.223  0.00  0.00    +0.000 C 
BRANCH  11  12
ATOM     12  C   UNL     1      48.178   4.798  18.336  0.00  0.00    +0.000 A 
ATOM     13  C   UNL     1      47.232   4.368  17.393  0.00  0.00    +0.000 A 
ATOM     14  C   UNL     1      47.502   3.276  16.564  0.00  0.00    +0.000 A 
ATOM     15  C   UNL     1      48.718   2.600  16.667  0.00  0.00    +0.000 A 
ATOM     16  C   UNL     1      49.663   3.011  17.602  0.00  0.00    +0.000 A 
ATOM     17  C   UNL     1      49.395   4.101  18.429  0.00  0.00    +0.000 A 
ENDBRANCH  11  12
ENDBRANCH   8  11
ENDBRANCH   7   8
ENDBRANCH   1   7
BRANCH   4  18
ATOM     18  C   UNL     1      48.413   8.060  12.135  0.00  0.00    +0.000 C 
BRANCH  18  19
ATOM     19  N   UNL     1      47.664   6.950  11.596  0.00  0.00    +0.000 N 
ATOM     20  C   UNL     1      46.299   6.949  11.508  0.00  0.00    +0.000 C 
ATOM     21  O   UNL     1      45.621   7.902  11.886  0.00  0.00    +0.000 OA
ATOM     22  H   UNL     1      48.175   6.076  11.504  0.00  0.00    +0.000 HD
BRANCH  20  23
ATOM     23  C   UNL     1      45.688   5.777  10.868  0.00  0.00    +0.000 A 
ATOM     24  C   UNL     1      45.848   5.575   9.504  0.00  0.00    +0.000 A 
ATOM     25  S   UNL     1      45.115   4.144   8.935  0.00  0.00    +0.000 S 
ATOM     26  C   UNL     1      44.518   3.767  10.483  0.00  0.00    +0.000 A 
ATOM     27  N   UNL     1      43.760   2.657  10.692  0.00  0.00    +0.000 NA
ATOM     28  C   UNL     1      43.347   2.513  11.907  0.00  0.00    +0.000 A 
ATOM     29  N   UNL     1      43.633   3.373  12.935  0.00  0.00    +0.000 N 
ATOM     30  C   UNL     1      44.438   4.477  12.783  0.00  0.00    +0.000 A 
ATOM     31  O   UNL     1      44.750   5.175  13.739  0.00  0.00    +0.000 OA
ATOM     32  C   UNL     1      44.896   4.706  11.425  0.00  0.00    +0.000 A 
ATOM     33  H   UNL     1      43.298   3.195  13.870  0.00  0.00    +0.000 HD
ENDBRANCH  20  23
ENDBRANCH  18  19
ENDBRANCH   4  18
TORSDOF 7
ENDMDL
MODEL 7
REMARK VINA RESULT:    -7.232      2.303      3.087
REMARK INTER + INTRA:         -11.479
REMARK INTER:                 -10.425
REMARK INTRA:                  -1.053
REMARK UNBOUND:                -1.287
REMARK  Name = 
REMARK  8 active torsions:
REMARK  status: ('A' for Active; 'I' for Inactive)
REMARK    1  A    between atoms: C_1  and  C_2
REMARK    2  A    between atoms: C_2  and  N_3
REMARK    3  A    between atoms: C_2  and  C_25
REMARK    4  A    between atoms: N_3  and  C_4
REMARK    5  A    between atoms: C_4  and  C_5
REMARK    6  A    between atoms: C_8  and  C_9
REMARK    7  A    between atoms: C_9  and  N_10
REMARK    8  A    between atoms: C_11  and  C_13
REMARK                            x       y       z     vdW  Elec       q    Type
REMARK                         _______ _______ _______ _____ _____    ______ ____
ROOT
ATOM      1  C   UNL     1      45.621   5.939  11.876  0.00  0.00    +0.000 A 
ATOM      2  C   UNL     1      46.345   5.204  12.804  0.00  0.00    +0.000 A 
ATOM      3  C   UNL     1      47.306   5.850  13.569  0.00  0.00    +0.000 A 
ATOM      4  C   UNL     1      47.516   7.202  13.362  0.00  0.00    +0.000 A 
ATOM      5  N   UNL     1      46.779   7.902  12.469  0.00  0.00    +0.000 NA
ATOM      6  N   UNL     1      45.823   7.269  11.723  0.00  0.00    +0.000 NA
ENDROOT
BRANCH   1   7
ATOM      7  C   UNL     1      44.588   5.283  10.986  0.00  0.00    +0.000 C 
BRANCH   7   8
ATOM      8  N   UNL     1      45.174   4.848   9.717  0.00  0.00    +0.000 NA
ATOM      9  H   UNL     1      45.054   5.611   9.044  0.00  0.00    +0.000 HD
BRANCH   8  11
ATOM     10  C   UNL     1      44.122   2.653  10.252  0.00  0.00    +0.000 C 
ATOM     11  C   UNL     1      44.567   3.634   9.158  0.00  0.00    +0.000 C 
BRANCH  11  12
ATOM     12  C   UNL     1      45.569   2.955   8.232  0.00  0.00    +0.000 A 
ATOM     13  C   UNL     1      45.970   1.629   8.455  0.00  0.00    +0.000 A 
ATOM     14  C   UNL     1      46.868   1.003   7.585  0.00  0.00    +0.000 A 
ATOM     15  C   UNL     1      47.377   1.694   6.486  0.00  0.00    +0.000 A 
ATOM     16  C   UNL     1      46.994   3.012   6.256  0.00  0.00    +0.000 A 
ATOM     17  C   UNL     1      46.098   3.637   7.122  0.00  0.00    +0.000 A 
ENDBRANCH  11  12
ENDBRANCH   8  11
ENDBRANCH   7   8
ENDBRANCH   1   7
BRANCH   4  18
ATOM     18  C   UNL     1      48.572   7.953  14.127  0.00  0.00    +0.000 C 
BRANCH  18  19
ATOM     19  N   UNL     1      49.440   7.074  14.874  0.00  0.00    +0.000 N 
ATOM     20  C   UNL     1      49.430   7.007  16.240  0.00  0.00    +0.000 C 
ATOM     21  O   UNL     1      48.675   7.696  16.922  0.00  0.00    +0.000 OA
ATOM     22  H   UNL     1      50.222   6.682  14.357  0.00  0.00    +0.000 HD
BRANCH  20  23
ATOM     23  C   UNL     1      50.321   6.010  16.850  0.00  0.00    +0.000 A 
ATOM     24  C   UNL     1      49.786   4.989  17.622  0.00  0.00    +0.000 A 
ATOM     25  S   UNL     1      50.954   3.895  18.212  0.00  0.00    +0.000 S 
ATOM     26  C   UNL     1      52.222   4.775  17.496  0.00  0.00    +0.000 A 
ATOM     27  N   UNL     1      53.517   4.387  17.644  0.00  0.00    +0.000 NA
ATOM     28  C   UNL     1      54.376   5.164  17.074  0.00  0.00    +0.000 A 
ATOM     29  N   UNL     1      54.057   6.291  16.361  0.00  0.00    +0.000 N 
ATOM     30  C   UNL     1      52.761   6.692  16.140  0.00  0.00    +0.000 A 
ATOM     31  O   UNL     1      52.503   7.649  15.422  0.00  0.00    +0.000 OA
ATOM     32  C   UNL     1      51.756   5.872  16.793  0.00  0.00    +0.000 A 
ATOM     33  H   UNL     1      54.773   6.847  15.920  0.00  0.00    +0.000 HD
ENDBRANCH  20  23
ENDBRANCH  18  19
ENDBRANCH   4  18
TORSDOF 7
ENDMDL
MODEL 8
REMARK VINA RESULT:    -7.141      2.983      8.512
REMARK INTER + INTRA:         -11.350
REMARK INTER:                 -10.046
REMARK INTRA:                  -1.304
REMARK UNBOUND:                -1.287
REMARK  Name = 
REMARK  8 active torsions:
REMARK  status: ('A' for Active; 'I' for Inactive)
REMARK    1  A    between atoms: C_1  and  C_2
REMARK    2  A    between atoms: C_2  and  N_3
REMARK    3  A    between atoms: C_2  and  C_25
REMARK    4  A    between atoms: N_3  and  C_4
REMARK    5  A    between atoms: C_4  and  C_5
REMARK    6  A    between atoms: C_8  and  C_9
REMARK    7  A    between atoms: C_9  and  N_10
REMARK    8  A    between atoms: C_11  and  C_13
REMARK                            x       y       z     vdW  Elec       q    Type
REMARK                         _______ _______ _______ _____ _____    ______ ____
ROOT
ATOM      1  C   UNL     1      49.345   7.721  15.876  0.00  0.00    +0.000 A 
ATOM      2  C   UNL     1      48.653   8.862  15.496  0.00  0.00    +0.000 A 
ATOM      3  C   UNL     1      47.996   8.872  14.272  0.00  0.00    +0.000 A 
ATOM      4  C   UNL     1      48.073   7.746  13.472  0.00  0.00    +0.000 A 
ATOM      5  N   UNL     1      48.733   6.636  13.877  0.00  0.00    +0.000 NA
ATOM      6  N   UNL     1      49.371   6.621  15.088  0.00  0.00    +0.000 NA
ENDROOT
BRANCH   1   7
ATOM      7  C   UNL     1      50.112   7.664  17.178  0.00  0.00    +0.000 C 
BRANCH   7   8
ATOM      8  N   UNL     1      49.430   6.825  18.165  0.00  0.00    +0.000 NA
ATOM      9  H   UNL     1      49.172   7.423  18.955  0.00  0.00    +0.000 HD
BRANCH   8  11
ATOM     10  C   UNL     1      51.745   5.959  18.488  0.00  0.00    +0.000 C 
ATOM     11  C   UNL     1      50.241   5.710  18.670  0.00  0.00    +0.000 C 
BRANCH  11  12
ATOM     12  C   UNL     1      49.838   4.430  17.946  0.00  0.00    +0.000 A 
ATOM     13  C   UNL     1      50.775   3.413  17.707  0.00  0.00    +0.000 A 
ATOM     14  C   UNL     1      50.392   2.231  17.067  0.00  0.00    +0.000 A 
ATOM     15  C   UNL     1      49.072   2.052  16.657  0.00  0.00    +0.000 A 
ATOM     16  C   UNL     1      48.133   3.054  16.879  0.00  0.00    +0.000 A 
ATOM     17  C   UNL     1      48.513   4.234  17.519  0.00  0.00    +0.000 A 
ENDBRANCH  11  12
ENDBRANCH   8  11
ENDBRANCH   7   8
ENDBRANCH   1   7
BRANCH   4  18
ATOM     18  C   UNL     1      47.420   7.707  12.117  0.00  0.00    +0.000 C 
BRANCH  18  19
ATOM     19  N   UNL     1      46.719   6.467  11.880  0.00  0.00    +0.000 N 
ATOM     20  C   UNL     1      45.356   6.395  11.774  0.00  0.00    +0.000 C 
ATOM     21  O   UNL     1      44.641   7.389  11.874  0.00  0.00    +0.000 OA
ATOM     22  H   UNL     1      47.257   5.619  12.032  0.00  0.00    +0.000 HD
BRANCH  20  23
ATOM     23  C   UNL     1      44.797   5.074  11.458  0.00  0.00    +0.000 A 
ATOM     24  C   UNL     1      44.031   4.406  12.403  0.00  0.00    +0.000 A 
ATOM     25  S   UNL     1      43.423   2.909  11.856  0.00  0.00    +0.000 S 
ATOM     26  C   UNL     1      44.204   3.078  10.353  0.00  0.00    +0.000 A 
ATOM     27  N   UNL     1      44.116   2.108   9.404  0.00  0.00    +0.000 NA
ATOM     28  C   UNL     1      44.784   2.353   8.326  0.00  0.00    +0.000 A 
ATOM     29  N   UNL     1      45.523   3.487   8.107  0.00  0.00    +0.000 N 
ATOM     30  C   UNL     1      45.597   4.516   9.015  0.00  0.00    +0.000 A 
ATOM     31  O   UNL     1      46.189   5.555   8.753  0.00  0.00    +0.000 OA
ATOM     32  C   UNL     1      44.895   4.273  10.261  0.00  0.00    +0.000 A 
ATOM     33  H   UNL     1      46.007   3.631   7.234  0.00  0.00    +0.000 HD
ENDBRANCH  20  23
ENDBRANCH  18  19
ENDBRANCH   4  18
TORSDOF 7
ENDMDL
MODEL 9
REMARK VINA RESULT:    -7.125      2.896      4.061
REMARK INTER + INTRA:         -11.327
REMARK INTER:                 -10.383
REMARK INTRA:                  -0.944
REMARK UNBOUND:                -1.287
REMARK  Name = 
REMARK  8 active torsions:
REMARK  status: ('A' for Active; 'I' for Inactive)
REMARK    1  A    between atoms: C_1  and  C_2
REMARK    2  A    between atoms: C_2  and  N_3
REMARK    3  A    between atoms: C_2  and  C_25
REMARK    4  A    between atoms: N_3  and  C_4
REMARK    5  A    between atoms: C_4  and  C_5
REMARK    6  A    between atoms: C_8  and  C_9
REMARK    7  A    between atoms: C_9  and  N_10
REMARK    8  A    between atoms: C_11  and  C_13
REMARK                            x       y       z     vdW  Elec       q    Type
REMARK                         _______ _______ _______ _____ _____    ______ ____
ROOT
ATOM      1  C   UNL     1      45.824   4.221  12.720  0.00  0.00    +0.000 A 
ATOM      2  C   UNL     1      46.021   5.488  13.252  0.00  0.00    +0.000 A 
ATOM      3  C   UNL     1      46.784   5.620  14.405  0.00  0.00    +0.000 A 
ATOM      4  C   UNL     1      47.303   4.477  14.988  0.00  0.00    +0.000 A 
ATOM      5  N   UNL     1      47.119   3.256  14.435  0.00  0.00    +0.000 NA
ATOM      6  N   UNL     1      46.378   3.126  13.292  0.00  0.00    +0.000 NA
ENDROOT
BRANCH   1   7
ATOM      7  C   UNL     1      44.972   4.010  11.489  0.00  0.00    +0.000 C 
BRANCH   7   8
ATOM      8  N   UNL     1      45.490   2.920  10.660  0.00  0.00    +0.000 NA
ATOM      9  H   UNL     1      46.464   3.139  10.434  0.00  0.00    +0.000 HD
BRANCH   8  11
ATOM     10  C   UNL     1      43.858   1.472   9.454  0.00  0.00    +0.000 C 
ATOM     11  C   UNL     1      44.755   2.717   9.405  0.00  0.00    +0.000 C 
BRANCH  11  12
ATOM     12  C   UNL     1      45.751   2.591   8.257  0.00  0.00    +0.000 A 
ATOM     13  C   UNL     1      45.994   3.672   7.396  0.00  0.00    +0.000 A 
ATOM     14  C   UNL     1      46.929   3.558   6.362  0.00  0.00    +0.000 A 
ATOM     15  C   UNL     1      47.628   2.366   6.177  0.00  0.00    +0.000 A 
ATOM     16  C   UNL     1      47.392   1.284   7.019  0.00  0.00    +0.000 A 
ATOM     17  C   UNL     1      46.461   1.396   8.051  0.00  0.00    +0.000 A 
ENDBRANCH  11  12
ENDBRANCH   8  11
ENDBRANCH   7   8
ENDBRANCH   1   7
BRANCH   4  18
ATOM     18  C   UNL     1      48.102   4.547  16.261  0.00  0.00    +0.000 C 
BRANCH  18  19
ATOM     19  N   UNL     1      47.773   5.707  17.055  0.00  0.00    +0.000 N 
ATOM     20  C   UNL     1      48.326   5.946  18.284  0.00  0.00    +0.000 C 
ATOM     21  O   UNL     1      49.143   5.181  18.791  0.00  0.00    +0.000 OA
ATOM     22  H   UNL     1      46.940   6.215  16.771  0.00  0.00    +0.000 HD
BRANCH  20  23
ATOM     23  C   UNL     1      47.946   7.207  18.934  0.00  0.00    +0.000 A 
ATOM     24  C   UNL     1      47.546   7.204  20.263  0.00  0.00    +0.000 A 
ATOM     25  S   UNL     1      47.186   8.756  20.872  0.00  0.00    +0.000 S 
ATOM     26  C   UNL     1      47.506   9.482  19.366  0.00  0.00    +0.000 A 
ATOM     27  N   UNL     1      47.357  10.822  19.187  0.00  0.00    +0.000 NA
ATOM     28  C   UNL     1      47.603  11.232  17.988  0.00  0.00    +0.000 A 
ATOM     29  N   UNL     1      47.993  10.423  16.952  0.00  0.00    +0.000 N 
ATOM     30  C   UNL     1      48.208   9.074  17.099  0.00  0.00    +0.000 A 
ATOM     31  O   UNL     1      48.646   8.394  16.180  0.00  0.00    +0.000 OA
ATOM     32  C   UNL     1      47.909   8.556  18.421  0.00  0.00    +0.000 A 
ATOM     33  H   UNL     1      48.192  10.806  16.040  0.00  0.00    +0.000 HD
ENDBRANCH  20  23
ENDBRANCH  18  19
ENDBRANCH   4  18
TORSDOF 7
ENDMDL
