MODEL 1
REMARK VINA RESULT:    -8.848      0.000      0.000
REMARK INTER + INTRA:         -11.122
REMARK INTER:                 -10.917
REMARK INTRA:                  -0.204
REMARK UNBOUND:                -0.204
REMARK  Name = 
REMARK  4 active torsions:
REMARK  status: ('A' for Active; 'I' for Inactive)
REMARK    1  A    between atoms: C_2  and  C_4
REMARK    2  A    between atoms: N_8  and  C_9
REMARK    3  A    between atoms: C_9  and  C_10
REMARK    4  A    between atoms: C_15  and  C_16
REMARK                            x       y       z     vdW  Elec       q    Type
REMARK                         _______ _______ _______ _____ _____    ______ ____
ROOT
ATOM      1  C   UNL     1      43.844   4.836  11.567  0.00  0.00    +0.000 C 
ATOM      2  C   UNL     1      42.433   5.210  11.984  0.00  0.00    +0.000 C 
ATOM      3  C   UNL     1      43.085   5.974  10.882  0.00  0.00    +0.000 C 
ENDROOT
BRANCH   1   8
ATOM      4  C   UNL     1      46.497   2.802   7.549  0.00  0.00    +0.000 A 
ATOM      5  C   UNL     1      46.268   4.135   7.880  0.00  0.00    +0.000 A 
ATOM      6  C   UNL     1      45.470   4.438   8.992  0.00  0.00    +0.000 A 
ATOM      7  C   UNL     1      44.921   3.406   9.751  0.00  0.00    +0.000 A 
ATOM      8  N   UNL     1      44.050   3.599  10.819  0.00  0.00    +0.000 N 
ATOM      9  N   UNL     1      45.169   2.114   9.457  0.00  0.00    +0.000 NA
ATOM     10  C   UNL     1      45.934   1.836   8.371  0.00  0.00    +0.000 A 
ATOM     11  H   UNL     1      43.851   2.700  11.245  0.00  0.00    +0.000 HD
BRANCH   4  13
ATOM     12  N   UNL     1      47.161   3.094   5.219  0.00  0.00    +0.000 N 
ATOM     13  C   UNL     1      47.256   2.345   6.361  0.00  0.00    +0.000 C 
ATOM     14  O   UNL     1      47.954   1.342   6.395  0.00  0.00    +0.000 OA
ATOM     15  H   UNL     1      47.760   2.807   4.454  0.00  0.00    +0.000 HD
ATOM     16  H   UNL     1      46.799   4.041   5.203  0.00  0.00    +0.000 HD
ENDBRANCH   4  13
ENDBRANCH   1   8
BRANCH   1  17
ATOM     17  C   UNL     1      45.062   5.352  12.329  0.00  0.00    +0.000 A 
ATOM     18  C   UNL     1      45.731   4.526  13.248  0.00  0.00    +0.000 A 
ATOM     19  C   UNL     1      46.978   4.879  13.758  0.00  0.00    +0.000 A 
ATOM     20  C   UNL     1      47.558   6.089  13.386  0.00  0.00    +0.000 A 
ATOM     21  F   UNL     1      48.788   6.359  13.854  0.00  0.00    +0.000 F 
ATOM     22  C   UNL     1      46.897   6.996  12.547  0.00  0.00    +0.000 A 
ATOM     23  C   UNL     1      45.644   6.600  12.037  0.00  0.00    +0.000 A 
BRANCH  22  24
ATOM     24  C   UNL     1      47.476   8.301  12.164  0.00  0.00    +0.000 A 
ATOM     25  C   UNL     1      48.791   8.419  11.699  0.00  0.00    +0.000 A 
ATOM     26  C   UNL     1      49.276   9.673  11.341  0.00  0.00    +0.000 A 
ATOM     27  N   UNL     1      48.544  10.805  11.401  0.00  0.00    +0.000 NA
ATOM     28  C   UNL     1      47.281  10.682  11.849  0.00  0.00    +0.000 A 
ATOM     29  C   UNL     1      46.714   9.477  12.236  0.00  0.00    +0.000 A 
ENDBRANCH  22  24
ENDBRANCH   1  17
TORSDOF 4
ENDMDL
MODEL 2
REMARK VINA RESULT:    -8.501      2.104      3.724
REMARK INTER + INTRA:         -10.693
REMARK INTER:                 -10.787
REMARK INTRA:                   0.094
REMARK UNBOUND:                -0.204
REMARK  Name = 
REMARK  4 active torsions:
REMARK  status: ('A' for Active; 'I' for Inactive)
REMARK    1  A    between atoms: C_2  and  C_4
REMARK    2  A    between atoms: N_8  and  C_9
REMARK    3  A    between atoms: C_9  and  C_10
REMARK    4  A    between atoms: C_15  and  C_16
REMARK                            x       y       z     vdW  Elec       q    Type
REMARK                         _______ _______ _______ _____ _____    ______ ____
ROOT
ATOM      1  C   UNL     1      44.051   4.727  11.630  0.00  0.00    +0.000 C 
ATOM      2  C   UNL     1      42.720   5.040  12.289  0.00  0.00    +0.000 C 
ATOM      3  C   UNL     1      43.147   5.848  11.111  0.00  0.00    +0.000 C 
ENDROOT
BRANCH   1   8
ATOM      4  C   UNL     1      46.502   2.713   7.476  0.00  0.00    +0.000 A 
ATOM      5  C   UNL     1      46.358   4.043   7.866  0.00  0.00    +0.000 A 
ATOM      6  C   UNL     1      45.602   4.344   9.006  0.00  0.00    +0.000 A 
ATOM      7  C   UNL     1      45.008   3.315   9.735  0.00  0.00    +0.000 A 
ATOM      8  N   UNL     1      44.170   3.514  10.829  0.00  0.00    +0.000 N 
ATOM      9  N   UNL     1      45.174   2.024   9.383  0.00  0.00    +0.000 NA
ATOM     10  C   UNL     1      45.900   1.748   8.270  0.00  0.00    +0.000 A 
ATOM     11  H   UNL     1      43.927   2.610  11.222  0.00  0.00    +0.000 HD
BRANCH   4  13
ATOM     12  N   UNL     1      47.107   3.045   5.135  0.00  0.00    +0.000 N 
ATOM     13  C   UNL     1      47.210   2.264   6.255  0.00  0.00    +0.000 C 
ATOM     14  O   UNL     1      47.875   1.238   6.242  0.00  0.00    +0.000 OA
ATOM     15  H   UNL     1      47.673   2.759   4.345  0.00  0.00    +0.000 HD
ATOM     16  H   UNL     1      46.777   4.004   5.155  0.00  0.00    +0.000 HD
ENDBRANCH   4  13
ENDBRANCH   1   8
BRANCH   1  17
ATOM     17  C   UNL     1      45.363   5.276  12.187  0.00  0.00    +0.000 A 
ATOM     18  C   UNL     1      45.933   6.443  11.650  0.00  0.00    +0.000 A 
ATOM     19  C   UNL     1      46.977   7.098  12.299  0.00  0.00    +0.000 A 
ATOM     20  C   UNL     1      47.495   6.570  13.479  0.00  0.00    +0.000 A 
ATOM     21  F   UNL     1      48.458   7.268  14.103  0.00  0.00    +0.000 F 
ATOM     22  C   UNL     1      47.030   5.360  14.012  0.00  0.00    +0.000 A 
ATOM     23  C   UNL     1      45.963   4.732  13.338  0.00  0.00    +0.000 A 
BRANCH  22  24
ATOM     24  C   UNL     1      47.585   4.761  15.244  0.00  0.00    +0.000 A 
ATOM     25  C   UNL     1      48.106   5.547  16.279  0.00  0.00    +0.000 A 
ATOM     26  C   UNL     1      48.603   4.927  17.421  0.00  0.00    +0.000 A 
ATOM     27  N   UNL     1      48.606   3.590  17.606  0.00  0.00    +0.000 NA
ATOM     28  C   UNL     1      48.104   2.842  16.606  0.00  0.00    +0.000 A 
ATOM     29  C   UNL     1      47.594   3.371  15.430  0.00  0.00    +0.000 A 
ENDBRANCH  22  24
ENDBRANCH   1  17
TORSDOF 4
ENDMDL
MODEL 3
REMARK VINA RESULT:    -7.812      3.900      7.511
REMARK INTER + INTRA:          -9.844
REMARK INTER:                  -9.587
REMARK INTRA:                  -0.257
REMARK UNBOUND:                -0.204
REMARK  Name = 
REMARK  4 active torsions:
REMARK  status: ('A' for Active; 'I' for Inactive)
REMARK    1  A    between atoms: C_2  and  C_4
REMARK    2  A    between atoms: N_8  and  C_9
REMARK    3  A    between atoms: C_9  and  C_10
REMARK    4  A    between atoms: C_15  and  C_16
REMARK                            x       y       z     vdW  Elec       q    Type
REMARK                         _______ _______ _______ _____ _____    ______ ____
ROOT
ATOM      1  C   UNL     1      48.621   7.660  12.859  0.00  0.00    +0.000 C 
ATOM      2  C   UNL     1      49.716   7.625  11.808  0.00  0.00    +0.000 C 
ATOM      3  C   UNL     1      49.136   8.942  12.200  0.00  0.00    +0.000 C 
ENDROOT
BRANCH   1   8
ATOM      4  C   UNL     1      47.943   4.275  16.783  0.00  0.00    +0.000 A 
ATOM      5  C   UNL     1      47.226   4.418  15.597  0.00  0.00    +0.000 A 
ATOM      6  C   UNL     1      47.568   5.447  14.710  0.00  0.00    +0.000 A 
ATOM      7  C   UNL     1      48.616   6.310  15.022  0.00  0.00    +0.000 A 
ATOM      8  N   UNL     1      48.978   7.412  14.252  0.00  0.00    +0.000 N 
ATOM      9  N   UNL     1      49.337   6.155  16.151  0.00  0.00    +0.000 NA
ATOM     10  C   UNL     1      48.988   5.160  17.006  0.00  0.00    +0.000 A 
ATOM     11  H   UNL     1      49.810   7.832  14.654  0.00  0.00    +0.000 HD
BRANCH   4  13
ATOM     12  N   UNL     1      48.461   3.242  18.933  0.00  0.00    +0.000 N 
ATOM     13  C   UNL     1      47.639   3.280  17.838  0.00  0.00    +0.000 C 
ATOM     14  O   UNL     1      46.683   2.523  17.747  0.00  0.00    +0.000 OA
ATOM     15  H   UNL     1      48.175   2.615  19.675  0.00  0.00    +0.000 HD
ATOM     16  H   UNL     1      49.108   3.986  19.168  0.00  0.00    +0.000 HD
ENDBRANCH   4  13
ENDBRANCH   1   8
BRANCH   1  17
ATOM     17  C   UNL     1      47.163   7.390  12.497  0.00  0.00    +0.000 A 
ATOM     18  C   UNL     1      46.164   8.326  12.813  0.00  0.00    +0.000 A 
ATOM     19  C   UNL     1      44.884   8.222  12.274  0.00  0.00    +0.000 A 
ATOM     20  C   UNL     1      44.572   7.153  11.439  0.00  0.00    +0.000 A 
ATOM     21  F   UNL     1      43.345   7.128  10.893  0.00  0.00    +0.000 F 
ATOM     22  C   UNL     1      45.498   6.138  11.163  0.00  0.00    +0.000 A 
ATOM     23  C   UNL     1      46.788   6.282  11.713  0.00  0.00    +0.000 A 
BRANCH  22  24
ATOM     24  C   UNL     1      45.181   4.975  10.308  0.00  0.00    +0.000 A 
ATOM     25  C   UNL     1      45.627   4.887   8.984  0.00  0.00    +0.000 A 
ATOM     26  C   UNL     1      45.308   3.761   8.232  0.00  0.00    +0.000 A 
ATOM     27  N   UNL     1      44.593   2.720   8.707  0.00  0.00    +0.000 NA
ATOM     28  C   UNL     1      44.167   2.814   9.980  0.00  0.00    +0.000 A 
ATOM     29  C   UNL     1      44.430   3.898  10.803  0.00  0.00    +0.000 A 
ENDBRANCH  22  24
ENDBRANCH   1  17
TORSDOF 4
ENDMDL
MODEL 4
REMARK VINA RESULT:    -7.242      4.271      6.466
REMARK INTER + INTRA:          -9.139
REMARK INTER:                  -8.308
REMARK INTRA:                  -0.831
REMARK UNBOUND:                -0.204
REMARK  Name = 
REMARK  4 active torsions:
REMARK  status: ('A' for Active; 'I' for Inactive)
REMARK    1  A    between atoms: C_2  and  C_4
REMARK    2  A    between atoms: N_8  and  C_9
REMARK    3  A    between atoms: C_9  and  C_10
REMARK    4  A    between atoms: C_15  and  C_16
REMARK                            x       y       z     vdW  Elec       q    Type
REMARK                         _______ _______ _______ _____ _____    ______ ____
ROOT
ATOM      1  C   UNL     1      45.777   4.325  12.945  0.00  0.00    +0.000 C 
ATOM      2  C   UNL     1      44.318   3.923  13.065  0.00  0.00    +0.000 C 
ATOM      3  C   UNL     1      45.020   3.707  11.767  0.00  0.00    +0.000 C 
ENDROOT
BRANCH   1   8
ATOM      4  C   UNL     1      48.355   3.795  17.460  0.00  0.00    +0.000 A 
ATOM      5  C   UNL     1      47.623   4.877  16.975  0.00  0.00    +0.000 A 
ATOM      6  C   UNL     1      47.058   4.802  15.695  0.00  0.00    +0.000 A 
ATOM      7  C   UNL     1      47.232   3.653  14.927  0.00  0.00    +0.000 A 
ATOM      8  N   UNL     1      46.786   3.513  13.616  0.00  0.00    +0.000 N 
ATOM      9  N   UNL     1      47.909   2.589  15.405  0.00  0.00    +0.000 NA
ATOM     10  C   UNL     1      48.460   2.679  16.642  0.00  0.00    +0.000 A 
ATOM     11  H   UNL     1      46.974   2.564  13.307  0.00  0.00    +0.000 HD
BRANCH   4  13
ATOM     12  N   UNL     1      48.403   3.246  19.838  0.00  0.00    +0.000 N 
ATOM     13  C   UNL     1      49.065   3.772  18.761  0.00  0.00    +0.000 C 
ATOM     14  O   UNL     1      50.207   4.195  18.874  0.00  0.00    +0.000 OA
ATOM     15  H   UNL     1      48.946   3.162  20.689  0.00  0.00    +0.000 HD
ATOM     16  H   UNL     1      47.568   2.676  19.754  0.00  0.00    +0.000 HD
ENDBRANCH   4  13
ENDBRANCH   1   8
BRANCH   1  17
ATOM     17  C   UNL     1      46.182   5.769  12.657  0.00  0.00    +0.000 A 
ATOM     18  C   UNL     1      45.219   6.793  12.648  0.00  0.00    +0.000 A 
ATOM     19  C   UNL     1      45.594   8.134  12.642  0.00  0.00    +0.000 A 
ATOM     20  C   UNL     1      46.944   8.472  12.603  0.00  0.00    +0.000 A 
ATOM     21  F   UNL     1      47.261   9.776  12.661  0.00  0.00    +0.000 F 
ATOM     22  C   UNL     1      47.947   7.496  12.516  0.00  0.00    +0.000 A 
ATOM     23  C   UNL     1      47.533   6.149  12.539  0.00  0.00    +0.000 A 
BRANCH  22  24
ATOM     24  C   UNL     1      49.385   7.830  12.439  0.00  0.00    +0.000 A 
ATOM     25  C   UNL     1      50.087   7.805  11.228  0.00  0.00    +0.000 A 
ATOM     26  C   UNL     1      51.436   8.141  11.217  0.00  0.00    +0.000 A 
ATOM     27  N   UNL     1      52.126   8.509  12.317  0.00  0.00    +0.000 NA
ATOM     28  C   UNL     1      51.444   8.530  13.476  0.00  0.00    +0.000 A 
ATOM     29  C   UNL     1      50.101   8.204  13.586  0.00  0.00    +0.000 A 
ENDBRANCH  22  24
ENDBRANCH   1  17
TORSDOF 4
ENDMDL
MODEL 5
REMARK VINA RESULT:    -7.112      5.862      8.576
REMARK INTER + INTRA:          -8.980
REMARK INTER:                  -8.582
REMARK INTRA:                  -0.397
REMARK UNBOUND:                -0.204
REMARK  Name = 
REMARK  4 active torsions:
REMARK  status: ('A' for Active; 'I' for Inactive)
REMARK    1  A    between atoms: C_2  and  C_4
REMARK    2  A    between atoms: N_8  and  C_9
REMARK    3  A    between atoms: C_9  and  C_10
REMARK    4  A    between atoms: C_15  and  C_16
REMARK                            x       y       z     vdW  Elec       q    Type
REMARK                         _______ _______ _______ _____ _____    ______ ____
ROOT
ATOM      1  C   UNL     1      48.230   4.329  16.971  0.00  0.00    +0.000 C 
ATOM      2  C   UNL     1      48.408   5.063  18.287  0.00  0.00    +0.000 C 
ATOM      3  C   UNL     1      47.127   4.347  18.031  0.00  0.00    +0.000 C 
ENDROOT
BRANCH   1   8
ATOM      4  C   UNL     1      52.785   1.960  17.952  0.00  0.00    +0.000 A 
ATOM      5  C   UNL     1      52.449   3.310  18.029  0.00  0.00    +0.000 A 
ATOM      6  C   UNL     1      51.160   3.718  17.661  0.00  0.00    +0.000 A 
ATOM      7  C   UNL     1      50.233   2.772  17.226  0.00  0.00    +0.000 A 
ATOM      8  N   UNL     1      48.959   3.083  16.758  0.00  0.00    +0.000 N 
ATOM      9  N   UNL     1      50.541   1.460  17.183  0.00  0.00    +0.000 NA
ATOM     10  C   UNL     1      51.796   1.081  17.533  0.00  0.00    +0.000 A 
ATOM     11  H   UNL     1      48.460   2.219  16.571  0.00  0.00    +0.000 HD
BRANCH   4  13
ATOM     12  N   UNL     1      54.197   0.213  18.904  0.00  0.00    +0.000 N 
ATOM     13  C   UNL     1      54.129   1.407  18.238  0.00  0.00    +0.000 C 
ATOM     14  O   UNL     1      55.147   1.986  17.887  0.00  0.00    +0.000 OA
ATOM     15  H   UNL     1      55.125  -0.182  19.005  0.00  0.00    +0.000 HD
ATOM     16  H   UNL     1      53.406  -0.414  19.005  0.00  0.00    +0.000 HD
ENDBRANCH   4  13
ENDBRANCH   1   8
BRANCH   1  17
ATOM     17  C   UNL     1      47.803   5.064  15.702  0.00  0.00    +0.000 A 
ATOM     18  C   UNL     1      48.583   6.114  15.188  0.00  0.00    +0.000 A 
ATOM     19  C   UNL     1      48.355   6.622  13.912  0.00  0.00    +0.000 A 
ATOM     20  C   UNL     1      47.312   6.112  13.143  0.00  0.00    +0.000 A 
ATOM     21  F   UNL     1      47.168   6.589  11.896  0.00  0.00    +0.000 F 
ATOM     22  C   UNL     1      46.442   5.131  13.638  0.00  0.00    +0.000 A 
ATOM     23  C   UNL     1      46.711   4.629  14.928  0.00  0.00    +0.000 A 
BRANCH  22  24
ATOM     24  C   UNL     1      45.307   4.598  12.856  0.00  0.00    +0.000 A 
ATOM     25  C   UNL     1      45.405   3.406  12.128  0.00  0.00    +0.000 A 
ATOM     26  C   UNL     1      44.298   2.948  11.421  0.00  0.00    +0.000 A 
ATOM     27  N   UNL     1      43.107   3.582  11.399  0.00  0.00    +0.000 NA
ATOM     28  C   UNL     1      43.022   4.728  12.100  0.00  0.00    +0.000 A 
ATOM     29  C   UNL     1      44.073   5.265  12.828  0.00  0.00    +0.000 A 
ENDBRANCH  22  24
ENDBRANCH   1  17
TORSDOF 4
ENDMDL
MODEL 6
REMARK VINA RESULT:    -6.640      3.605      6.370
REMARK INTER + INTRA:          -8.397
REMARK INTER:                  -7.952
REMARK INTRA:                  -0.445
REMARK UNBOUND:                -0.204
REMARK  Name = 
REMARK  4 active torsions:
REMARK  status: ('A' for Active; 'I' for Inactive)
REMARK    1  A    between atoms: C_2  and  C_4
REMARK    2  A    between atoms: N_8  and  C_9
REMARK    3  A    between atoms: C_9  and  C_10
REMARK    4  A    between atoms: C_15  and  C_16
REMARK                            x       y       z     vdW  Elec       q    Type
REMARK                         _______ _______ _______ _____ _____    ______ ____
ROOT
ATOM      1  C   UNL     1      48.300   8.590  12.683  0.00  0.00    +0.000 C 
ATOM      2  C   UNL     1      49.188   9.488  11.842  0.00  0.00    +0.000 C 
ATOM      3  C   UNL     1      49.422   8.016  11.815  0.00  0.00    +0.000 C 
ENDROOT
BRANCH   1   8
ATOM      4  C   UNL     1      44.663   4.875  12.144  0.00  0.00    +0.000 A 
ATOM      5  C   UNL     1      46.041   4.754  12.311  0.00  0.00    +0.000 A 
ATOM      6  C   UNL     1      46.827   5.912  12.381  0.00  0.00    +0.000 A 
ATOM      7  C   UNL     1      46.224   7.165  12.286  0.00  0.00    +0.000 A 
ATOM      8  N   UNL     1      46.922   8.369  12.259  0.00  0.00    +0.000 N 
ATOM      9  N   UNL     1      44.887   7.289  12.161  0.00  0.00    +0.000 NA
ATOM     10  C   UNL     1      44.139   6.159  12.084  0.00  0.00    +0.000 A 
ATOM     11  H   UNL     1      46.253   9.133  12.256  0.00  0.00    +0.000 HD
BRANCH   4  13
ATOM     12  N   UNL     1      44.039   2.563  12.615  0.00  0.00    +0.000 N 
ATOM     13  C   UNL     1      43.730   3.736  11.981  0.00  0.00    +0.000 C 
ATOM     14  O   UNL     1      42.710   3.836  11.314  0.00  0.00    +0.000 OA
ATOM     15  H   UNL     1      43.338   1.834  12.558  0.00  0.00    +0.000 HD
ATOM     16  H   UNL     1      44.728   2.497  13.357  0.00  0.00    +0.000 HD
ENDBRANCH   4  13
ENDBRANCH   1   8
BRANCH   1  17
ATOM     17  C   UNL     1      48.572   8.371  14.170  0.00  0.00    +0.000 A 
ATOM     18  C   UNL     1      48.528   9.449  15.070  0.00  0.00    +0.000 A 
ATOM     19  C   UNL     1      48.519   9.238  16.446  0.00  0.00    +0.000 A 
ATOM     20  C   UNL     1      48.595   7.940  16.945  0.00  0.00    +0.000 A 
ATOM     21  F   UNL     1      48.521   7.781  18.277  0.00  0.00    +0.000 F 
ATOM     22  C   UNL     1      48.735   6.832  16.099  0.00  0.00    +0.000 A 
ATOM     23  C   UNL     1      48.725   7.081  14.712  0.00  0.00    +0.000 A 
BRANCH  22  24
ATOM     24  C   UNL     1      48.852   5.448  16.605  0.00  0.00    +0.000 A 
ATOM     25  C   UNL     1      47.848   4.495  16.391  0.00  0.00    +0.000 A 
ATOM     26  C   UNL     1      48.020   3.204  16.880  0.00  0.00    +0.000 A 
ATOM     27  N   UNL     1      49.119   2.797  17.549  0.00  0.00    +0.000 NA
ATOM     28  C   UNL     1      50.078   3.719  17.751  0.00  0.00    +0.000 A 
ATOM     29  C   UNL     1      49.991   5.030  17.308  0.00  0.00    +0.000 A 
ENDBRANCH  22  24
ENDBRANCH   1  17
TORSDOF 4
ENDMDL
MODEL 7
REMARK VINA RESULT:    -6.616      4.589      8.416
REMARK INTER + INTRA:          -8.368
REMARK INTER:                  -8.094
REMARK INTRA:                  -0.274
REMARK UNBOUND:                -0.204
REMARK  Name = 
REMARK  4 active torsions:
REMARK  status: ('A' for Active; 'I' for Inactive)
REMARK    1  A    between atoms: C_2  and  C_4
REMARK    2  A    between atoms: N_8  and  C_9
REMARK    3  A    between atoms: C_9  and  C_10
REMARK    4  A    between atoms: C_15  and  C_16
REMARK                            x       y       z     vdW  Elec       q    Type
REMARK                         _______ _______ _______ _____ _____    ______ ____
ROOT
ATOM      1  C   UNL     1      49.040   7.678  12.577  0.00  0.00    +0.000 C 
ATOM      2  C   UNL     1      49.931   7.996  11.390  0.00  0.00    +0.000 C 
ATOM      3  C   UNL     1      49.480   9.111  12.271  0.00  0.00    +0.000 C 
ENDROOT
BRANCH   1   8
ATOM      4  C   UNL     1      48.934   7.568  17.801  0.00  0.00    +0.000 A 
ATOM      5  C   UNL     1      48.460   8.539  16.922  0.00  0.00    +0.000 A 
ATOM      6  C   UNL     1      48.652   8.368  15.544  0.00  0.00    +0.000 A 
ATOM      7  C   UNL     1      49.311   7.234  15.073  0.00  0.00    +0.000 A 
ATOM      8  N   UNL     1      49.627   7.012  13.735  0.00  0.00    +0.000 N 
ATOM      9  N   UNL     1      49.740   6.274  15.917  0.00  0.00    +0.000 NA
ATOM     10  C   UNL     1      49.556   6.457  17.249  0.00  0.00    +0.000 A 
ATOM     11  H   UNL     1      50.038   6.088  13.646  0.00  0.00    +0.000 HD
BRANCH   4  13
ATOM     12  N   UNL     1      50.031   7.536  19.981  0.00  0.00    +0.000 N 
ATOM     13  C   UNL     1      48.863   7.660  19.278  0.00  0.00    +0.000 C 
ATOM     14  O   UNL     1      47.802   7.852  19.857  0.00  0.00    +0.000 OA
ATOM     15  H   UNL     1      49.962   7.693  20.980  0.00  0.00    +0.000 HD
ATOM     16  H   UNL     1      50.948   7.614  19.554  0.00  0.00    +0.000 HD
ENDBRANCH   4  13
ENDBRANCH   1   8
BRANCH   1  17
ATOM     17  C   UNL     1      47.532   7.506  12.415  0.00  0.00    +0.000 A 
ATOM     18  C   UNL     1      46.658   8.569  12.701  0.00  0.00    +0.000 A 
ATOM     19  C   UNL     1      45.318   8.522  12.323  0.00  0.00    +0.000 A 
ATOM     20  C   UNL     1      44.822   7.388  11.685  0.00  0.00    +0.000 A 
ATOM     21  F   UNL     1      43.541   7.411  11.283  0.00  0.00    +0.000 F 
ATOM     22  C   UNL     1      45.622   6.260  11.458  0.00  0.00    +0.000 A 
ATOM     23  C   UNL     1      46.976   6.348  11.840  0.00  0.00    +0.000 A 
BRANCH  22  24
ATOM     24  C   UNL     1      45.110   5.031  10.814  0.00  0.00    +0.000 A 
ATOM     25  C   UNL     1      45.311   4.770   9.454  0.00  0.00    +0.000 A 
ATOM     26  C   UNL     1      44.818   3.590   8.907  0.00  0.00    +0.000 A 
ATOM     27  N   UNL     1      44.154   2.655   9.618  0.00  0.00    +0.000 NA
ATOM     28  C   UNL     1      43.965   2.915  10.925  0.00  0.00    +0.000 A 
ATOM     29  C   UNL     1      44.413   4.065  11.555  0.00  0.00    +0.000 A 
ENDBRANCH  22  24
ENDBRANCH   1  17
TORSDOF 4
ENDMDL
MODEL 8
REMARK VINA RESULT:    -6.308      3.517      5.932
REMARK INTER + INTRA:          -7.987
REMARK INTER:                  -7.209
REMARK INTRA:                  -0.778
REMARK UNBOUND:                -0.204
REMARK  Name = 
REMARK  4 active torsions:
REMARK  status: ('A' for Active; 'I' for Inactive)
REMARK    1  A    between atoms: C_2  and  C_4
REMARK    2  A    between atoms: N_8  and  C_9
REMARK    3  A    between atoms: C_9  and  C_10
REMARK    4  A    between atoms: C_15  and  C_16
REMARK                            x       y       z     vdW  Elec       q    Type
REMARK                         _______ _______ _______ _____ _____    ______ ____
ROOT
ATOM      1  C   UNL     1      47.839   8.215  13.625  0.00  0.00    +0.000 C 
ATOM      2  C   UNL     1      48.445   7.472  14.802  0.00  0.00    +0.000 C 
ATOM      3  C   UNL     1      48.106   8.916  14.959  0.00  0.00    +0.000 C 
ENDROOT
BRANCH   1   8
ATOM      4  C   UNL     1      44.622   4.374  12.139  0.00  0.00    +0.000 A 
ATOM      5  C   UNL     1      46.015   4.415  12.147  0.00  0.00    +0.000 A 
ATOM      6  C   UNL     1      46.663   5.592  12.546  0.00  0.00    +0.000 A 
ATOM      7  C   UNL     1      45.911   6.701  12.929  0.00  0.00    +0.000 A 
ATOM      8  N   UNL     1      46.454   7.939  13.258  0.00  0.00    +0.000 N 
ATOM      9  N   UNL     1      44.563   6.655  12.957  0.00  0.00    +0.000 NA
ATOM     10  C   UNL     1      43.949   5.513  12.558  0.00  0.00    +0.000 A 
ATOM     11  H   UNL     1      45.707   8.552  13.567  0.00  0.00    +0.000 HD
BRANCH   4  13
ATOM     12  N   UNL     1      43.667   2.161  12.522  0.00  0.00    +0.000 N 
ATOM     13  C   UNL     1      43.814   3.224  11.671  0.00  0.00    +0.000 C 
ATOM     14  O   UNL     1      43.286   3.220  10.568  0.00  0.00    +0.000 OA
ATOM     15  H   UNL     1      43.037   1.432  12.210  0.00  0.00    +0.000 HD
ATOM     16  H   UNL     1      43.876   2.210  13.513  0.00  0.00    +0.000 HD
ENDBRANCH   4  13
ENDBRANCH   1   8
BRANCH   1  17
ATOM     17  C   UNL     1      48.713   8.783  12.509  0.00  0.00    +0.000 A 
ATOM     18  C   UNL     1      48.447  10.054  11.970  0.00  0.00    +0.000 A 
ATOM     19  C   UNL     1      49.368  10.692  11.144  0.00  0.00    +0.000 A 
ATOM     20  C   UNL     1      50.557  10.049  10.809  0.00  0.00    +0.000 A 
ATOM     21  F   UNL     1      51.442  10.727  10.061  0.00  0.00    +0.000 F 
ATOM     22  C   UNL     1      50.835   8.744  11.239  0.00  0.00    +0.000 A 
ATOM     23  C   UNL     1      49.889   8.133  12.086  0.00  0.00    +0.000 A 
BRANCH  22  24
ATOM     24  C   UNL     1      52.074   8.026  10.870  0.00  0.00    +0.000 A 
ATOM     25  C   UNL     1      52.093   7.054   9.862  0.00  0.00    +0.000 A 
ATOM     26  C   UNL     1      53.292   6.421   9.551  0.00  0.00    +0.000 A 
ATOM     27  N   UNL     1      54.465   6.696  10.159  0.00  0.00    +0.000 NA
ATOM     28  C   UNL     1      54.436   7.631  11.127  0.00  0.00    +0.000 A 
ATOM     29  C   UNL     1      53.289   8.308  11.511  0.00  0.00    +0.000 A 
ENDBRANCH  22  24
ENDBRANCH   1  17
TORSDOF 4
ENDMDL
MODEL 9
REMARK VINA RESULT:    -6.254      4.044      6.847
REMARK INTER + INTRA:          -7.921
REMARK INTER:                  -7.104
REMARK INTRA:                  -0.817
REMARK UNBOUND:                -0.204
REMARK  Name = 
REMARK  4 active torsions:
REMARK  status: ('A' for Active; 'I' for Inactive)
REMARK    1  A    between atoms: C_2  and  C_4
REMARK    2  A    between atoms: N_8  and  C_9
REMARK    3  A    between atoms: C_9  and  C_10
REMARK    4  A    between atoms: C_15  and  C_16
REMARK                            x       y       z     vdW  Elec       q    Type
REMARK                         _______ _______ _______ _____ _____    ______ ____
ROOT
ATOM      1  C   UNL     1      49.272   8.394  13.021  0.00  0.00    +0.000 C 
ATOM      2  C   UNL     1      49.676   7.287  13.978  0.00  0.00    +0.000 C 
ATOM      3  C   UNL     1      49.959   8.702  14.353  0.00  0.00    +0.000 C 
ENDROOT
BRANCH   1   8
ATOM      4  C   UNL     1      44.666   6.400  11.563  0.00  0.00    +0.000 A 
ATOM      5  C   UNL     1      45.955   5.937  11.312  0.00  0.00    +0.000 A 
ATOM      6  C   UNL     1      47.051   6.681  11.768  0.00  0.00    +0.000 A 
ATOM      7  C   UNL     1      46.840   7.869  12.465  0.00  0.00    +0.000 A 
ATOM      8  N   UNL     1      47.857   8.722  12.885  0.00  0.00    +0.000 N 
ATOM      9  N   UNL     1      45.593   8.304  12.743  0.00  0.00    +0.000 NA
ATOM     10  C   UNL     1      44.541   7.578  12.286  0.00  0.00    +0.000 A 
ATOM     11  H   UNL     1      47.447   9.475  13.428  0.00  0.00    +0.000 HD
BRANCH   4  13
ATOM     12  N   UNL     1      42.243   6.120  11.657  0.00  0.00    +0.000 N 
ATOM     13  C   UNL     1      43.426   5.752  11.074  0.00  0.00    +0.000 C 
ATOM     14  O   UNL     1      43.449   4.925  10.174  0.00  0.00    +0.000 OA
ATOM     15  H   UNL     1      41.407   5.727  11.241  0.00  0.00    +0.000 HD
ATOM     16  H   UNL     1      42.139   6.954  12.225  0.00  0.00    +0.000 HD
ENDBRANCH   4  13
ENDBRANCH   1   8
BRANCH   1  17
ATOM     17  C   UNL     1      50.151   8.778  11.833  0.00  0.00    +0.000 A 
ATOM     18  C   UNL     1      50.331  10.128  11.486  0.00  0.00    +0.000 A 
ATOM     19  C   UNL     1      51.317  10.514  10.581  0.00  0.00    +0.000 A 
ATOM     20  C   UNL     1      52.115   9.546   9.977  0.00  0.00    +0.000 A 
ATOM     21  F   UNL     1      53.093   9.968   9.159  0.00  0.00    +0.000 F 
ATOM     22  C   UNL     1      51.920   8.178  10.212  0.00  0.00    +0.000 A 
ATOM     23  C   UNL     1      50.924   7.824  11.145  0.00  0.00    +0.000 A 
BRANCH  22  24
ATOM     24  C   UNL     1      52.731   7.129   9.558  0.00  0.00    +0.000 A 
ATOM     25  C   UNL     1      53.677   6.377  10.264  0.00  0.00    +0.000 A 
ATOM     26  C   UNL     1      54.401   5.394   9.597  0.00  0.00    +0.000 A 
ATOM     27  N   UNL     1      54.239   5.103   8.289  0.00  0.00    +0.000 NA
ATOM     28  C   UNL     1      53.328   5.831   7.618  0.00  0.00    +0.000 A 
ATOM     29  C   UNL     1      52.567   6.834   8.196  0.00  0.00    +0.000 A 
ENDBRANCH  22  24
ENDBRANCH   1  17
TORSDOF 4
ENDMDL
