MODEL 1
REMARK VINA RESULT:    -8.249      0.000      0.000
REMARK INTER + INTRA:         -12.913
REMARK INTER:                 -11.624
REMARK INTRA:                  -1.289
REMARK UNBOUND:                -1.289
REMARK  Name = 
REMARK  8 active torsions:
REMARK  status: ('A' for Active; 'I' for Inactive)
REMARK    1  A    between atoms: C_1  and  O_2
REMARK    2  A    between atoms: O_2  and  C_3
REMARK    3  A    between atoms: C_10  and  C_11
REMARK    4  A    between atoms: N_13  and  C_14
REMARK    5  A    between atoms: C_14  and  C_15
REMARK    6  A    between atoms: C_18  and  C_19
REMARK    7  A    between atoms: C_19  and  C_20
REMARK    8  A    between atoms: C_20  and  N_21
REMARK                            x       y       z     vdW  Elec       q    Type
REMARK                         _______ _______ _______ _____ _____    ______ ____
ROOT
ATOM      1  C   UNL     1      46.264   7.312  12.523  0.00  0.00    +0.000 A 
ATOM      2  C   UNL     1      44.907   7.209  12.848  0.00  0.00    +0.000 A 
ATOM      3  C   UNL     1      44.045   6.401  12.097  0.00  0.00    +0.000 A 
ATOM      4  C   UNL     1      44.510   5.681  10.986  0.00  0.00    +0.000 A 
ATOM      5  C   UNL     1      45.863   5.822  10.637  0.00  0.00    +0.000 A 
ATOM      6  C   UNL     1      46.731   6.618  11.402  0.00  0.00    +0.000 A 
ENDROOT
BRANCH   1   7
ATOM      7  C   UNL     1      47.197   8.115  13.397  0.00  0.00    +0.000 C 
BRANCH   7  10
ATOM      8  C   UNL     1      48.838   6.857  14.730  0.00  0.00    +0.000 C 
ATOM      9  O   UNL     1      49.690   6.978  13.847  0.00  0.00    +0.000 OA
ATOM     10  N   UNL     1      47.580   7.383  14.582  0.00  0.00    +0.000 N 
ATOM     11  H   UNL     1      46.878   7.218  15.287  0.00  0.00    +0.000 HD
BRANCH   8  19
ATOM     12  C   UNL     1      47.368   4.214  16.389  0.00  0.00    +0.000 A 
ATOM     13  N   UNL     1      47.005   3.222  17.233  0.00  0.00    +0.000 NA
ATOM     14  C   UNL     1      47.728   3.027  18.331  0.00  0.00    +0.000 A 
ATOM     15  N   UNL     1      48.805   3.708  18.707  0.00  0.00    +0.000 NA
ATOM     16  C   UNL     1      49.137   4.685  17.842  0.00  0.00    +0.000 A 
ATOM     17  S   UNL     1      50.487   5.657  18.163  0.00  0.00    +0.000 S 
ATOM     18  C   UNL     1      50.240   6.557  16.742  0.00  0.00    +0.000 A 
ATOM     19  C   UNL     1      49.141   6.143  15.988  0.00  0.00    +0.000 A 
ATOM     20  C   UNL     1      48.483   5.020  16.655  0.00  0.00    +0.000 A 
BRANCH  12  22
ATOM     21  C   UNL     1      47.113   3.614  14.157  0.00  0.00    +0.000 C 
ATOM     22  O   UNL     1      46.607   4.386  15.250  0.00  0.00    +0.000 OA
ENDBRANCH  12  22
ENDBRANCH   8  19
ENDBRANCH   7  10
ENDBRANCH   1   7
BRANCH   4  23
ATOM     23  C   UNL     1      43.626   4.757  10.162  0.00  0.00    +0.000 C 
BRANCH  23  24
ATOM     24  C   UNL     1      44.299   3.478   9.636  0.00  0.00    +0.000 C 
BRANCH  24  25
ATOM     25  N   UNL     1      44.509   3.531   8.194  0.00  0.00    +0.000 N 
ATOM     26  C   UNL     1      45.483   2.643   7.738  0.00  0.00    +0.000 A 
ATOM     27  N   UNL     1      45.696   1.498   8.386  0.00  0.00    +0.000 NA
ATOM     28  C   UNL     1      46.646   0.713   7.886  0.00  0.00    +0.000 A 
ATOM     29  N   UNL     1      47.389   0.978   6.827  0.00  0.00    +0.000 NA
ATOM     30  C   UNL     1      47.080   2.146   6.275  0.00  0.00    +0.000 A 
ATOM     31 CL   UNL     1      48.007   2.590   4.908  0.00  0.00    +0.000 Cl
ATOM     32  N   UNL     1      46.162   3.022   6.668  0.00  0.00    +0.000 NA
ATOM     33  H   UNL     1      44.747   4.441   7.812  0.00  0.00    +0.000 HD
ENDBRANCH  24  25
ENDBRANCH  23  24
ENDBRANCH   4  23
TORSDOF 7
ENDMDL
MODEL 2
REMARK VINA RESULT:    -7.498      1.895      2.435
REMARK INTER + INTRA:         -11.855
REMARK INTER:                 -10.762
REMARK INTRA:                  -1.093
REMARK UNBOUND:                -1.289
REMARK  Name = 
REMARK  8 active torsions:
REMARK  status: ('A' for Active; 'I' for Inactive)
REMARK    1  A    between atoms: C_1  and  O_2
REMARK    2  A    between atoms: O_2  and  C_3
REMARK    3  A    between atoms: C_10  and  C_11
REMARK    4  A    between atoms: N_13  and  C_14
REMARK    5  A    between atoms: C_14  and  C_15
REMARK    6  A    between atoms: C_18  and  C_19
REMARK    7  A    between atoms: C_19  and  C_20
REMARK    8  A    between atoms: C_20  and  N_21
REMARK                            x       y       z     vdW  Elec       q    Type
REMARK                         _______ _______ _______ _____ _____    ______ ____
ROOT
ATOM      1  C   UNL     1      46.633   6.709  13.265  0.00  0.00    +0.000 A 
ATOM      2  C   UNL     1      45.452   7.104  12.627  0.00  0.00    +0.000 A 
ATOM      3  C   UNL     1      44.421   6.187  12.384  0.00  0.00    +0.000 A 
ATOM      4  C   UNL     1      44.545   4.841  12.757  0.00  0.00    +0.000 A 
ATOM      5  C   UNL     1      45.750   4.439  13.356  0.00  0.00    +0.000 A 
ATOM      6  C   UNL     1      46.775   5.362  13.617  0.00  0.00    +0.000 A 
ENDROOT
BRANCH   1   7
ATOM      7  C   UNL     1      47.695   7.727  13.600  0.00  0.00    +0.000 C 
BRANCH   7  10
ATOM      8  C   UNL     1      48.995   7.257  15.635  0.00  0.00    +0.000 C 
ATOM      9  O   UNL     1      49.831   6.623  14.988  0.00  0.00    +0.000 OA
ATOM     10  N   UNL     1      47.906   7.827  15.026  0.00  0.00    +0.000 N 
ATOM     11  H   UNL     1      47.200   8.286  15.581  0.00  0.00    +0.000 HD
BRANCH   8  19
ATOM     12  C   UNL     1      48.669   5.137  18.337  0.00  0.00    +0.000 A 
ATOM     13  N   UNL     1      48.608   4.544  19.551  0.00  0.00    +0.000 NA
ATOM     14  C   UNL     1      48.850   5.282  20.630  0.00  0.00    +0.000 A 
ATOM     15  N   UNL     1      49.162   6.572  20.659  0.00  0.00    +0.000 NA
ATOM     16  C   UNL     1      49.215   7.127  19.434  0.00  0.00    +0.000 A 
ATOM     17  S   UNL     1      49.600   8.770  19.280  0.00  0.00    +0.000 S 
ATOM     18  C   UNL     1      49.464   8.696  17.587  0.00  0.00    +0.000 A 
ATOM     19  C   UNL     1      49.134   7.432  17.097  0.00  0.00    +0.000 A 
ATOM     20  C   UNL     1      48.985   6.496  18.210  0.00  0.00    +0.000 A 
BRANCH  12  22
ATOM     21  C   UNL     1      47.188   3.641  17.351  0.00  0.00    +0.000 C 
ATOM     22  O   UNL     1      48.427   4.344  17.233  0.00  0.00    +0.000 OA
ENDBRANCH  12  22
ENDBRANCH   8  19
ENDBRANCH   7  10
ENDBRANCH   1   7
BRANCH   4  23
ATOM     23  C   UNL     1      43.441   3.815  12.555  0.00  0.00    +0.000 C 
BRANCH  23  24
ATOM     24  C   UNL     1      43.321   3.228  11.138  0.00  0.00    +0.000 C 
BRANCH  24  25
ATOM     25  N   UNL     1      44.453   2.367  10.811  0.00  0.00    +0.000 N 
ATOM     26  C   UNL     1      45.122   2.741   9.647  0.00  0.00    +0.000 A 
ATOM     27  N   UNL     1      45.148   4.021   9.275  0.00  0.00    +0.000 NA
ATOM     28  C   UNL     1      45.803   4.288   8.149  0.00  0.00    +0.000 A 
ATOM     29  N   UNL     1      46.407   3.402   7.379  0.00  0.00    +0.000 NA
ATOM     30  C   UNL     1      46.307   2.167   7.856  0.00  0.00    +0.000 A 
ATOM     31 CL   UNL     1      47.039   0.944   6.913  0.00  0.00    +0.000 Cl
ATOM     32  N   UNL     1      45.686   1.763   8.959  0.00  0.00    +0.000 NA
ATOM     33  H   UNL     1      44.247   1.377  10.722  0.00  0.00    +0.000 HD
ENDBRANCH  24  25
ENDBRANCH  23  24
ENDBRANCH   4  23
TORSDOF 7
ENDMDL
MODEL 3
REMARK VINA RESULT:    -6.914      1.589      2.185
REMARK INTER + INTRA:         -11.033
REMARK INTER:                  -9.911
REMARK INTRA:                  -1.122
REMARK UNBOUND:                -1.289
REMARK  Name = 
REMARK  8 active torsions:
REMARK  status: ('A' for Active; 'I' for Inactive)
REMARK    1  A    between atoms: C_1  and  O_2
REMARK    2  A    between atoms: O_2  and  C_3
REMARK    3  A    between atoms: C_10  and  C_11
REMARK    4  A    between atoms: N_13  and  C_14
REMARK    5  A    between atoms: C_14  and  C_15
REMARK    6  A    between atoms: C_18  and  C_19
REMARK    7  A    between atoms: C_19  and  C_20
REMARK    8  A    between atoms: C_20  and  N_21
REMARK                            x       y       z     vdW  Elec       q    Type
REMARK                         _______ _______ _______ _____ _____    ______ ____
ROOT
ATOM      1  C   UNL     1      48.528   7.451  13.205  0.00  0.00    +0.000 A 
ATOM      2  C   UNL     1      47.785   8.415  12.515  0.00  0.00    +0.000 A 
ATOM      3  C   UNL     1      46.560   8.091  11.919  0.00  0.00    +0.000 A 
ATOM      4  C   UNL     1      46.046   6.788  11.981  0.00  0.00    +0.000 A 
ATOM      5  C   UNL     1      46.816   5.813  12.636  0.00  0.00    +0.000 A 
ATOM      6  C   UNL     1      48.035   6.142  13.250  0.00  0.00    +0.000 A 
ENDROOT
BRANCH   1   7
ATOM      7  C   UNL     1      49.801   7.838  13.919  0.00  0.00    +0.000 C 
BRANCH   7  10
ATOM      8  C   UNL     1      50.928   7.129  15.988  0.00  0.00    +0.000 C 
ATOM      9  O   UNL     1      52.029   7.172  15.435  0.00  0.00    +0.000 OA
ATOM     10  N   UNL     1      49.777   7.436  15.306  0.00  0.00    +0.000 N 
ATOM     11  H   UNL     1      48.881   7.333  15.756  0.00  0.00    +0.000 HD
BRANCH   8  19
ATOM     12  C   UNL     1      48.960   4.866  17.692  0.00  0.00    +0.000 A 
ATOM     13  N   UNL     1      48.331   4.079  18.593  0.00  0.00    +0.000 NA
ATOM     14  C   UNL     1      48.665   4.191  19.875  0.00  0.00    +0.000 A 
ATOM     15  N   UNL     1      49.578   5.004  20.392  0.00  0.00    +0.000 NA
ATOM     16  C   UNL     1      50.185   5.770  19.465  0.00  0.00    +0.000 A 
ATOM     17  S   UNL     1      51.380   6.870  19.946  0.00  0.00    +0.000 S 
ATOM     18  C   UNL     1      51.613   7.395  18.346  0.00  0.00    +0.000 A 
ATOM     19  C   UNL     1      50.803   6.749  17.411  0.00  0.00    +0.000 A 
ATOM     20  C   UNL     1      49.947   5.777  18.090  0.00  0.00    +0.000 A 
BRANCH  12  22
ATOM     21  C   UNL     1      47.349   4.045  16.229  0.00  0.00    +0.000 C 
ATOM     22  O   UNL     1      48.604   4.718  16.366  0.00  0.00    +0.000 OA
ENDBRANCH  12  22
ENDBRANCH   8  19
ENDBRANCH   7  10
ENDBRANCH   1   7
BRANCH   4  23
ATOM     23  C   UNL     1      44.702   6.393  11.387  0.00  0.00    +0.000 C 
BRANCH  23  24
ATOM     24  C   UNL     1      44.628   4.986  10.769  0.00  0.00    +0.000 C 
BRANCH  24  25
ATOM     25  N   UNL     1      44.720   5.030   9.314  0.00  0.00    +0.000 N 
ATOM     26  C   UNL     1      45.238   3.864   8.751  0.00  0.00    +0.000 A 
ATOM     27  N   UNL     1      45.052   2.692   9.357  0.00  0.00    +0.000 NA
ATOM     28  C   UNL     1      45.584   1.633   8.755  0.00  0.00    +0.000 A 
ATOM     29  N   UNL     1      46.278   1.651   7.632  0.00  0.00    +0.000 NA
ATOM     30  C   UNL     1      46.394   2.875   7.131  0.00  0.00    +0.000 A 
ATOM     31 CL   UNL     1      47.300   3.005   5.687  0.00  0.00    +0.000 Cl
ATOM     32  N   UNL     1      45.917   4.012   7.626  0.00  0.00    +0.000 NA
ATOM     33  H   UNL     1      45.254   5.801   8.924  0.00  0.00    +0.000 HD
ENDBRANCH  24  25
ENDBRANCH  23  24
ENDBRANCH   4  23
TORSDOF 7
ENDMDL
MODEL 4
REMARK VINA RESULT:    -6.629      2.676      3.448
REMARK INTER + INTRA:         -10.631
REMARK INTER:                  -9.746
REMARK INTRA:                  -0.885
REMARK UNBOUND:                -1.289
REMARK  Name = 
REMARK  8 active torsions:
REMARK  status: ('A' for Active; 'I' for Inactive)
REMARK    1  A    between atoms: C_1  and  O_2
REMARK    2  A    between atoms: O_2  and  C_3
REMARK    3  A    between atoms: C_10  and  C_11
REMARK    4  A    between atoms: N_13  and  C_14
REMARK    5  A    between atoms: C_14  and  C_15
REMARK    6  A    between atoms: C_18  and  C_19
REMARK    7  A    between atoms: C_19  and  C_20
REMARK    8  A    between atoms: C_20  and  N_21
REMARK                            x       y       z     vdW  Elec       q    Type
REMARK                         _______ _______ _______ _____ _____    ______ ____
ROOT
ATOM      1  C   UNL     1      48.441   7.786  13.558  0.00  0.00    +0.000 A 
ATOM      2  C   UNL     1      47.236   8.474  13.740  0.00  0.00    +0.000 A 
ATOM      3  C   UNL     1      46.100   8.151  12.988  0.00  0.00    +0.000 A 
ATOM      4  C   UNL     1      46.136   7.140  12.018  0.00  0.00    +0.000 A 
ATOM      5  C   UNL     1      47.359   6.481  11.807  0.00  0.00    +0.000 A 
ATOM      6  C   UNL     1      48.492   6.791  12.575  0.00  0.00    +0.000 A 
ENDROOT
BRANCH   1   7
ATOM      7  C   UNL     1      49.629   8.084  14.440  0.00  0.00    +0.000 C 
BRANCH   7  10
ATOM      8  C   UNL     1      49.119   6.713  16.419  0.00  0.00    +0.000 C 
ATOM      9  O   UNL     1      49.214   5.677  15.759  0.00  0.00    +0.000 OA
ATOM     10  N   UNL     1      49.302   7.944  15.841  0.00  0.00    +0.000 N 
ATOM     11  H   UNL     1      49.157   8.782  16.381  0.00  0.00    +0.000 HD
BRANCH   8  19
ATOM     12  C   UNL     1      47.685   8.951  18.618  0.00  0.00    +0.000 A 
ATOM     13  N   UNL     1      47.168   9.617  19.675  0.00  0.00    +0.000 NA
ATOM     14  C   UNL     1      47.158   9.015  20.860  0.00  0.00    +0.000 A 
ATOM     15  N   UNL     1      47.603   7.795  21.138  0.00  0.00    +0.000 NA
ATOM     16  C   UNL     1      48.107   7.163  20.061  0.00  0.00    +0.000 A 
ATOM     17  S   UNL     1      48.722   5.593  20.230  0.00  0.00    +0.000 S 
ATOM     18  C   UNL     1      49.132   5.521  18.582  0.00  0.00    +0.000 A 
ATOM     19  C   UNL     1      48.808   6.673  17.863  0.00  0.00    +0.000 A 
ATOM     20  C   UNL     1      48.196   7.654  18.758  0.00  0.00    +0.000 A 
BRANCH  12  22
ATOM     21  C   UNL     1      48.240  10.904  17.483  0.00  0.00    +0.000 C 
ATOM     22  O   UNL     1      47.670   9.595  17.396  0.00  0.00    +0.000 OA
ENDBRANCH  12  22
ENDBRANCH   8  19
ENDBRANCH   7  10
ENDBRANCH   1   7
BRANCH   4  23
ATOM     23  C   UNL     1      44.921   6.721  11.203  0.00  0.00    +0.000 C 
BRANCH  23  24
ATOM     24  C   UNL     1      44.937   5.280  10.666  0.00  0.00    +0.000 C 
BRANCH  24  25
ATOM     25  N   UNL     1      45.067   5.245   9.214  0.00  0.00    +0.000 N 
ATOM     26  C   UNL     1      45.454   4.001   8.717  0.00  0.00    +0.000 A 
ATOM     27  N   UNL     1      45.115   2.889   9.368  0.00  0.00    +0.000 NA
ATOM     28  C   UNL     1      45.531   1.747   8.827  0.00  0.00    +0.000 A 
ATOM     29  N   UNL     1      46.248   1.631   7.725  0.00  0.00    +0.000 NA
ATOM     30  C   UNL     1      46.522   2.809   7.175  0.00  0.00    +0.000 A 
ATOM     31 CL   UNL     1      47.470   2.763   5.753  0.00  0.00    +0.000 Cl
ATOM     32  N   UNL     1      46.173   4.015   7.606  0.00  0.00    +0.000 NA
ATOM     33  H   UNL     1      45.698   5.929   8.807  0.00  0.00    +0.000 HD
ENDBRANCH  24  25
ENDBRANCH  23  24
ENDBRANCH   4  23
TORSDOF 7
ENDMDL
MODEL 5
REMARK VINA RESULT:    -6.015      2.518      3.739
REMARK INTER + INTRA:          -9.766
REMARK INTER:                  -8.726
REMARK INTRA:                  -1.040
REMARK UNBOUND:                -1.289
REMARK  Name = 
REMARK  8 active torsions:
REMARK  status: ('A' for Active; 'I' for Inactive)
REMARK    1  A    between atoms: C_1  and  O_2
REMARK    2  A    between atoms: O_2  and  C_3
REMARK    3  A    between atoms: C_10  and  C_11
REMARK    4  A    between atoms: N_13  and  C_14
REMARK    5  A    between atoms: C_14  and  C_15
REMARK    6  A    between atoms: C_18  and  C_19
REMARK    7  A    between atoms: C_19  and  C_20
REMARK    8  A    between atoms: C_20  and  N_21
REMARK                            x       y       z     vdW  Elec       q    Type
REMARK                         _______ _______ _______ _____ _____    ______ ____
ROOT
ATOM      1  C   UNL     1      49.633   7.991  13.733  0.00  0.00    +0.000 A 
ATOM      2  C   UNL     1      48.638   8.753  14.354  0.00  0.00    +0.000 A 
ATOM      3  C   UNL     1      47.364   8.876  13.787  0.00  0.00    +0.000 A 
ATOM      4  C   UNL     1      47.049   8.254  12.570  0.00  0.00    +0.000 A 
ATOM      5  C   UNL     1      48.064   7.527  11.927  0.00  0.00    +0.000 A 
ATOM      6  C   UNL     1      49.335   7.388  12.506  0.00  0.00    +0.000 A 
ENDROOT
BRANCH   1   7
ATOM      7  C   UNL     1      50.971   7.794  14.403  0.00  0.00    +0.000 C 
BRANCH   7  10
ATOM      8  C   UNL     1      51.867   6.660  16.394  0.00  0.00    +0.000 C 
ATOM      9  O   UNL     1      52.968   6.528  15.858  0.00  0.00    +0.000 OA
ATOM     10  N   UNL     1      50.825   7.268  15.741  0.00  0.00    +0.000 N 
ATOM     11  H   UNL     1      49.914   7.310  16.171  0.00  0.00    +0.000 HD
BRANCH   8  19
ATOM     12  C   UNL     1      49.128   5.317  18.005  0.00  0.00    +0.000 A 
ATOM     13  N   UNL     1      48.234   4.780  18.865  0.00  0.00    +0.000 NA
ATOM     14  C   UNL     1      48.622   4.536  20.113  0.00  0.00    +0.000 A 
ATOM     15  N   UNL     1      49.825   4.758  20.631  0.00  0.00    +0.000 NA
ATOM     16  C   UNL     1      50.687   5.291  19.745  0.00  0.00    +0.000 A 
ATOM     17  S   UNL     1      52.272   5.642  20.234  0.00  0.00    +0.000 S 
ATOM     18  C   UNL     1      52.671   6.233  18.691  0.00  0.00    +0.000 A 
ATOM     19  C   UNL     1      51.625   6.174  17.769  0.00  0.00    +0.000 A 
ATOM     20  C   UNL     1      50.438   5.609  18.410  0.00  0.00    +0.000 A 
BRANCH  12  22
ATOM     21  C   UNL     1      47.748   4.568  16.290  0.00  0.00    +0.000 C 
ATOM     22  O   UNL     1      48.702   5.547  16.712  0.00  0.00    +0.000 OA
ENDBRANCH  12  22
ENDBRANCH   8  19
ENDBRANCH   7  10
ENDBRANCH   1   7
BRANCH   4  23
ATOM     23  C   UNL     1      45.669   8.321  11.931  0.00  0.00    +0.000 C 
BRANCH  23  24
ATOM     24  C   UNL     1      44.858   7.014  11.948  0.00  0.00    +0.000 C 
BRANCH  24  25
ATOM     25  N   UNL     1      44.905   6.331  10.660  0.00  0.00    +0.000 N 
ATOM     26  C   UNL     1      44.461   5.011  10.710  0.00  0.00    +0.000 A 
ATOM     27  N   UNL     1      43.541   4.651  11.605  0.00  0.00    +0.000 NA
ATOM     28  C   UNL     1      43.178   3.372  11.588  0.00  0.00    +0.000 A 
ATOM     29  N   UNL     1      43.657   2.445  10.778  0.00  0.00    +0.000 NA
ATOM     30  C   UNL     1      44.566   2.929   9.939  0.00  0.00    +0.000 A 
ATOM     31 CL   UNL     1      45.265   1.797   8.866  0.00  0.00    +0.000 Cl
ATOM     32  N   UNL     1      45.018   4.175   9.850  0.00  0.00    +0.000 NA
ATOM     33  H   UNL     1      45.810   6.315  10.198  0.00  0.00    +0.000 HD
ENDBRANCH  24  25
ENDBRANCH  23  24
ENDBRANCH   4  23
TORSDOF 7
ENDMDL
MODEL 6
REMARK VINA RESULT:    -6.013      3.256      4.208
REMARK INTER + INTRA:          -9.762
REMARK INTER:                  -8.472
REMARK INTRA:                  -1.290
REMARK UNBOUND:                -1.289
REMARK  Name = 
REMARK  8 active torsions:
REMARK  status: ('A' for Active; 'I' for Inactive)
REMARK    1  A    between atoms: C_1  and  O_2
REMARK    2  A    between atoms: O_2  and  C_3
REMARK    3  A    between atoms: C_10  and  C_11
REMARK    4  A    between atoms: N_13  and  C_14
REMARK    5  A    between atoms: C_14  and  C_15
REMARK    6  A    between atoms: C_18  and  C_19
REMARK    7  A    between atoms: C_19  and  C_20
REMARK    8  A    between atoms: C_20  and  N_21
REMARK                            x       y       z     vdW  Elec       q    Type
REMARK                         _______ _______ _______ _____ _____    ______ ____
ROOT
ATOM      1  C   UNL     1      48.703   8.788  13.505  0.00  0.00    +0.000 A 
ATOM      2  C   UNL     1      48.774   9.552  12.335  0.00  0.00    +0.000 A 
ATOM      3  C   UNL     1      47.612   9.972  11.676  0.00  0.00    +0.000 A 
ATOM      4  C   UNL     1      46.341   9.629  12.158  0.00  0.00    +0.000 A 
ATOM      5  C   UNL     1      46.275   8.825  13.308  0.00  0.00    +0.000 A 
ATOM      6  C   UNL     1      47.439   8.420  13.979  0.00  0.00    +0.000 A 
ENDROOT
BRANCH   1   7
ATOM      7  C   UNL     1      49.962   8.420  14.252  0.00  0.00    +0.000 C 
BRANCH   7  10
ATOM      8  C   UNL     1      50.718   6.863  16.001  0.00  0.00    +0.000 C 
ATOM      9  O   UNL     1      51.899   7.130  15.766  0.00  0.00    +0.000 OA
ATOM     10  N   UNL     1      49.701   7.452  15.292  0.00  0.00    +0.000 N 
ATOM     11  H   UNL     1      48.746   7.174  15.454  0.00  0.00    +0.000 HD
BRANCH   8  19
ATOM     12  C   UNL     1      48.233   4.492  16.314  0.00  0.00    +0.000 A 
ATOM     13  N   UNL     1      47.381   3.515  16.696  0.00  0.00    +0.000 NA
ATOM     14  C   UNL     1      47.552   2.955  17.890  0.00  0.00    +0.000 A 
ATOM     15  N   UNL     1      48.496   3.246  18.778  0.00  0.00    +0.000 NA
ATOM     16  C   UNL     1      49.325   4.222  18.362  0.00  0.00    +0.000 A 
ATOM     17  S   UNL     1      50.592   4.724  19.369  0.00  0.00    +0.000 S 
ATOM     18  C   UNL     1      51.111   5.873  18.229  0.00  0.00    +0.000 A 
ATOM     19  C   UNL     1      50.349   5.901  17.060  0.00  0.00    +0.000 A 
ATOM     20  C   UNL     1      49.279   4.909  17.148  0.00  0.00    +0.000 A 
BRANCH  12  22
ATOM     21  C   UNL     1      46.707   4.831  14.593  0.00  0.00    +0.000 C 
ATOM     22  O   UNL     1      48.040   5.046  15.063  0.00  0.00    +0.000 OA
ENDBRANCH  12  22
ENDBRANCH   8  19
ENDBRANCH   7  10
ENDBRANCH   1   7
BRANCH   4  23
ATOM     23  C   UNL     1      45.048  10.095  11.506  0.00  0.00    +0.000 C 
BRANCH  23  24
ATOM     24  C   UNL     1      44.042   8.988  11.145  0.00  0.00    +0.000 C 
BRANCH  24  25
ATOM     25  N   UNL     1      44.711   7.782  10.670  0.00  0.00    +0.000 N 
ATOM     26  C   UNL     1      44.117   6.602  11.114  0.00  0.00    +0.000 A 
ATOM     27  N   UNL     1      42.808   6.566  11.360  0.00  0.00    +0.000 NA
ATOM     28  C   UNL     1      42.325   5.403  11.785  0.00  0.00    +0.000 A 
ATOM     29  N   UNL     1      43.028   4.304  11.991  0.00  0.00    +0.000 NA
ATOM     30  C   UNL     1      44.316   4.471  11.713  0.00  0.00    +0.000 A 
ATOM     31 CL   UNL     1      45.315   3.108  11.972  0.00  0.00    +0.000 Cl
ATOM     32  N   UNL     1      44.927   5.570  11.285  0.00  0.00    +0.000 NA
ATOM     33  H   UNL     1      45.701   7.708  10.887  0.00  0.00    +0.000 HD
ENDBRANCH  24  25
ENDBRANCH  23  24
ENDBRANCH   4  23
TORSDOF 7
ENDMDL
MODEL 7
REMARK VINA RESULT:    -5.852      4.593      8.196
REMARK INTER + INTRA:          -9.536
REMARK INTER:                  -8.359
REMARK INTRA:                  -1.176
REMARK UNBOUND:                -1.289
REMARK  Name = 
REMARK  8 active torsions:
REMARK  status: ('A' for Active; 'I' for Inactive)
REMARK    1  A    between atoms: C_1  and  O_2
REMARK    2  A    between atoms: O_2  and  C_3
REMARK    3  A    between atoms: C_10  and  C_11
REMARK    4  A    between atoms: N_13  and  C_14
REMARK    5  A    between atoms: C_14  and  C_15
REMARK    6  A    between atoms: C_18  and  C_19
REMARK    7  A    between atoms: C_19  and  C_20
REMARK    8  A    between atoms: C_20  and  N_21
REMARK                            x       y       z     vdW  Elec       q    Type
REMARK                         _______ _______ _______ _____ _____    ______ ____
ROOT
ATOM      1  C   UNL     1      48.935   9.146  14.401  0.00  0.00    +0.000 A 
ATOM      2  C   UNL     1      50.224   8.601  14.399  0.00  0.00    +0.000 A 
ATOM      3  C   UNL     1      50.788   8.078  15.568  0.00  0.00    +0.000 A 
ATOM      4  C   UNL     1      50.088   8.098  16.783  0.00  0.00    +0.000 A 
ATOM      5  C   UNL     1      48.813   8.686  16.791  0.00  0.00    +0.000 A 
ATOM      6  C   UNL     1      48.239   9.193  15.614  0.00  0.00    +0.000 A 
ENDROOT
BRANCH   1   7
ATOM      7  C   UNL     1      48.307   9.622  13.114  0.00  0.00    +0.000 C 
BRANCH   7  10
ATOM      8  C   UNL     1      46.993   7.775  12.157  0.00  0.00    +0.000 C 
ATOM      9  O   UNL     1      48.012   7.244  11.712  0.00  0.00    +0.000 OA
ATOM     10  N   UNL     1      47.052   8.955  12.855  0.00  0.00    +0.000 N 
ATOM     11  H   UNL     1      46.202   9.407  13.155  0.00  0.00    +0.000 HD
BRANCH   8  19
ATOM     12  C   UNL     1      45.648   4.699  12.951  0.00  0.00    +0.000 A 
ATOM     13  N   UNL     1      44.881   3.602  13.137  0.00  0.00    +0.000 NA
ATOM     14  C   UNL     1      43.626   3.624  12.701  0.00  0.00    +0.000 A 
ATOM     15  N   UNL     1      43.012   4.631  12.090  0.00  0.00    +0.000 NA
ATOM     16  C   UNL     1      43.806   5.706  11.925  0.00  0.00    +0.000 A 
ATOM     17  S   UNL     1      43.188   7.087  11.162  0.00  0.00    +0.000 S 
ATOM     18  C   UNL     1      44.672   7.902  11.323  0.00  0.00    +0.000 A 
ATOM     19  C   UNL     1      45.664   7.158  11.962  0.00  0.00    +0.000 A 
ATOM     20  C   UNL     1      45.138   5.841  12.318  0.00  0.00    +0.000 A 
BRANCH  12  22
ATOM     21  C   UNL     1      46.982   4.345  14.823  0.00  0.00    +0.000 C 
ATOM     22  O   UNL     1      46.944   4.654  13.427  0.00  0.00    +0.000 OA
ENDBRANCH  12  22
ENDBRANCH   8  19
ENDBRANCH   7  10
ENDBRANCH   1   7
BRANCH   4  23
ATOM     23  C   UNL     1      50.638   7.506  18.073  0.00  0.00    +0.000 C 
BRANCH  23  24
ATOM     24  C   UNL     1      50.391   6.002  18.279  0.00  0.00    +0.000 C 
BRANCH  24  25
ATOM     25  N   UNL     1      51.541   5.204  17.869  0.00  0.00    +0.000 N 
ATOM     26  C   UNL     1      51.230   3.870  17.606  0.00  0.00    +0.000 A 
ATOM     27  N   UNL     1      50.018   3.544  17.159  0.00  0.00    +0.000 NA
ATOM     28  C   UNL     1      49.806   2.250  16.940  0.00  0.00    +0.000 A 
ATOM     29  N   UNL     1      50.680   1.280  17.138  0.00  0.00    +0.000 NA
ATOM     30  C   UNL     1      51.845   1.734  17.585  0.00  0.00    +0.000 A 
ATOM     31 CL   UNL     1      53.036   0.548  17.896  0.00  0.00    +0.000 Cl
ATOM     32  N   UNL     1      52.189   2.990  17.846  0.00  0.00    +0.000 NA
ATOM     33  H   UNL     1      52.329   5.197  18.510  0.00  0.00    +0.000 HD
ENDBRANCH  24  25
ENDBRANCH  23  24
ENDBRANCH   4  23
TORSDOF 7
ENDMDL
MODEL 8
REMARK VINA RESULT:    -5.780      3.746      8.562
REMARK INTER + INTRA:          -9.435
REMARK INTER:                  -8.517
REMARK INTRA:                  -0.917
REMARK UNBOUND:                -1.289
REMARK  Name = 
REMARK  8 active torsions:
REMARK  status: ('A' for Active; 'I' for Inactive)
REMARK    1  A    between atoms: C_1  and  O_2
REMARK    2  A    between atoms: O_2  and  C_3
REMARK    3  A    between atoms: C_10  and  C_11
REMARK    4  A    between atoms: N_13  and  C_14
REMARK    5  A    between atoms: C_14  and  C_15
REMARK    6  A    between atoms: C_18  and  C_19
REMARK    7  A    between atoms: C_19  and  C_20
REMARK    8  A    between atoms: C_20  and  N_21
REMARK                            x       y       z     vdW  Elec       q    Type
REMARK                         _______ _______ _______ _____ _____    ______ ____
ROOT
ATOM      1  C   UNL     1      48.558   8.475  12.839  0.00  0.00    +0.000 A 
ATOM      2  C   UNL     1      49.889   8.098  12.633  0.00  0.00    +0.000 A 
ATOM      3  C   UNL     1      50.822   8.146  13.676  0.00  0.00    +0.000 A 
ATOM      4  C   UNL     1      50.458   8.588  14.955  0.00  0.00    +0.000 A 
ATOM      5  C   UNL     1      49.131   9.007  15.147  0.00  0.00    +0.000 A 
ATOM      6  C   UNL     1      48.191   8.941  14.107  0.00  0.00    +0.000 A 
ENDROOT
BRANCH   1   7
ATOM      7  C   UNL     1      47.545   8.332  11.729  0.00  0.00    +0.000 C 
BRANCH   7  10
ATOM      8  C   UNL     1      45.497   6.990  11.481  0.00  0.00    +0.000 C 
ATOM      9  O   UNL     1      44.868   7.974  11.085  0.00  0.00    +0.000 OA
ATOM     10  N   UNL     1      46.821   7.084  11.826  0.00  0.00    +0.000 N 
ATOM     11  H   UNL     1      47.301   6.285  12.208  0.00  0.00    +0.000 HD
BRANCH   8  19
ATOM     12  C   UNL     1      45.214   4.282   9.363  0.00  0.00    +0.000 A 
ATOM     13  N   UNL     1      44.953   3.104   8.754  0.00  0.00    +0.000 NA
ATOM     14  C   UNL     1      44.243   2.193   9.412  0.00  0.00    +0.000 A 
ATOM     15  N   UNL     1      43.750   2.302  10.640  0.00  0.00    +0.000 NA
ATOM     16  C   UNL     1      44.032   3.487  11.216  0.00  0.00    +0.000 A 
ATOM     17  S   UNL     1      43.481   3.801  12.786  0.00  0.00    +0.000 S 
ATOM     18  C   UNL     1      44.178   5.352  12.776  0.00  0.00    +0.000 A 
ATOM     19  C   UNL     1      44.850   5.666  11.594  0.00  0.00    +0.000 A 
ATOM     20  C   UNL     1      44.756   4.543  10.662  0.00  0.00    +0.000 A 
BRANCH  12  22
ATOM     21  C   UNL     1      46.715   4.584   7.614  0.00  0.00    +0.000 C 
ATOM     22  O   UNL     1      45.966   5.204   8.662  0.00  0.00    +0.000 OA
ENDBRANCH  12  22
ENDBRANCH   8  19
ENDBRANCH   7  10
ENDBRANCH   1   7
BRANCH   4  23
ATOM     23  C   UNL     1      51.421   8.619  16.133  0.00  0.00    +0.000 C 
BRANCH  23  24
ATOM     24  C   UNL     1      51.369   7.405  17.075  0.00  0.00    +0.000 C 
BRANCH  24  25
ATOM     25  N   UNL     1      50.670   6.278  16.467  0.00  0.00    +0.000 N 
ATOM     26  C   UNL     1      49.521   5.894  17.158  0.00  0.00    +0.000 A 
ATOM     27  N   UNL     1      48.824   6.797  17.846  0.00  0.00    +0.000 NA
ATOM     28  C   UNL     1      47.746   6.345  18.479  0.00  0.00    +0.000 A 
ATOM     29  N   UNL     1      47.326   5.093  18.489  0.00  0.00    +0.000 NA
ATOM     30  C   UNL     1      48.106   4.293  17.770  0.00  0.00    +0.000 A 
ATOM     31 CL   UNL     1      47.656   2.645  17.743  0.00  0.00    +0.000 Cl
ATOM     32  N   UNL     1      49.204   4.611  17.094  0.00  0.00    +0.000 NA
ATOM     33  H   UNL     1      51.220   5.435  16.330  0.00  0.00    +0.000 HD
ENDBRANCH  24  25
ENDBRANCH  23  24
ENDBRANCH   4  23
TORSDOF 7
ENDMDL
