MODEL 1
REMARK VINA RESULT:    -6.632      0.000      0.000
REMARK INTER + INTRA:          -9.306
REMARK INTER:                  -8.570
REMARK INTRA:                  -0.736
REMARK UNBOUND:                -0.736
REMARK  Name = 
REMARK  8 active torsions:
REMARK  status: ('A' for Active; 'I' for Inactive)
REMARK    1  A    between atoms: C_1  and  C_2
REMARK    2  A    between atoms: C_2  and  C_4
REMARK    3  A    between atoms: C_9  and  N_10
REMARK    4  A    between atoms: N_10  and  C_11
REMARK    5  A    between atoms: C_11  and  C_12
REMARK    6  A    between atoms: N_16  and  C_17
REMARK    7  A    between atoms: C_17  and  C_18
REMARK    8  A    between atoms: C_17  and  C_19
REMARK                            x       y       z     vdW  Elec       q    Type
REMARK                         _______ _______ _______ _____ _____    ______ ____
ROOT
ATOM      1  N   UNL     1      46.458   4.054  14.432  0.00  0.00    +0.000 N 
ATOM      2  H   UNL     1      45.591   3.959  14.965  0.00  0.00    +0.000 HD
ENDROOT
BRANCH   1   8
ATOM      3  C   UNL     1      47.942   4.708  16.302  0.00  0.00    +0.000 A 
ATOM      4  N   UNL     1      48.815   5.594  16.883  0.00  0.00    +0.000 NA
ATOM      5  C   UNL     1      49.166   6.651  16.127  0.00  0.00    +0.000 A 
ATOM      6  C   UNL     1      48.708   6.805  14.844  0.00  0.00    +0.000 A 
ATOM      7  N   UNL     1      47.829   5.956  14.284  0.00  0.00    +0.000 NA
ATOM      8  C   UNL     1      47.396   4.900  15.023  0.00  0.00    +0.000 A 
BRANCH   3  10
ATOM      9  C   UNL     1      48.768   2.849  17.860  0.00  0.00    +0.000 C 
ATOM     10  C   UNL     1      47.609   3.535  17.170  0.00  0.00    +0.000 C 
ATOM     11  O   UNL     1      46.453   3.136  17.309  0.00  0.00    +0.000 OA
ENDBRANCH   3  10
ENDBRANCH   1   8
BRANCH   1  12
ATOM     12  C   UNL     1      46.366   4.075  12.974  0.00  0.00    +0.000 C 
BRANCH  12  13
ATOM     13  C   UNL     1      45.128   4.843  12.464  0.00  0.00    +0.000 C 
ATOM     14  C   UNL     1      43.805   4.365  13.064  0.00  0.00    +0.000 C 
ATOM     15  C   UNL     1      43.440   2.974  12.564  0.00  0.00    +0.000 C 
ATOM     16  C   UNL     1      43.521   2.867  11.037  0.00  0.00    +0.000 C 
ATOM     17  N   UNL     1      44.825   3.317  10.506  0.00  0.00    +0.000 NA
ATOM     18  C   UNL     1      45.059   4.715  10.925  0.00  0.00    +0.000 C 
BRANCH  17  19
ATOM     19  C   UNL     1      44.939   3.125   9.038  0.00  0.00    +0.000 C 
ATOM     20  C   UNL     1      45.703   4.271   8.346  0.00  0.00    +0.000 C 
ATOM     21  C   UNL     1      45.691   1.828   8.679  0.00  0.00    +0.000 C 
ENDBRANCH  17  19
ENDBRANCH  12  13
ENDBRANCH   1  12
TORSDOF 5
ENDMDL
MODEL 2
REMARK VINA RESULT:    -6.331      2.300      3.374
REMARK INTER + INTRA:          -8.917
REMARK INTER:                  -8.170
REMARK INTRA:                  -0.748
REMARK UNBOUND:                -0.736
REMARK  Name = 
REMARK  8 active torsions:
REMARK  status: ('A' for Active; 'I' for Inactive)
REMARK    1  A    between atoms: C_1  and  C_2
REMARK    2  A    between atoms: C_2  and  C_4
REMARK    3  A    between atoms: C_9  and  N_10
REMARK    4  A    between atoms: N_10  and  C_11
REMARK    5  A    between atoms: C_11  and  C_12
REMARK    6  A    between atoms: N_16  and  C_17
REMARK    7  A    between atoms: C_17  and  C_18
REMARK    8  A    between atoms: C_17  and  C_19
REMARK                            x       y       z     vdW  Elec       q    Type
REMARK                         _______ _______ _______ _____ _____    ______ ____
ROOT
ATOM      1  N   UNL     1      47.439   3.647  15.716  0.00  0.00    +0.000 N 
ATOM      2  H   UNL     1      47.075   2.693  15.662  0.00  0.00    +0.000 HD
ENDROOT
BRANCH   1   8
ATOM      3  C   UNL     1      49.090   3.351  17.537  0.00  0.00    +0.000 A 
ATOM      4  N   UNL     1      49.553   3.656  18.792  0.00  0.00    +0.000 NA
ATOM      5  C   UNL     1      48.901   4.643  19.434  0.00  0.00    +0.000 A 
ATOM      6  C   UNL     1      47.864   5.324  18.847  0.00  0.00    +0.000 A 
ATOM      7  N   UNL     1      47.389   5.006  17.631  0.00  0.00    +0.000 NA
ATOM      8  C   UNL     1      47.974   3.979  16.961  0.00  0.00    +0.000 A 
BRANCH   3  10
ATOM      9  C   UNL     1      51.246   1.973  17.405  0.00  0.00    +0.000 C 
ATOM     10  C   UNL     1      49.868   2.271  16.853  0.00  0.00    +0.000 C 
ATOM     11  O   UNL     1      49.420   1.661  15.883  0.00  0.00    +0.000 OA
ENDBRANCH   3  10
ENDBRANCH   1   8
BRANCH   1  12
ATOM     12  C   UNL     1      46.718   4.696  14.999  0.00  0.00    +0.000 C 
BRANCH  12  13
ATOM     13  C   UNL     1      46.909   4.613  13.470  0.00  0.00    +0.000 C 
ATOM     14  C   UNL     1      47.289   5.942  12.813  0.00  0.00    +0.000 C 
ATOM     15  C   UNL     1      46.131   6.929  12.852  0.00  0.00    +0.000 C 
ATOM     16  C   UNL     1      44.826   6.314  12.333  0.00  0.00    +0.000 C 
ATOM     17  N   UNL     1      44.489   5.046  13.013  0.00  0.00    +0.000 NA
ATOM     18  C   UNL     1      45.602   4.090  12.830  0.00  0.00    +0.000 C 
BRANCH  17  19
ATOM     19  C   UNL     1      43.178   4.499  12.578  0.00  0.00    +0.000 C 
ATOM     20  C   UNL     1      42.346   5.517  11.775  0.00  0.00    +0.000 C 
ATOM     21  C   UNL     1      43.336   3.262  11.671  0.00  0.00    +0.000 C 
ENDBRANCH  17  19
ENDBRANCH  12  13
ENDBRANCH   1  12
TORSDOF 5
ENDMDL
MODEL 3
REMARK VINA RESULT:    -6.274      3.055      6.430
REMARK INTER + INTRA:          -8.844
REMARK INTER:                  -7.724
REMARK INTRA:                  -1.120
REMARK UNBOUND:                -0.736
REMARK  Name = 
REMARK  8 active torsions:
REMARK  status: ('A' for Active; 'I' for Inactive)
REMARK    1  A    between atoms: C_1  and  C_2
REMARK    2  A    between atoms: C_2  and  C_4
REMARK    3  A    between atoms: C_9  and  N_10
REMARK    4  A    between atoms: N_10  and  C_11
REMARK    5  A    between atoms: C_11  and  C_12
REMARK    6  A    between atoms: N_16  and  C_17
REMARK    7  A    between atoms: C_17  and  C_18
REMARK    8  A    between atoms: C_17  and  C_19
REMARK                            x       y       z     vdW  Elec       q    Type
REMARK                         _______ _______ _______ _____ _____    ______ ____
ROOT
ATOM      1  N   UNL     1      46.028   5.908  10.731  0.00  0.00    +0.000 N 
ATOM      2  H   UNL     1      46.929   6.202  10.349  0.00  0.00    +0.000 HD
ENDROOT
BRANCH   1   8
ATOM      3  C   UNL     1      44.918   3.695  10.753  0.00  0.00    +0.000 A 
ATOM      4  N   UNL     1      44.441   2.590  10.093  0.00  0.00    +0.000 NA
ATOM      5  C   UNL     1      44.491   2.643   8.749  0.00  0.00    +0.000 A 
ATOM      6  C   UNL     1      44.954   3.751   8.087  0.00  0.00    +0.000 A 
ATOM      7  N   UNL     1      45.450   4.822   8.730  0.00  0.00    +0.000 NA
ATOM      8  C   UNL     1      45.476   4.799  10.089  0.00  0.00    +0.000 A 
BRANCH   3  10
ATOM      9  C   UNL     1      43.462   3.926  12.848  0.00  0.00    +0.000 C 
ATOM     10  C   UNL     1      44.810   3.601  12.242  0.00  0.00    +0.000 C 
ATOM     11  O   UNL     1      45.770   3.286  12.945  0.00  0.00    +0.000 OA
ENDBRANCH   3  10
ENDBRANCH   1   8
BRANCH   1  12
ATOM     12  C   UNL     1      45.105   6.946  11.183  0.00  0.00    +0.000 C 
BRANCH  12  13
ATOM     13  C   UNL     1      45.391   7.413  12.625  0.00  0.00    +0.000 C 
ATOM     14  C   UNL     1      45.259   8.924  12.831  0.00  0.00    +0.000 C 
ATOM     15  C   UNL     1      46.370   9.679  12.115  0.00  0.00    +0.000 C 
ATOM     16  C   UNL     1      47.758   9.112  12.437  0.00  0.00    +0.000 C 
ATOM     17  N   UNL     1      47.843   7.656  12.201  0.00  0.00    +0.000 NA
ATOM     18  C   UNL     1      46.819   6.973  13.020  0.00  0.00    +0.000 C 
BRANCH  17  19
ATOM     19  C   UNL     1      49.212   7.123  12.421  0.00  0.00    +0.000 C 
ATOM     20  C   UNL     1      50.249   7.732  11.457  0.00  0.00    +0.000 C 
ATOM     21  C   UNL     1      49.726   7.413  13.845  0.00  0.00    +0.000 C 
ENDBRANCH  17  19
ENDBRANCH  12  13
ENDBRANCH   1  12
TORSDOF 5
ENDMDL
MODEL 4
REMARK VINA RESULT:    -6.121      3.171      3.950
REMARK INTER + INTRA:          -8.646
REMARK INTER:                  -7.878
REMARK INTRA:                  -0.768
REMARK UNBOUND:                -0.736
REMARK  Name = 
REMARK  8 active torsions:
REMARK  status: ('A' for Active; 'I' for Inactive)
REMARK    1  A    between atoms: C_1  and  C_2
REMARK    2  A    between atoms: C_2  and  C_4
REMARK    3  A    between atoms: C_9  and  N_10
REMARK    4  A    between atoms: N_10  and  C_11
REMARK    5  A    between atoms: C_11  and  C_12
REMARK    6  A    between atoms: N_16  and  C_17
REMARK    7  A    between atoms: C_17  and  C_18
REMARK    8  A    between atoms: C_17  and  C_19
REMARK                            x       y       z     vdW  Elec       q    Type
REMARK                         _______ _______ _______ _____ _____    ______ ____
ROOT
ATOM      1  N   UNL     1      46.051   6.569  13.323  0.00  0.00    +0.000 N 
ATOM      2  H   UNL     1      45.535   6.581  14.206  0.00  0.00    +0.000 HD
ENDROOT
BRANCH   1   8
ATOM      3  C   UNL     1      47.635   8.268  12.468  0.00  0.00    +0.000 A 
ATOM      4  N   UNL     1      47.904   9.545  12.041  0.00  0.00    +0.000 NA
ATOM      5  C   UNL     1      46.840  10.361  11.929  0.00  0.00    +0.000 A 
ATOM      6  C   UNL     1      45.565   9.927  12.190  0.00  0.00    +0.000 A 
ATOM      7  N   UNL     1      45.303   8.688  12.639  0.00  0.00    +0.000 NA
ATOM      8  C   UNL     1      46.347   7.837  12.823  0.00  0.00    +0.000 A 
BRANCH   3  10
ATOM      9  C   UNL     1      49.931   7.643  11.520  0.00  0.00    +0.000 C 
ATOM     10  C   UNL     1      48.845   7.391  12.543  0.00  0.00    +0.000 C 
ATOM     11  O   UNL     1      48.951   6.500  13.385  0.00  0.00    +0.000 OA
ENDBRANCH   3  10
ENDBRANCH   1   8
BRANCH   1  12
ATOM     12  C   UNL     1      45.720   5.529  12.352  0.00  0.00    +0.000 C 
BRANCH  12  13
ATOM     13  C   UNL     1      44.234   5.549  11.937  0.00  0.00    +0.000 C 
ATOM     14  C   UNL     1      43.321   4.721  12.843  0.00  0.00    +0.000 C 
ATOM     15  C   UNL     1      43.589   3.231  12.686  0.00  0.00    +0.000 C 
ATOM     16  C   UNL     1      43.591   2.793  11.216  0.00  0.00    +0.000 C 
ATOM     17  N   UNL     1      44.505   3.606  10.386  0.00  0.00    +0.000 NA
ATOM     18  C   UNL     1      44.112   5.028  10.487  0.00  0.00    +0.000 C 
BRANCH  17  19
ATOM     19  C   UNL     1      44.580   3.124   8.983  0.00  0.00    +0.000 C 
ATOM     20  C   UNL     1      45.485   4.005   8.099  0.00  0.00    +0.000 C 
ATOM     21  C   UNL     1      45.150   1.694   8.891  0.00  0.00    +0.000 C 
ENDBRANCH  17  19
ENDBRANCH  12  13
ENDBRANCH   1  12
TORSDOF 5
ENDMDL
MODEL 5
REMARK VINA RESULT:    -6.040      2.318      3.529
REMARK INTER + INTRA:          -8.541
REMARK INTER:                  -7.638
REMARK INTRA:                  -0.903
REMARK UNBOUND:                -0.736
REMARK  Name = 
REMARK  8 active torsions:
REMARK  status: ('A' for Active; 'I' for Inactive)
REMARK    1  A    between atoms: C_1  and  C_2
REMARK    2  A    between atoms: C_2  and  C_4
REMARK    3  A    between atoms: C_9  and  N_10
REMARK    4  A    between atoms: N_10  and  C_11
REMARK    5  A    between atoms: C_11  and  C_12
REMARK    6  A    between atoms: N_16  and  C_17
REMARK    7  A    between atoms: C_17  and  C_18
REMARK    8  A    between atoms: C_17  and  C_19
REMARK                            x       y       z     vdW  Elec       q    Type
REMARK                         _______ _______ _______ _____ _____    ______ ____
ROOT
ATOM      1  N   UNL     1      46.857   4.186  15.563  0.00  0.00    +0.000 N 
ATOM      2  H   UNL     1      45.930   4.101  15.987  0.00  0.00    +0.000 HD
ENDROOT
BRANCH   1   8
ATOM      3  C   UNL     1      48.270   4.173  17.595  0.00  0.00    +0.000 A 
ATOM      4  N   UNL     1      49.331   3.677  18.311  0.00  0.00    +0.000 NA
ATOM      5  C   UNL     1      49.964   2.623  17.765  0.00  0.00    +0.000 A 
ATOM      6  C   UNL     1      49.545   2.060  16.586  0.00  0.00    +0.000 A 
ATOM      7  N   UNL     1      48.527   2.563  15.868  0.00  0.00    +0.000 NA
ATOM      8  C   UNL     1      47.887   3.663  16.345  0.00  0.00    +0.000 A 
BRANCH   3  10
ATOM      9  C   UNL     1      48.425   6.541  18.563  0.00  0.00    +0.000 C 
ATOM     10  C   UNL     1      47.580   5.323  18.260  0.00  0.00    +0.000 C 
ATOM     11  O   UNL     1      46.387   5.280  18.559  0.00  0.00    +0.000 OA
ENDBRANCH   3  10
ENDBRANCH   1   8
BRANCH   1  12
ATOM     12  C   UNL     1      47.149   5.392  14.793  0.00  0.00    +0.000 C 
BRANCH  12  13
ATOM     13  C   UNL     1      47.142   5.146  13.270  0.00  0.00    +0.000 C 
ATOM     14  C   UNL     1      47.321   6.412  12.430  0.00  0.00    +0.000 C 
ATOM     15  C   UNL     1      46.102   7.318  12.527  0.00  0.00    +0.000 C 
ATOM     16  C   UNL     1      44.794   6.561  12.264  0.00  0.00    +0.000 C 
ATOM     17  N   UNL     1      44.655   5.359  13.114  0.00  0.00    +0.000 NA
ATOM     18  C   UNL     1      45.810   4.466  12.879  0.00  0.00    +0.000 C 
BRANCH  17  19
ATOM     19  C   UNL     1      43.348   4.679  12.928  0.00  0.00    +0.000 C 
ATOM     20  C   UNL     1      42.435   5.411  11.926  0.00  0.00    +0.000 C 
ATOM     21  C   UNL     1      43.512   3.243  12.392  0.00  0.00    +0.000 C 
ENDBRANCH  17  19
ENDBRANCH  12  13
ENDBRANCH   1  12
TORSDOF 5
ENDMDL
MODEL 6
REMARK VINA RESULT:    -6.013      1.790      2.658
REMARK INTER + INTRA:          -8.507
REMARK INTER:                  -7.560
REMARK INTRA:                  -0.946
REMARK UNBOUND:                -0.736
REMARK  Name = 
REMARK  8 active torsions:
REMARK  status: ('A' for Active; 'I' for Inactive)
REMARK    1  A    between atoms: C_1  and  C_2
REMARK    2  A    between atoms: C_2  and  C_4
REMARK    3  A    between atoms: C_9  and  N_10
REMARK    4  A    between atoms: N_10  and  C_11
REMARK    5  A    between atoms: C_11  and  C_12
REMARK    6  A    between atoms: N_16  and  C_17
REMARK    7  A    between atoms: C_17  and  C_18
REMARK    8  A    between atoms: C_17  and  C_19
REMARK                            x       y       z     vdW  Elec       q    Type
REMARK                         _______ _______ _______ _____ _____    ______ ____
ROOT
ATOM      1  N   UNL     1      47.075   3.858  13.752  0.00  0.00    +0.000 N 
ATOM      2  H   UNL     1      47.554   2.985  13.517  0.00  0.00    +0.000 HD
ENDROOT
BRANCH   1   8
ATOM      3  C   UNL     1      48.040   5.643  15.170  0.00  0.00    +0.000 A 
ATOM      4  N   UNL     1      48.445   6.108  16.396  0.00  0.00    +0.000 NA
ATOM      5  C   UNL     1      48.184   5.304  17.443  0.00  0.00    +0.000 A 
ATOM      6  C   UNL     1      47.519   4.113  17.292  0.00  0.00    +0.000 A 
ATOM      7  N   UNL     1      47.150   3.641  16.089  0.00  0.00    +0.000 NA
ATOM      8  C   UNL     1      47.438   4.387  14.990  0.00  0.00    +0.000 A 
BRANCH   3  10
ATOM      9  C   UNL     1      47.881   8.022  14.234  0.00  0.00    +0.000 C 
ATOM     10  C   UNL     1      48.322   6.587  14.044  0.00  0.00    +0.000 C 
ATOM     11  O   UNL     1      48.875   6.218  13.008  0.00  0.00    +0.000 OA
ENDBRANCH   3  10
ENDBRANCH   1   8
BRANCH   1  12
ATOM     12  C   UNL     1      45.679   4.002  13.348  0.00  0.00    +0.000 C 
BRANCH  12  13
ATOM     13  C   UNL     1      45.415   5.307  12.567  0.00  0.00    +0.000 C 
ATOM     14  C   UNL     1      44.073   5.968  12.889  0.00  0.00    +0.000 C 
ATOM     15  C   UNL     1      42.908   5.141  12.364  0.00  0.00    +0.000 C 
ATOM     16  C   UNL     1      43.089   4.754  10.891  0.00  0.00    +0.000 C 
ATOM     17  N   UNL     1      44.389   4.098  10.634  0.00  0.00    +0.000 NA
ATOM     18  C   UNL     1      45.478   5.006  11.052  0.00  0.00    +0.000 C 
BRANCH  17  19
ATOM     19  C   UNL     1      44.525   3.638   9.228  0.00  0.00    +0.000 C 
ATOM     20  C   UNL     1      45.630   4.390   8.461  0.00  0.00    +0.000 C 
ATOM     21  C   UNL     1      44.883   2.141   9.139  0.00  0.00    +0.000 C 
ENDBRANCH  17  19
ENDBRANCH  12  13
ENDBRANCH   1  12
TORSDOF 5
ENDMDL
MODEL 7
REMARK VINA RESULT:    -5.989      3.300      6.995
REMARK INTER + INTRA:          -8.475
REMARK INTER:                  -7.506
REMARK INTRA:                  -0.969
REMARK UNBOUND:                -0.736
REMARK  Name = 
REMARK  8 active torsions:
REMARK  status: ('A' for Active; 'I' for Inactive)
REMARK    1  A    between atoms: C_1  and  C_2
REMARK    2  A    between atoms: C_2  and  C_4
REMARK    3  A    between atoms: C_9  and  N_10
REMARK    4  A    between atoms: N_10  and  C_11
REMARK    5  A    between atoms: C_11  and  C_12
REMARK    6  A    between atoms: N_16  and  C_17
REMARK    7  A    between atoms: C_17  and  C_18
REMARK    8  A    between atoms: C_17  and  C_19
REMARK                            x       y       z     vdW  Elec       q    Type
REMARK                         _______ _______ _______ _____ _____    ______ ____
ROOT
ATOM      1  N   UNL     1      44.874   6.698  10.917  0.00  0.00    +0.000 N 
ATOM      2  H   UNL     1      44.162   7.313  10.518  0.00  0.00    +0.000 HD
ENDROOT
BRANCH   1   8
ATOM      3  C   UNL     1      44.537   4.316  10.333  0.00  0.00    +0.000 A 
ATOM      4  N   UNL     1      44.017   3.078  10.616  0.00  0.00    +0.000 NA
ATOM      5  C   UNL     1      43.418   2.953  11.815  0.00  0.00    +0.000 A 
ATOM      6  C   UNL     1      43.369   3.993  12.709  0.00  0.00    +0.000 A 
ATOM      7  N   UNL     1      43.849   5.215  12.422  0.00  0.00    +0.000 NA
ATOM      8  C   UNL     1      44.415   5.412  11.202  0.00  0.00    +0.000 A 
BRANCH   3  10
ATOM      9  C   UNL     1      44.873   3.318   7.997  0.00  0.00    +0.000 C 
ATOM     10  C   UNL     1      45.221   4.393   9.005  0.00  0.00    +0.000 C 
ATOM     11  O   UNL     1      46.037   5.277   8.743  0.00  0.00    +0.000 OA
ENDBRANCH   3  10
ENDBRANCH   1   8
BRANCH   1  12
ATOM     12  C   UNL     1      45.842   7.282  11.842  0.00  0.00    +0.000 C 
BRANCH  12  13
ATOM     13  C   UNL     1      47.218   6.584  11.787  0.00  0.00    +0.000 C 
ATOM     14  C   UNL     1      47.617   5.885  13.088  0.00  0.00    +0.000 C 
ATOM     15  C   UNL     1      47.909   6.893  14.191  0.00  0.00    +0.000 C 
ATOM     16  C   UNL     1      48.880   7.988  13.734  0.00  0.00    +0.000 C 
ATOM     17  N   UNL     1      48.441   8.650  12.487  0.00  0.00    +0.000 NA
ATOM     18  C   UNL     1      48.296   7.631  11.426  0.00  0.00    +0.000 C 
BRANCH  17  19
ATOM     19  C   UNL     1      49.330   9.773  12.096  0.00  0.00    +0.000 C 
ATOM     20  C   UNL     1      50.612   9.296  11.386  0.00  0.00    +0.000 C 
ATOM     21  C   UNL     1      48.638  10.749  11.123  0.00  0.00    +0.000 C 
ENDBRANCH  17  19
ENDBRANCH  12  13
ENDBRANCH   1  12
TORSDOF 5
ENDMDL
MODEL 8
REMARK VINA RESULT:    -5.979      2.529      6.824
REMARK INTER + INTRA:          -8.462
REMARK INTER:                  -7.526
REMARK INTRA:                  -0.936
REMARK UNBOUND:                -0.736
REMARK  Name = 
REMARK  8 active torsions:
REMARK  status: ('A' for Active; 'I' for Inactive)
REMARK    1  A    between atoms: C_1  and  C_2
REMARK    2  A    between atoms: C_2  and  C_4
REMARK    3  A    between atoms: C_9  and  N_10
REMARK    4  A    between atoms: N_10  and  C_11
REMARK    5  A    between atoms: C_11  and  C_12
REMARK    6  A    between atoms: N_16  and  C_17
REMARK    7  A    between atoms: C_17  and  C_18
REMARK    8  A    between atoms: C_17  and  C_19
REMARK                            x       y       z     vdW  Elec       q    Type
REMARK                         _______ _______ _______ _____ _____    ______ ____
ROOT
ATOM      1  N   UNL     1      46.404   4.169  15.043  0.00  0.00    +0.000 N 
ATOM      2  H   UNL     1      45.514   3.664  15.044  0.00  0.00    +0.000 HD
ENDROOT
BRANCH   1   8
ATOM      3  C   UNL     1      45.663   5.121  12.881  0.00  0.00    +0.000 A 
ATOM      4  N   UNL     1      45.897   5.896  11.773  0.00  0.00    +0.000 NA
ATOM      5  C   UNL     1      47.054   6.584  11.773  0.00  0.00    +0.000 A 
ATOM      6  C   UNL     1      47.921   6.539  12.835  0.00  0.00    +0.000 A 
ATOM      7  N   UNL     1      47.709   5.758  13.907  0.00  0.00    +0.000 NA
ATOM      8  C   UNL     1      46.582   4.997  13.935  0.00  0.00    +0.000 A 
BRANCH   3  10
ATOM      9  C   UNL     1      43.112   5.258  12.689  0.00  0.00    +0.000 C 
ATOM     10  C   UNL     1      44.350   4.403  12.847  0.00  0.00    +0.000 C 
ATOM     11  O   UNL     1      44.275   3.179  12.955  0.00  0.00    +0.000 OA
ENDBRANCH   3  10
ENDBRANCH   1   8
BRANCH   1  12
ATOM     12  C   UNL     1      47.583   3.478  15.557  0.00  0.00    +0.000 C 
BRANCH  12  13
ATOM     13  C   UNL     1      47.624   3.430  17.098  0.00  0.00    +0.000 C 
ATOM     14  C   UNL     1      47.354   4.776  17.774  0.00  0.00    +0.000 C 
ATOM     15  C   UNL     1      48.497   5.753  17.539  0.00  0.00    +0.000 C 
ATOM     16  C   UNL     1      49.863   5.138  17.871  0.00  0.00    +0.000 C 
ATOM     17  N   UNL     1      50.088   3.852  17.178  0.00  0.00    +0.000 NA
ATOM     18  C   UNL     1      49.009   2.911  17.547  0.00  0.00    +0.000 C 
BRANCH  17  19
ATOM     19  C   UNL     1      51.446   3.304  17.424  0.00  0.00    +0.000 C 
ATOM     20  C   UNL     1      52.050   3.788  18.757  0.00  0.00    +0.000 C 
ATOM     21  C   UNL     1      51.448   1.763  17.485  0.00  0.00    +0.000 C 
ENDBRANCH  17  19
ENDBRANCH  12  13
ENDBRANCH   1  12
TORSDOF 5
ENDMDL
MODEL 9
REMARK VINA RESULT:    -5.696      2.164      3.529
REMARK INTER + INTRA:          -8.096
REMARK INTER:                  -7.030
REMARK INTRA:                  -1.066
REMARK UNBOUND:                -0.736
REMARK  Name = 
REMARK  8 active torsions:
REMARK  status: ('A' for Active; 'I' for Inactive)
REMARK    1  A    between atoms: C_1  and  C_2
REMARK    2  A    between atoms: C_2  and  C_4
REMARK    3  A    between atoms: C_9  and  N_10
REMARK    4  A    between atoms: N_10  and  C_11
REMARK    5  A    between atoms: C_11  and  C_12
REMARK    6  A    between atoms: N_16  and  C_17
REMARK    7  A    between atoms: C_17  and  C_18
REMARK    8  A    between atoms: C_17  and  C_19
REMARK                            x       y       z     vdW  Elec       q    Type
REMARK                         _______ _______ _______ _____ _____    ______ ____
ROOT
ATOM      1  N   UNL     1      47.880   5.897  15.383  0.00  0.00    +0.000 N 
ATOM      2  H   UNL     1      46.900   5.620  15.471  0.00  0.00    +0.000 HD
ENDROOT
BRANCH   1   8
ATOM      3  C   UNL     1      48.651   4.617  17.356  0.00  0.00    +0.000 A 
ATOM      4  N   UNL     1      49.328   4.549  18.548  0.00  0.00    +0.000 NA
ATOM      5  C   UNL     1      50.006   5.657  18.900  0.00  0.00    +0.000 A 
ATOM      6  C   UNL     1      50.046   6.766  18.093  0.00  0.00    +0.000 A 
ATOM      7  N   UNL     1      49.359   6.846  16.941  0.00  0.00    +0.000 NA
ATOM      8  C   UNL     1      48.611   5.775  16.565  0.00  0.00    +0.000 A 
BRANCH   3  10
ATOM      9  C   UNL     1      48.808   2.179  16.584  0.00  0.00    +0.000 C 
ATOM     10  C   UNL     1      47.941   3.350  16.994  0.00  0.00    +0.000 C 
ATOM     11  O   UNL     1      46.714   3.263  17.016  0.00  0.00    +0.000 OA
ENDBRANCH   3  10
ENDBRANCH   1   8
BRANCH   1  12
ATOM     12  C   UNL     1      48.196   7.030  14.516  0.00  0.00    +0.000 C 
BRANCH  12  13
ATOM     13  C   UNL     1      48.059   6.692  13.017  0.00  0.00    +0.000 C 
ATOM     14  C   UNL     1      47.570   7.857  12.155  0.00  0.00    +0.000 C 
ATOM     15  C   UNL     1      46.115   8.193  12.453  0.00  0.00    +0.000 C 
ATOM     16  C   UNL     1      45.214   6.953  12.416  0.00  0.00    +0.000 C 
ATOM     17  N   UNL     1      45.715   5.864  13.282  0.00  0.00    +0.000 NA
ATOM     18  C   UNL     1      47.084   5.503  12.859  0.00  0.00    +0.000 C 
BRANCH  17  19
ATOM     19  C   UNL     1      44.794   4.699  13.321  0.00  0.00    +0.000 C 
ATOM     20  C   UNL     1      43.350   5.070  12.928  0.00  0.00    +0.000 C 
ATOM     21  C   UNL     1      45.229   3.582  12.353  0.00  0.00    +0.000 C 
ENDBRANCH  17  19
ENDBRANCH  12  13
ENDBRANCH   1  12
TORSDOF 5
ENDMDL
