MODEL 1
REMARK VINA RESULT:    -7.853      0.000      0.000
REMARK INTER + INTRA:         -12.206
REMARK INTER:                 -11.526
REMARK INTRA:                  -0.680
REMARK UNBOUND:                -0.680
REMARK  Name = 
REMARK  8 active torsions:
REMARK  status: ('A' for Active; 'I' for Inactive)
REMARK    1  A    between atoms: C_2  and  C_3
REMARK    2  A    between atoms: C_3  and  C_4
REMARK    3  A    between atoms: C_4  and  C_5
REMARK    4  A    between atoms: C_4  and  C_16
REMARK    5  A    between atoms: C_5  and  N_6
REMARK    6  A    between atoms: N_6  and  C_7
REMARK    7  A    between atoms: C_10  and  C_11
REMARK    8  A    between atoms: C_20  and  C_21
REMARK                            x       y       z     vdW  Elec       q    Type
REMARK                         _______ _______ _______ _____ _____    ______ ____
ROOT
ATOM      1  C   UNL     1      45.344   5.467  11.823  0.00  0.00    +0.000 C 
ENDROOT
BRANCH   1   2
ATOM      2  C   UNL     1      46.024   6.817  12.009  0.00  0.00    +0.000 A 
ATOM      3  C   UNL     1      47.424   6.887  12.070  0.00  0.00    +0.000 A 
ATOM      4  C   UNL     1      48.071   8.125  12.111  0.00  0.00    +0.000 A 
ATOM      5  C   UNL     1      47.335   9.310  12.063  0.00  0.00    +0.000 A 
ATOM      6  C   UNL     1      45.939   9.259  12.004  0.00  0.00    +0.000 A 
ATOM      7  C   UNL     1      45.296   8.016  12.009  0.00  0.00    +0.000 A 
BRANCH   6   8
ATOM      8  C   UNL     1      45.088  10.464  11.825  0.00  0.00    +0.000 C 
ATOM      9  N   UNL     1      43.795  10.404  12.253  0.00  0.00    +0.000 N 
ATOM     10  O   UNL     1      45.535  11.477  11.303  0.00  0.00    +0.000 OA
ATOM     11  H   UNL     1      43.330   9.553  12.523  0.00  0.00    +0.000 HD
ATOM     12  H   UNL     1      43.227  11.228  12.088  0.00  0.00    +0.000 HD
ENDBRANCH   6   8
ENDBRANCH   1   2
BRANCH   1  13
ATOM     13  C   UNL     1      45.067   4.754  13.151  0.00  0.00    +0.000 C 
BRANCH  13  15
ATOM     14  N   UNL     1      47.299   3.320  13.986  0.00  0.00    +0.000 NA
ATOM     15  C   UNL     1      46.287   3.970  13.607  0.00  0.00    +0.000 C 
ENDBRANCH  13  15
ENDBRANCH   1  13
BRANCH   1  16
ATOM     16  C   UNL     1      44.066   5.621  10.961  0.00  0.00    +0.000 C 
BRANCH  16  17
ATOM     17  N   UNL     1      43.723   4.375  10.274  0.00  0.00    +0.000 N 
ATOM     18  H   UNL     1      42.830   4.391   9.781  0.00  0.00    +0.000 HD
BRANCH  17  19
ATOM     19  C   UNL     1      44.690   3.733   9.500  0.00  0.00    +0.000 A 
ATOM     20  C   UNL     1      44.983   2.377   9.537  0.00  0.00    +0.000 A 
ATOM     21  N   UNL     1      45.856   1.749   8.724  0.00  0.00    +0.000 NA
ATOM     22  C   UNL     1      46.446   2.536   7.792  0.00  0.00    +0.000 A 
ATOM     23  N   UNL     1      46.240   3.855   7.630  0.00  0.00    +0.000 NA
ATOM     24  C   UNL     1      45.354   4.409   8.485  0.00  0.00    +0.000 A 
BRANCH  22  25
ATOM     25  C   UNL     1      47.396   1.842   6.848  0.00  0.00    +0.000 C 
ATOM     26  N   UNL     1      48.470   2.592   6.431  0.00  0.00    +0.000 N 
ATOM     27  O   UNL     1      47.261   0.683   6.459  0.00  0.00    +0.000 OA
ATOM     28  H   UNL     1      48.591   3.538   6.781  0.00  0.00    +0.000 HD
ATOM     29  H   UNL     1      49.156   2.170   5.823  0.00  0.00    +0.000 HD
ENDBRANCH  22  25
ENDBRANCH  17  19
ENDBRANCH  16  17
ENDBRANCH   1  16
TORSDOF 8
ENDMDL
MODEL 2
REMARK VINA RESULT:    -7.758      1.748      2.520
REMARK INTER + INTRA:         -12.066
REMARK INTER:                 -11.320
REMARK INTRA:                  -0.746
REMARK UNBOUND:                -0.680
REMARK  Name = 
REMARK  8 active torsions:
REMARK  status: ('A' for Active; 'I' for Inactive)
REMARK    1  A    between atoms: C_2  and  C_3
REMARK    2  A    between atoms: C_3  and  C_4
REMARK    3  A    between atoms: C_4  and  C_5
REMARK    4  A    between atoms: C_4  and  C_16
REMARK    5  A    between atoms: C_5  and  N_6
REMARK    6  A    between atoms: N_6  and  C_7
REMARK    7  A    between atoms: C_10  and  C_11
REMARK    8  A    between atoms: C_20  and  C_21
REMARK                            x       y       z     vdW  Elec       q    Type
REMARK                         _______ _______ _______ _____ _____    ______ ____
ROOT
ATOM      1  C   UNL     1      45.402   5.527  11.809  0.00  0.00    +0.000 C 
ENDROOT
BRANCH   1   2
ATOM      2  C   UNL     1      46.108   6.876  11.829  0.00  0.00    +0.000 A 
ATOM      3  C   UNL     1      45.361   8.048  12.018  0.00  0.00    +0.000 A 
ATOM      4  C   UNL     1      46.002   9.281  12.167  0.00  0.00    +0.000 A 
ATOM      5  C   UNL     1      47.395   9.360  12.158  0.00  0.00    +0.000 A 
ATOM      6  C   UNL     1      48.156   8.202  11.968  0.00  0.00    +0.000 A 
ATOM      7  C   UNL     1      47.506   6.978  11.774  0.00  0.00    +0.000 A 
BRANCH   6   8
ATOM      8  C   UNL     1      49.638   8.177  12.069  0.00  0.00    +0.000 C 
ATOM      9  N   UNL     1      50.199   7.425  13.057  0.00  0.00    +0.000 N 
ATOM     10  O   UNL     1      50.332   8.817  11.289  0.00  0.00    +0.000 OA
ATOM     11  H   UNL     1      49.682   7.026  13.824  0.00  0.00    +0.000 HD
ATOM     12  H   UNL     1      51.211   7.451  13.125  0.00  0.00    +0.000 HD
ENDBRANCH   6   8
ENDBRANCH   1   2
BRANCH   1  13
ATOM     13  C   UNL     1      45.156   4.964  13.212  0.00  0.00    +0.000 C 
BRANCH  13  15
ATOM     14  N   UNL     1      47.252   3.311  13.992  0.00  0.00    +0.000 NA
ATOM     15  C   UNL     1      46.301   4.061  13.639  0.00  0.00    +0.000 C 
ENDBRANCH  13  15
ENDBRANCH   1  13
BRANCH   1  16
ATOM     16  C   UNL     1      44.099   5.613  10.974  0.00  0.00    +0.000 C 
BRANCH  16  17
ATOM     17  N   UNL     1      43.743   4.318  10.391  0.00  0.00    +0.000 N 
ATOM     18  H   UNL     1      42.771   4.238  10.092  0.00  0.00    +0.000 HD
BRANCH  17  19
ATOM     19  C   UNL     1      44.589   3.738   9.445  0.00  0.00    +0.000 A 
ATOM     20  C   UNL     1      45.350   4.430   8.514  0.00  0.00    +0.000 A 
ATOM     21  N   UNL     1      46.232   3.869   7.662  0.00  0.00    +0.000 NA
ATOM     22  C   UNL     1      46.378   2.527   7.782  0.00  0.00    +0.000 A 
ATOM     23  N   UNL     1      45.722   1.739   8.652  0.00  0.00    +0.000 NA
ATOM     24  C   UNL     1      44.855   2.376   9.467  0.00  0.00    +0.000 A 
BRANCH  22  25
ATOM     25  C   UNL     1      47.390   1.889   6.864  0.00  0.00    +0.000 C 
ATOM     26  N   UNL     1      48.454   2.685   6.512  0.00  0.00    +0.000 N 
ATOM     27  O   UNL     1      47.312   0.736   6.443  0.00  0.00    +0.000 OA
ATOM     28  H   UNL     1      48.527   3.626   6.888  0.00  0.00    +0.000 HD
ATOM     29  H   UNL     1      49.180   2.302   5.923  0.00  0.00    +0.000 HD
ENDBRANCH  22  25
ENDBRANCH  17  19
ENDBRANCH  16  17
ENDBRANCH   1  16
TORSDOF 8
ENDMDL
MODEL 3
REMARK VINA RESULT:    -7.255      1.550      2.083
REMARK INTER + INTRA:         -11.328
REMARK INTER:                 -10.683
REMARK INTRA:                  -0.645
REMARK UNBOUND:                -0.680
REMARK  Name = 
REMARK  8 active torsions:
REMARK  status: ('A' for Active; 'I' for Inactive)
REMARK    1  A    between atoms: C_2  and  C_3
REMARK    2  A    between atoms: C_3  and  C_4
REMARK    3  A    between atoms: C_4  and  C_5
REMARK    4  A    between atoms: C_4  and  C_16
REMARK    5  A    between atoms: C_5  and  N_6
REMARK    6  A    between atoms: N_6  and  C_7
REMARK    7  A    between atoms: C_10  and  C_11
REMARK    8  A    between atoms: C_20  and  C_21
REMARK                            x       y       z     vdW  Elec       q    Type
REMARK                         _______ _______ _______ _____ _____    ______ ____
ROOT
ATOM      1  C   UNL     1      45.701   6.118  11.666  0.00  0.00    +0.000 C 
ENDROOT
BRANCH   1   2
ATOM      2  C   UNL     1      45.409   7.612  11.710  0.00  0.00    +0.000 A 
ATOM      3  C   UNL     1      46.372   8.492  12.223  0.00  0.00    +0.000 A 
ATOM      4  C   UNL     1      46.177   9.875  12.155  0.00  0.00    +0.000 A 
ATOM      5  C   UNL     1      45.034  10.399  11.550  0.00  0.00    +0.000 A 
ATOM      6  C   UNL     1      44.062   9.536  11.036  0.00  0.00    +0.000 A 
ATOM      7  C   UNL     1      44.243   8.152  11.148  0.00  0.00    +0.000 A 
BRANCH   6   8
ATOM      8  C   UNL     1      42.881  10.007  10.267  0.00  0.00    +0.000 C 
ATOM      9  N   UNL     1      43.080  10.451   8.995  0.00  0.00    +0.000 N 
ATOM     10  O   UNL     1      41.762   9.998  10.766  0.00  0.00    +0.000 OA
ATOM     11  H   UNL     1      43.987  10.644   8.601  0.00  0.00    +0.000 HD
ATOM     12  H   UNL     1      42.263  10.798   8.504  0.00  0.00    +0.000 HD
ENDBRANCH   6   8
ENDBRANCH   1   2
BRANCH   1  13
ATOM     13  C   UNL     1      46.396   5.611  12.934  0.00  0.00    +0.000 C 
BRANCH  13  15
ATOM     14  N   UNL     1      46.093   2.858  13.192  0.00  0.00    +0.000 NA
ATOM     15  C   UNL     1      46.231   4.106  13.074  0.00  0.00    +0.000 C 
ENDBRANCH  13  15
ENDBRANCH   1  13
BRANCH   1  16
ATOM     16  C   UNL     1      44.407   5.325  11.349  0.00  0.00    +0.000 C 
BRANCH  16  17
ATOM     17  N   UNL     1      44.196   5.188   9.906  0.00  0.00    +0.000 N 
ATOM     18  H   UNL     1      44.240   6.063   9.384  0.00  0.00    +0.000 HD
BRANCH  17  19
ATOM     19  C   UNL     1      44.861   4.177   9.212  0.00  0.00    +0.000 A 
ATOM     20  C   UNL     1      45.728   4.367   8.146  0.00  0.00    +0.000 A 
ATOM     21  N   UNL     1      46.435   3.394   7.537  0.00  0.00    +0.000 NA
ATOM     22  C   UNL     1      46.280   2.154   8.061  0.00  0.00    +0.000 A 
ATOM     23  N   UNL     1      45.492   1.831   9.101  0.00  0.00    +0.000 NA
ATOM     24  C   UNL     1      44.816   2.861   9.653  0.00  0.00    +0.000 A 
BRANCH  22  25
ATOM     25  C   UNL     1      47.094   1.060   7.417  0.00  0.00    +0.000 C 
ATOM     26  N   UNL     1      46.676  -0.223   7.680  0.00  0.00    +0.000 N 
ATOM     27  O   UNL     1      48.068   1.257   6.693  0.00  0.00    +0.000 OA
ATOM     28  H   UNL     1      45.853  -0.377   8.255  0.00  0.00    +0.000 HD
ATOM     29  H   UNL     1      47.164  -0.996   7.252  0.00  0.00    +0.000 HD
ENDBRANCH  22  25
ENDBRANCH  17  19
ENDBRANCH  16  17
ENDBRANCH   1  16
TORSDOF 8
ENDMDL
MODEL 4
REMARK VINA RESULT:    -6.848      3.744      7.165
REMARK INTER + INTRA:         -10.730
REMARK INTER:                  -9.826
REMARK INTRA:                  -0.905
REMARK UNBOUND:                -0.680
REMARK  Name = 
REMARK  8 active torsions:
REMARK  status: ('A' for Active; 'I' for Inactive)
REMARK    1  A    between atoms: C_2  and  C_3
REMARK    2  A    between atoms: C_3  and  C_4
REMARK    3  A    between atoms: C_4  and  C_5
REMARK    4  A    between atoms: C_4  and  C_16
REMARK    5  A    between atoms: C_5  and  N_6
REMARK    6  A    between atoms: N_6  and  C_7
REMARK    7  A    between atoms: C_10  and  C_11
REMARK    8  A    between atoms: C_20  and  C_21
REMARK                            x       y       z     vdW  Elec       q    Type
REMARK                         _______ _______ _______ _____ _____    ______ ____
ROOT
ATOM      1  C   UNL     1      46.313   7.099  11.397  0.00  0.00    +0.000 C 
ENDROOT
BRANCH   1   2
ATOM      2  C   UNL     1      45.593   5.901  10.791  0.00  0.00    +0.000 A 
ATOM      3  C   UNL     1      45.857   5.531   9.464  0.00  0.00    +0.000 A 
ATOM      4  C   UNL     1      45.306   4.363   8.931  0.00  0.00    +0.000 A 
ATOM      5  C   UNL     1      44.508   3.533   9.719  0.00  0.00    +0.000 A 
ATOM      6  C   UNL     1      44.232   3.887  11.043  0.00  0.00    +0.000 A 
ATOM      7  C   UNL     1      44.751   5.082  11.557  0.00  0.00    +0.000 A 
BRANCH   6   8
ATOM      8  C   UNL     1      43.499   3.004  11.986  0.00  0.00    +0.000 C 
ATOM      9  N   UNL     1      43.507   3.332  13.308  0.00  0.00    +0.000 N 
ATOM     10  O   UNL     1      42.909   2.008  11.585  0.00  0.00    +0.000 OA
ATOM     11  H   UNL     1      44.112   4.029  13.712  0.00  0.00    +0.000 HD
ATOM     12  H   UNL     1      43.026   2.695  13.935  0.00  0.00    +0.000 HD
ENDBRANCH   6   8
ENDBRANCH   1   2
BRANCH   1  13
ATOM     13  C   UNL     1      45.447   7.866  12.402  0.00  0.00    +0.000 C 
BRANCH  13  15
ATOM     14  N   UNL     1      44.541  10.255  11.302  0.00  0.00    +0.000 NA
ATOM     15  C   UNL     1      44.952   9.171  11.800  0.00  0.00    +0.000 C 
ENDBRANCH  13  15
ENDBRANCH   1  13
BRANCH   1  16
ATOM     16  C   UNL     1      47.670   6.661  12.004  0.00  0.00    +0.000 C 
BRANCH  16  17
ATOM     17  N   UNL     1      47.779   7.039  13.415  0.00  0.00    +0.000 N 
ATOM     18  H   UNL     1      47.136   7.773  13.710  0.00  0.00    +0.000 HD
BRANCH  17  19
ATOM     19  C   UNL     1      47.850   6.039  14.385  0.00  0.00    +0.000 A 
ATOM     20  C   UNL     1      48.554   6.123  15.578  0.00  0.00    +0.000 A 
ATOM     21  N   UNL     1      48.546   5.189  16.551  0.00  0.00    +0.000 NA
ATOM     22  C   UNL     1      47.751   4.117  16.317  0.00  0.00    +0.000 A 
ATOM     23  N   UNL     1      47.001   3.918  15.218  0.00  0.00    +0.000 NA
ATOM     24  C   UNL     1      47.066   4.897  14.291  0.00  0.00    +0.000 A 
BRANCH  22  25
ATOM     25  C   UNL     1      47.700   3.082  17.413  0.00  0.00    +0.000 C 
ATOM     26  N   UNL     1      48.895   2.829  18.044  0.00  0.00    +0.000 N 
ATOM     27  O   UNL     1      46.680   2.487  17.755  0.00  0.00    +0.000 OA
ATOM     28  H   UNL     1      49.727   3.347  17.775  0.00  0.00    +0.000 HD
ATOM     29  H   UNL     1      48.917   2.168  18.806  0.00  0.00    +0.000 HD
ENDBRANCH  22  25
ENDBRANCH  17  19
ENDBRANCH  16  17
ENDBRANCH   1  16
TORSDOF 8
ENDMDL
MODEL 5
REMARK VINA RESULT:    -6.686      3.271      7.245
REMARK INTER + INTRA:         -10.492
REMARK INTER:                  -9.698
REMARK INTRA:                  -0.794
REMARK UNBOUND:                -0.680
REMARK  Name = 
REMARK  8 active torsions:
REMARK  status: ('A' for Active; 'I' for Inactive)
REMARK    1  A    between atoms: C_2  and  C_3
REMARK    2  A    between atoms: C_3  and  C_4
REMARK    3  A    between atoms: C_4  and  C_5
REMARK    4  A    between atoms: C_4  and  C_16
REMARK    5  A    between atoms: C_5  and  N_6
REMARK    6  A    between atoms: N_6  and  C_7
REMARK    7  A    between atoms: C_10  and  C_11
REMARK    8  A    between atoms: C_20  and  C_21
REMARK                            x       y       z     vdW  Elec       q    Type
REMARK                         _______ _______ _______ _____ _____    ______ ____
ROOT
ATOM      1  C   UNL     1      45.979   7.254  11.764  0.00  0.00    +0.000 C 
ENDROOT
BRANCH   1   2
ATOM      2  C   UNL     1      45.056   6.048  11.649  0.00  0.00    +0.000 A 
ATOM      3  C   UNL     1      43.911   5.971  12.455  0.00  0.00    +0.000 A 
ATOM      4  C   UNL     1      42.986   4.939  12.276  0.00  0.00    +0.000 A 
ATOM      5  C   UNL     1      43.173   3.987  11.274  0.00  0.00    +0.000 A 
ATOM      6  C   UNL     1      44.310   4.046  10.463  0.00  0.00    +0.000 A 
ATOM      7  C   UNL     1      45.255   5.056  10.678  0.00  0.00    +0.000 A 
BRANCH   6   8
ATOM      8  C   UNL     1      44.525   3.152   9.296  0.00  0.00    +0.000 C 
ATOM      9  N   UNL     1      44.298   3.656   8.051  0.00  0.00    +0.000 N 
ATOM     10  O   UNL     1      44.892   1.993   9.452  0.00  0.00    +0.000 OA
ATOM     11  H   UNL     1      43.833   4.533   7.875  0.00  0.00    +0.000 HD
ATOM     12  H   UNL     1      44.420   3.015   7.275  0.00  0.00    +0.000 HD
ENDBRANCH   6   8
ENDBRANCH   1   2
BRANCH   1  13
ATOM     13  C   UNL     1      45.482   8.289  12.778  0.00  0.00    +0.000 C 
BRANCH  13  15
ATOM     14  N   UNL     1      45.158  10.775  11.573  0.00  0.00    +0.000 NA
ATOM     15  C   UNL     1      45.306   9.647  12.120  0.00  0.00    +0.000 C 
ENDBRANCH  13  15
ENDBRANCH   1  13
BRANCH   1  16
ATOM     16  C   UNL     1      47.430   6.796  12.056  0.00  0.00    +0.000 C 
BRANCH  16  17
ATOM     17  N   UNL     1      47.841   7.134  13.420  0.00  0.00    +0.000 N 
ATOM     18  H   UNL     1      47.396   7.967  13.805  0.00  0.00    +0.000 HD
BRANCH  17  19
ATOM     19  C   UNL     1      47.901   6.128  14.385  0.00  0.00    +0.000 A 
ATOM     20  C   UNL     1      48.619   6.190  15.570  0.00  0.00    +0.000 A 
ATOM     21  N   UNL     1      48.602   5.251  16.538  0.00  0.00    +0.000 NA
ATOM     22  C   UNL     1      47.780   4.199  16.307  0.00  0.00    +0.000 A 
ATOM     23  N   UNL     1      47.014   4.022  15.216  0.00  0.00    +0.000 NA
ATOM     24  C   UNL     1      47.091   5.004  14.293  0.00  0.00    +0.000 A 
BRANCH  22  25
ATOM     25  C   UNL     1      47.718   3.159  17.398  0.00  0.00    +0.000 C 
ATOM     26  N   UNL     1      48.906   2.904  18.041  0.00  0.00    +0.000 N 
ATOM     27  O   UNL     1      46.694   2.562  17.727  0.00  0.00    +0.000 OA
ATOM     28  H   UNL     1      49.741   3.423  17.783  0.00  0.00    +0.000 HD
ATOM     29  H   UNL     1      48.920   2.239  18.800  0.00  0.00    +0.000 HD
ENDBRANCH  22  25
ENDBRANCH  17  19
ENDBRANCH  16  17
ENDBRANCH   1  16
TORSDOF 8
ENDMDL
MODEL 6
REMARK VINA RESULT:    -6.616      3.305      7.158
REMARK INTER + INTRA:         -10.390
REMARK INTER:                  -9.673
REMARK INTRA:                  -0.717
REMARK UNBOUND:                -0.680
REMARK  Name = 
REMARK  8 active torsions:
REMARK  status: ('A' for Active; 'I' for Inactive)
REMARK    1  A    between atoms: C_2  and  C_3
REMARK    2  A    between atoms: C_3  and  C_4
REMARK    3  A    between atoms: C_4  and  C_5
REMARK    4  A    between atoms: C_4  and  C_16
REMARK    5  A    between atoms: C_5  and  N_6
REMARK    6  A    between atoms: N_6  and  C_7
REMARK    7  A    between atoms: C_10  and  C_11
REMARK    8  A    between atoms: C_20  and  C_21
REMARK                            x       y       z     vdW  Elec       q    Type
REMARK                         _______ _______ _______ _____ _____    ______ ____
ROOT
ATOM      1  C   UNL     1      46.402   7.501  11.804  0.00  0.00    +0.000 C 
ENDROOT
BRANCH   1   2
ATOM      2  C   UNL     1      45.449   6.404  11.348  0.00  0.00    +0.000 A 
ATOM      3  C   UNL     1      44.206   6.258  11.980  0.00  0.00    +0.000 A 
ATOM      4  C   UNL     1      43.266   5.344  11.495  0.00  0.00    +0.000 A 
ATOM      5  C   UNL     1      43.541   4.584  10.357  0.00  0.00    +0.000 A 
ATOM      6  C   UNL     1      44.776   4.715   9.715  0.00  0.00    +0.000 A 
ATOM      7  C   UNL     1      45.729   5.600  10.234  0.00  0.00    +0.000 A 
BRANCH   6   8
ATOM      8  C   UNL     1      45.102   4.041   8.432  0.00  0.00    +0.000 C 
ATOM      9  N   UNL     1      44.381   2.938   8.087  0.00  0.00    +0.000 N 
ATOM     10  O   UNL     1      45.996   4.463   7.710  0.00  0.00    +0.000 OA
ATOM     11  H   UNL     1      43.763   2.449   8.716  0.00  0.00    +0.000 HD
ATOM     12  H   UNL     1      44.645   2.477   7.223  0.00  0.00    +0.000 HD
ENDBRANCH   6   8
ENDBRANCH   1   2
BRANCH   1  13
ATOM     13  C   UNL     1      45.808   8.384  12.907  0.00  0.00    +0.000 C 
BRANCH  13  15
ATOM     14  N   UNL     1      44.791  10.743  11.841  0.00  0.00    +0.000 NA
ATOM     15  C   UNL     1      45.252   9.673  12.325  0.00  0.00    +0.000 C 
ENDBRANCH  13  15
ENDBRANCH   1  13
BRANCH   1  16
ATOM     16  C   UNL     1      47.769   6.894  12.209  0.00  0.00    +0.000 C 
BRANCH  16  17
ATOM     17  N   UNL     1      48.105   7.197  13.601  0.00  0.00    +0.000 N 
ATOM     18  H   UNL     1      47.760   8.097  13.937  0.00  0.00    +0.000 HD
BRANCH  17  19
ATOM     19  C   UNL     1      47.926   6.216  14.577  0.00  0.00    +0.000 A 
ATOM     20  C   UNL     1      47.081   5.121  14.473  0.00  0.00    +0.000 A 
ATOM     21  N   UNL     1      46.979   4.130  15.381  0.00  0.00    +0.000 NA
ATOM     22  C   UNL     1      47.809   4.236  16.447  0.00  0.00    +0.000 A 
ATOM     23  N   UNL     1      48.691   5.229  16.663  0.00  0.00    +0.000 NA
ATOM     24  C   UNL     1      48.729   6.183  15.709  0.00  0.00    +0.000 A 
BRANCH  22  25
ATOM     25  C   UNL     1      47.737   3.115  17.453  0.00  0.00    +0.000 C 
ATOM     26  N   UNL     1      48.910   2.835  18.113  0.00  0.00    +0.000 N 
ATOM     27  O   UNL     1      46.717   2.474  17.703  0.00  0.00    +0.000 OA
ATOM     28  H   UNL     1      49.741   3.388  17.923  0.00  0.00    +0.000 HD
ATOM     29  H   UNL     1      48.916   2.115  18.820  0.00  0.00    +0.000 HD
ENDBRANCH  22  25
ENDBRANCH  17  19
ENDBRANCH  16  17
ENDBRANCH   1  16
TORSDOF 8
ENDMDL
MODEL 7
REMARK VINA RESULT:    -6.060      4.820      7.473
REMARK INTER + INTRA:          -9.573
REMARK INTER:                  -8.835
REMARK INTRA:                  -0.738
REMARK UNBOUND:                -0.680
REMARK  Name = 
REMARK  8 active torsions:
REMARK  status: ('A' for Active; 'I' for Inactive)
REMARK    1  A    between atoms: C_2  and  C_3
REMARK    2  A    between atoms: C_3  and  C_4
REMARK    3  A    between atoms: C_4  and  C_5
REMARK    4  A    between atoms: C_4  and  C_16
REMARK    5  A    between atoms: C_5  and  N_6
REMARK    6  A    between atoms: N_6  and  C_7
REMARK    7  A    between atoms: C_10  and  C_11
REMARK    8  A    between atoms: C_20  and  C_21
REMARK                            x       y       z     vdW  Elec       q    Type
REMARK                         _______ _______ _______ _____ _____    ______ ____
ROOT
ATOM      1  C   UNL     1      47.672   5.667  14.286  0.00  0.00    +0.000 C 
ENDROOT
BRANCH   1   2
ATOM      2  C   UNL     1      46.673   5.972  13.178  0.00  0.00    +0.000 A 
ATOM      3  C   UNL     1      47.136   6.393  11.923  0.00  0.00    +0.000 A 
ATOM      4  C   UNL     1      46.246   6.555  10.857  0.00  0.00    +0.000 A 
ATOM      5  C   UNL     1      44.889   6.272  11.018  0.00  0.00    +0.000 A 
ATOM      6  C   UNL     1      44.410   5.853  12.263  0.00  0.00    +0.000 A 
ATOM      7  C   UNL     1      45.299   5.737  13.338  0.00  0.00    +0.000 A 
BRANCH   6   8
ATOM      8  C   UNL     1      43.009   5.412  12.490  0.00  0.00    +0.000 C 
ATOM      9  N   UNL     1      42.025   6.008  11.760  0.00  0.00    +0.000 N 
ATOM     10  O   UNL     1      42.749   4.542  13.312  0.00  0.00    +0.000 OA
ATOM     11  H   UNL     1      42.158   6.839  11.207  0.00  0.00    +0.000 HD
ATOM     12  H   UNL     1      41.075   5.712  11.958  0.00  0.00    +0.000 HD
ENDBRANCH   6   8
ENDBRANCH   1   2
BRANCH   1  13
ATOM     13  C   UNL     1      48.128   6.923  15.037  0.00  0.00    +0.000 C 
BRANCH  13  15
ATOM     14  N   UNL     1      50.672   7.691  14.217  0.00  0.00    +0.000 NA
ATOM     15  C   UNL     1      49.518   7.343  14.590  0.00  0.00    +0.000 C 
ENDBRANCH  13  15
ENDBRANCH   1  13
BRANCH   1  16
ATOM     16  C   UNL     1      47.105   4.585  15.240  0.00  0.00    +0.000 C 
BRANCH  16  17
ATOM     17  N   UNL     1      47.709   4.667  16.571  0.00  0.00    +0.000 N 
ATOM     18  H   UNL     1      47.041   4.716  17.340  0.00  0.00    +0.000 HD
BRANCH  17  19
ATOM     19  C   UNL     1      48.760   3.810  16.898  0.00  0.00    +0.000 A 
ATOM     20  C   UNL     1      48.895   2.498  16.467  0.00  0.00    +0.000 A 
ATOM     21  N   UNL     1      49.956   1.704  16.714  0.00  0.00    +0.000 NA
ATOM     22  C   UNL     1      50.961   2.284  17.414  0.00  0.00    +0.000 A 
ATOM     23  N   UNL     1      50.972   3.548  17.874  0.00  0.00    +0.000 NA
ATOM     24  C   UNL     1      49.872   4.276  17.588  0.00  0.00    +0.000 A 
BRANCH  22  25
ATOM     25  C   UNL     1      52.173   1.423  17.665  0.00  0.00    +0.000 C 
ATOM     26  N   UNL     1      51.917   0.185  18.207  0.00  0.00    +0.000 N 
ATOM     27  O   UNL     1      53.327   1.762  17.410  0.00  0.00    +0.000 OA
ATOM     28  H   UNL     1      50.959  -0.099  18.387  0.00  0.00    +0.000 HD
ATOM     29  H   UNL     1      52.687  -0.448  18.369  0.00  0.00    +0.000 HD
ENDBRANCH  22  25
ENDBRANCH  17  19
ENDBRANCH  16  17
ENDBRANCH   1  16
TORSDOF 8
ENDMDL
MODEL 8
REMARK VINA RESULT:    -5.995      3.241      4.825
REMARK INTER + INTRA:          -9.478
REMARK INTER:                  -8.648
REMARK INTRA:                  -0.831
REMARK UNBOUND:                -0.680
REMARK  Name = 
REMARK  8 active torsions:
REMARK  status: ('A' for Active; 'I' for Inactive)
REMARK    1  A    between atoms: C_2  and  C_3
REMARK    2  A    between atoms: C_3  and  C_4
REMARK    3  A    between atoms: C_4  and  C_5
REMARK    4  A    between atoms: C_4  and  C_16
REMARK    5  A    between atoms: C_5  and  N_6
REMARK    6  A    between atoms: N_6  and  C_7
REMARK    7  A    between atoms: C_10  and  C_11
REMARK    8  A    between atoms: C_20  and  C_21
REMARK                            x       y       z     vdW  Elec       q    Type
REMARK                         _______ _______ _______ _____ _____    ______ ____
ROOT
ATOM      1  C   UNL     1      47.361   7.564  12.766  0.00  0.00    +0.000 C 
ENDROOT
BRANCH   1   2
ATOM      2  C   UNL     1      48.414   8.430  12.087  0.00  0.00    +0.000 A 
ATOM      3  C   UNL     1      48.175   9.800  11.906  0.00  0.00    +0.000 A 
ATOM      4  C   UNL     1      49.177  10.634  11.402  0.00  0.00    +0.000 A 
ATOM      5  C   UNL     1      50.439  10.120  11.097  0.00  0.00    +0.000 A 
ATOM      6  C   UNL     1      50.693   8.756  11.268  0.00  0.00    +0.000 A 
ATOM      7  C   UNL     1      49.671   7.919  11.731  0.00  0.00    +0.000 A 
BRANCH   6   8
ATOM      8  C   UNL     1      52.038   8.151  11.089  0.00  0.00    +0.000 C 
ATOM      9  N   UNL     1      52.109   6.881  10.601  0.00  0.00    +0.000 N 
ATOM     10  O   UNL     1      53.052   8.775  11.376  0.00  0.00    +0.000 OA
ATOM     11  H   UNL     1      51.316   6.265  10.516  0.00  0.00    +0.000 HD
ATOM     12  H   UNL     1      53.037   6.479  10.519  0.00  0.00    +0.000 HD
ENDBRANCH   6   8
ENDBRANCH   1   2
BRANCH   1  13
ATOM     13  C   UNL     1      47.916   6.783  13.962  0.00  0.00    +0.000 C 
BRANCH  13  15
ATOM     14  N   UNL     1      47.181   4.104  13.818  0.00  0.00    +0.000 NA
ATOM     15  C   UNL     1      47.513   5.320  13.883  0.00  0.00    +0.000 C 
ENDBRANCH  13  15
ENDBRANCH   1  13
BRANCH   1  16
ATOM     16  C   UNL     1      46.124   8.418  13.145  0.00  0.00    +0.000 C 
BRANCH  16  17
ATOM     17  N   UNL     1      44.944   8.036  12.366  0.00  0.00    +0.000 N 
ATOM     18  H   UNL     1      44.788   8.594  11.527  0.00  0.00    +0.000 HD
BRANCH  17  19
ATOM     19  C   UNL     1      44.708   6.687  12.101  0.00  0.00    +0.000 A 
ATOM     20  C   UNL     1      43.942   5.834  12.883  0.00  0.00    +0.000 A 
ATOM     21  N   UNL     1      43.646   4.556  12.574  0.00  0.00    +0.000 NA
ATOM     22  C   UNL     1      44.126   4.122  11.384  0.00  0.00    +0.000 A 
ATOM     23  N   UNL     1      44.860   4.846  10.521  0.00  0.00    +0.000 NA
ATOM     24  C   UNL     1      45.117   6.114  10.904  0.00  0.00    +0.000 A 
BRANCH  22  25
ATOM     25  C   UNL     1      43.769   2.706  11.005  0.00  0.00    +0.000 C 
ATOM     26  N   UNL     1      44.468   2.184   9.943  0.00  0.00    +0.000 N 
ATOM     27  O   UNL     1      42.922   2.028  11.584  0.00  0.00    +0.000 OA
ATOM     28  H   UNL     1      45.187   2.740   9.489  0.00  0.00    +0.000 HD
ATOM     29  H   UNL     1      44.294   1.230   9.663  0.00  0.00    +0.000 HD
ENDBRANCH  22  25
ENDBRANCH  17  19
ENDBRANCH  16  17
ENDBRANCH   1  16
TORSDOF 8
ENDMDL
MODEL 9
REMARK VINA RESULT:    -5.954      4.621      7.278
REMARK INTER + INTRA:          -9.418
REMARK INTER:                  -8.560
REMARK INTRA:                  -0.858
REMARK UNBOUND:                -0.680
REMARK  Name = 
REMARK  8 active torsions:
REMARK  status: ('A' for Active; 'I' for Inactive)
REMARK    1  A    between atoms: C_2  and  C_3
REMARK    2  A    between atoms: C_3  and  C_4
REMARK    3  A    between atoms: C_4  and  C_5
REMARK    4  A    between atoms: C_4  and  C_16
REMARK    5  A    between atoms: C_5  and  N_6
REMARK    6  A    between atoms: N_6  and  C_7
REMARK    7  A    between atoms: C_10  and  C_11
REMARK    8  A    between atoms: C_20  and  C_21
REMARK                            x       y       z     vdW  Elec       q    Type
REMARK                         _______ _______ _______ _____ _____    ______ ____
ROOT
ATOM      1  C   UNL     1      48.597   7.085  16.158  0.00  0.00    +0.000 C 
ENDROOT
BRANCH   1   2
ATOM      2  C   UNL     1      48.740   5.925  17.135  0.00  0.00    +0.000 A 
ATOM      3  C   UNL     1      48.178   6.023  18.416  0.00  0.00    +0.000 A 
ATOM      4  C   UNL     1      48.187   4.925  19.281  0.00  0.00    +0.000 A 
ATOM      5  C   UNL     1      48.730   3.707  18.871  0.00  0.00    +0.000 A 
ATOM      6  C   UNL     1      49.296   3.591  17.598  0.00  0.00    +0.000 A 
ATOM      7  C   UNL     1      49.324   4.708  16.755  0.00  0.00    +0.000 A 
BRANCH   6   8
ATOM      8  C   UNL     1      49.781   2.304  17.037  0.00  0.00    +0.000 C 
ATOM      9  N   UNL     1      50.809   1.674  17.673  0.00  0.00    +0.000 N 
ATOM     10  O   UNL     1      49.273   1.826  16.030  0.00  0.00    +0.000 OA
ATOM     11  H   UNL     1      51.373   2.101  18.390  0.00  0.00    +0.000 HD
ATOM     12  H   UNL     1      51.142   0.814  17.250  0.00  0.00    +0.000 HD
ENDBRANCH   6   8
ENDBRANCH   1   2
BRANCH   1  13
ATOM     13  C   UNL     1      49.620   8.199  16.404  0.00  0.00    +0.000 C 
BRANCH  13  15
ATOM     14  N   UNL     1      51.928   7.763  14.915  0.00  0.00    +0.000 NA
ATOM     15  C   UNL     1      50.881   7.961  15.590  0.00  0.00    +0.000 C 
ENDBRANCH  13  15
ENDBRANCH   1  13
BRANCH   1  16
ATOM     16  C   UNL     1      48.632   6.567  14.698  0.00  0.00    +0.000 C 
BRANCH  16  17
ATOM     17  N   UNL     1      47.515   7.093  13.910  0.00  0.00    +0.000 N 
ATOM     18  H   UNL     1      47.779   7.778  13.202  0.00  0.00    +0.000 HD
BRANCH  17  19
ATOM     19  C   UNL     1      46.564   6.210  13.399  0.00  0.00    +0.000 A 
ATOM     20  C   UNL     1      45.721   6.465  12.327  0.00  0.00    +0.000 A 
ATOM     21  N   UNL     1      44.867   5.576  11.782  0.00  0.00    +0.000 NA
ATOM     22  C   UNL     1      44.890   4.339  12.335  0.00  0.00    +0.000 A 
ATOM     23  N   UNL     1      45.669   3.949  13.360  0.00  0.00    +0.000 NA
ATOM     24  C   UNL     1      46.493   4.899  13.851  0.00  0.00    +0.000 A 
BRANCH  22  25
ATOM     25  C   UNL     1      43.969   3.320  11.712  0.00  0.00    +0.000 C 
ATOM     26  N   UNL     1      43.789   2.164  12.434  0.00  0.00    +0.000 N 
ATOM     27  O   UNL     1      43.393   3.476  10.637  0.00  0.00    +0.000 OA
ATOM     28  H   UNL     1      44.245   2.056  13.335  0.00  0.00    +0.000 HD
ATOM     29  H   UNL     1      43.160   1.458  12.082  0.00  0.00    +0.000 HD
ENDBRANCH  22  25
ENDBRANCH  17  19
ENDBRANCH  16  17
ENDBRANCH   1  16
TORSDOF 8
ENDMDL
