MODEL 1
REMARK VINA RESULT:    -7.361      0.000      0.000
REMARK INTER + INTRA:          -9.489
REMARK INTER:                  -9.083
REMARK INTRA:                  -0.406
REMARK UNBOUND:                -0.406
REMARK  Name = 
REMARK  5 active torsions:
REMARK  status: ('A' for Active; 'I' for Inactive)
REMARK    1  A    between atoms: C_1  and  N_2
REMARK    2  A    between atoms: C_3  and  C_5
REMARK    3  A    between atoms: C_8  and  N_9
REMARK    4  A    between atoms: N_9  and  C_10
REMARK    5  A    between atoms: C_10  and  C_11
REMARK                            x       y       z     vdW  Elec       q    Type
REMARK                         _______ _______ _______ _____ _____    ______ ____
ROOT
ATOM      1  C   UNL     1      46.605   4.838  13.718  0.00  0.00    +0.000 A 
ATOM      2  C   UNL     1      46.847   5.916  12.888  0.00  0.00    +0.000 A 
ATOM      3  N   UNL     1      46.252   6.042  11.672  0.00  0.00    +0.000 NA
ATOM      4  C   UNL     1      45.374   5.081  11.317  0.00  0.00    +0.000 A 
ATOM      5  C   UNL     1      45.165   3.986  12.165  0.00  0.00    +0.000 A 
ATOM      6  N   UNL     1      45.757   3.831  13.377  0.00  0.00    +0.000 NA
ENDROOT
BRANCH   1   9
ATOM      7  C   UNL     1      47.340   3.544  17.184  0.00  0.00    +0.000 C 
ATOM      8  N   UNL     1      46.765   3.799  15.892  0.00  0.00    +0.000 N 
ATOM      9  C   UNL     1      47.299   4.736  15.032  0.00  0.00    +0.000 C 
ATOM     10  O   UNL     1      48.269   5.435  15.294  0.00  0.00    +0.000 OA
ATOM     11  H   UNL     1      45.969   3.263  15.558  0.00  0.00    +0.000 HD
ENDBRANCH   1   9
BRANCH   4  12
ATOM     12  N   UNL     1      44.804   5.230  10.061  0.00  0.00    +0.000 N 
ATOM     13  H   UNL     1      45.491   5.661   9.446  0.00  0.00    +0.000 HD
BRANCH  12  14
ATOM     14  C   UNL     1      44.206   4.055   9.437  0.00  0.00    +0.000 C 
BRANCH  14  15
ATOM     15  C   UNL     1      45.229   3.311   8.616  0.00  0.00    +0.000 A 
ATOM     16  C   UNL     1      45.432   1.948   8.816  0.00  0.00    +0.000 A 
ATOM     17  N   UNL     1      46.369   1.236   8.144  0.00  0.00    +0.000 NA
ATOM     18  C   UNL     1      47.095   1.942   7.251  0.00  0.00    +0.000 A 
ATOM     19  C   UNL     1      46.900   3.296   7.041  0.00  0.00    +0.000 A 
ATOM     20  N   UNL     1      45.970   4.013   7.717  0.00  0.00    +0.000 NA
ENDBRANCH  14  15
ENDBRANCH  12  14
ENDBRANCH   4  12
TORSDOF 4
ENDMDL
MODEL 2
REMARK VINA RESULT:    -6.801      1.007      1.761
REMARK INTER + INTRA:          -8.797
REMARK INTER:                  -8.424
REMARK INTRA:                  -0.373
REMARK UNBOUND:                -0.406
REMARK  Name = 
REMARK  5 active torsions:
REMARK  status: ('A' for Active; 'I' for Inactive)
REMARK    1  A    between atoms: C_1  and  N_2
REMARK    2  A    between atoms: C_3  and  C_5
REMARK    3  A    between atoms: C_8  and  N_9
REMARK    4  A    between atoms: N_9  and  C_10
REMARK    5  A    between atoms: C_10  and  C_11
REMARK                            x       y       z     vdW  Elec       q    Type
REMARK                         _______ _______ _______ _____ _____    ______ ____
ROOT
ATOM      1  C   UNL     1      46.460   4.719  13.275  0.00  0.00    +0.000 A 
ATOM      2  C   UNL     1      45.955   3.477  12.939  0.00  0.00    +0.000 A 
ATOM      3  N   UNL     1      45.261   3.265  11.789  0.00  0.00    +0.000 NA
ATOM      4  C   UNL     1      45.115   4.318  10.958  0.00  0.00    +0.000 A 
ATOM      5  C   UNL     1      45.615   5.572  11.333  0.00  0.00    +0.000 A 
ATOM      6  N   UNL     1      46.298   5.811  12.482  0.00  0.00    +0.000 NA
ENDROOT
BRANCH   1   9
ATOM      7  C   UNL     1      47.408   4.100  16.873  0.00  0.00    +0.000 C 
ATOM      8  N   UNL     1      46.777   4.081  15.582  0.00  0.00    +0.000 N 
ATOM      9  C   UNL     1      47.195   4.904  14.558  0.00  0.00    +0.000 C 
ATOM     10  O   UNL     1      48.100   5.722  14.659  0.00  0.00    +0.000 OA
ATOM     11  H   UNL     1      46.027   3.426  15.376  0.00  0.00    +0.000 HD
ENDBRANCH   1   9
BRANCH   4  12
ATOM     12  N   UNL     1      44.383   4.070   9.806  0.00  0.00    +0.000 N 
ATOM     13  H   UNL     1      44.691   4.719   9.085  0.00  0.00    +0.000 HD
BRANCH  12  14
ATOM     14  C   UNL     1      44.348   2.702   9.299  0.00  0.00    +0.000 C 
BRANCH  14  15
ATOM     15  C   UNL     1      45.513   2.447   8.376  0.00  0.00    +0.000 A 
ATOM     16  C   UNL     1      45.960   3.450   7.518  0.00  0.00    +0.000 A 
ATOM     17  N   UNL     1      46.969   3.265   6.633  0.00  0.00    +0.000 NA
ATOM     18  C   UNL     1      47.524   2.035   6.643  0.00  0.00    +0.000 A 
ATOM     19  C   UNL     1      47.092   1.032   7.493  0.00  0.00    +0.000 A 
ATOM     20  N   UNL     1      46.078   1.210   8.374  0.00  0.00    +0.000 NA
ENDBRANCH  14  15
ENDBRANCH  12  14
ENDBRANCH   4  12
TORSDOF 4
ENDMDL
MODEL 3
REMARK VINA RESULT:    -6.592      1.640      2.322
REMARK INTER + INTRA:          -8.540
REMARK INTER:                  -8.215
REMARK INTRA:                  -0.324
REMARK UNBOUND:                -0.406
REMARK  Name = 
REMARK  5 active torsions:
REMARK  status: ('A' for Active; 'I' for Inactive)
REMARK    1  A    between atoms: C_1  and  N_2
REMARK    2  A    between atoms: C_3  and  C_5
REMARK    3  A    between atoms: C_8  and  N_9
REMARK    4  A    between atoms: N_9  and  C_10
REMARK    5  A    between atoms: C_10  and  C_11
REMARK                            x       y       z     vdW  Elec       q    Type
REMARK                         _______ _______ _______ _____ _____    ______ ____
ROOT
ATOM      1  C   UNL     1      46.495   5.710  12.717  0.00  0.00    +0.000 A 
ATOM      2  C   UNL     1      46.209   6.271  11.487  0.00  0.00    +0.000 A 
ATOM      3  N   UNL     1      45.423   5.645  10.571  0.00  0.00    +0.000 NA
ATOM      4  C   UNL     1      44.894   4.457  10.927  0.00  0.00    +0.000 A 
ATOM      5  C   UNL     1      45.219   3.897  12.170  0.00  0.00    +0.000 A 
ATOM      6  N   UNL     1      46.013   4.496  13.095  0.00  0.00    +0.000 NA
ENDROOT
BRANCH   1   9
ATOM      7  C   UNL     1      47.928   8.629  14.628  0.00  0.00    +0.000 C 
ATOM      8  N   UNL     1      47.187   7.792  13.725  0.00  0.00    +0.000 N 
ATOM      9  C   UNL     1      47.380   6.427  13.678  0.00  0.00    +0.000 C 
ATOM     10  O   UNL     1      48.195   5.824  14.364  0.00  0.00    +0.000 OA
ATOM     11  H   UNL     1      46.467   8.181  13.123  0.00  0.00    +0.000 HD
ENDBRANCH   1   9
BRANCH   4  12
ATOM     12  N   UNL     1      44.116   3.837   9.960  0.00  0.00    +0.000 N 
ATOM     13  H   UNL     1      44.078   4.443   9.143  0.00  0.00    +0.000 HD
BRANCH  12  14
ATOM     14  C   UNL     1      44.455   2.469   9.583  0.00  0.00    +0.000 C 
BRANCH  14  15
ATOM     15  C   UNL     1      45.487   2.461   8.483  0.00  0.00    +0.000 A 
ATOM     16  C   UNL     1      45.620   3.561   7.639  0.00  0.00    +0.000 A 
ATOM     17  N   UNL     1      46.494   3.594   6.604  0.00  0.00    +0.000 NA
ATOM     18  C   UNL     1      47.241   2.480   6.449  0.00  0.00    +0.000 A 
ATOM     19  C   UNL     1      47.121   1.383   7.283  0.00  0.00    +0.000 A 
ATOM     20  N   UNL     1      46.242   1.343   8.313  0.00  0.00    +0.000 NA
ENDBRANCH  14  15
ENDBRANCH  12  14
ENDBRANCH   4  12
TORSDOF 4
ENDMDL
MODEL 4
REMARK VINA RESULT:    -6.131      2.625      7.140
REMARK INTER + INTRA:          -7.971
REMARK INTER:                  -7.604
REMARK INTRA:                  -0.367
REMARK UNBOUND:                -0.406
REMARK  Name = 
REMARK  5 active torsions:
REMARK  status: ('A' for Active; 'I' for Inactive)
REMARK    1  A    between atoms: C_1  and  N_2
REMARK    2  A    between atoms: C_3  and  C_5
REMARK    3  A    between atoms: C_8  and  N_9
REMARK    4  A    between atoms: N_9  and  C_10
REMARK    5  A    between atoms: C_10  and  C_11
REMARK                            x       y       z     vdW  Elec       q    Type
REMARK                         _______ _______ _______ _____ _____    ______ ____
ROOT
ATOM      1  C   UNL     1      45.310   4.146  11.835  0.00  0.00    +0.000 A 
ATOM      2  C   UNL     1      45.924   3.188  12.620  0.00  0.00    +0.000 A 
ATOM      3  N   UNL     1      46.548   3.500  13.787  0.00  0.00    +0.000 NA
ATOM      4  C   UNL     1      46.513   4.791  14.175  0.00  0.00    +0.000 A 
ATOM      5  C   UNL     1      45.906   5.747  13.349  0.00  0.00    +0.000 A 
ATOM      6  N   UNL     1      45.288   5.462  12.174  0.00  0.00    +0.000 NA
ENDROOT
BRANCH   1   9
ATOM      7  C   UNL     1      44.528   2.006   8.829  0.00  0.00    +0.000 C 
ATOM      8  N   UNL     1      45.085   2.550  10.037  0.00  0.00    +0.000 N 
ATOM      9  C   UNL     1      44.657   3.755  10.554  0.00  0.00    +0.000 C 
ATOM     10  O   UNL     1      43.805   4.463  10.034  0.00  0.00    +0.000 OA
ATOM     11  H   UNL     1      45.785   2.039  10.567  0.00  0.00    +0.000 HD
ENDBRANCH   1   9
BRANCH   4  12
ATOM     12  N   UNL     1      47.179   5.076  15.358  0.00  0.00    +0.000 N 
ATOM     13  H   UNL     1      46.848   5.973  15.705  0.00  0.00    +0.000 HD
BRANCH  12  14
ATOM     14  C   UNL     1      47.162   4.068  16.413  0.00  0.00    +0.000 C 
BRANCH  14  15
ATOM     15  C   UNL     1      48.564   3.614  16.736  0.00  0.00    +0.000 A 
ATOM     16  C   UNL     1      48.934   2.286  16.537  0.00  0.00    +0.000 A 
ATOM     17  N   UNL     1      50.162   1.808  16.855  0.00  0.00    +0.000 NA
ATOM     18  C   UNL     1      51.014   2.717  17.375  0.00  0.00    +0.000 A 
ATOM     19  C   UNL     1      50.660   4.040  17.573  0.00  0.00    +0.000 A 
ATOM     20  N   UNL     1      49.430   4.519  17.265  0.00  0.00    +0.000 NA
ENDBRANCH  14  15
ENDBRANCH  12  14
ENDBRANCH   4  12
TORSDOF 4
ENDMDL
MODEL 5
REMARK VINA RESULT:    -6.100      2.872      3.092
REMARK INTER + INTRA:          -7.932
REMARK INTER:                  -7.827
REMARK INTRA:                  -0.105
REMARK UNBOUND:                -0.406
REMARK  Name = 
REMARK  5 active torsions:
REMARK  status: ('A' for Active; 'I' for Inactive)
REMARK    1  A    between atoms: C_1  and  N_2
REMARK    2  A    between atoms: C_3  and  C_5
REMARK    3  A    between atoms: C_8  and  N_9
REMARK    4  A    between atoms: N_9  and  C_10
REMARK    5  A    between atoms: C_10  and  C_11
REMARK                            x       y       z     vdW  Elec       q    Type
REMARK                         _______ _______ _______ _____ _____    ______ ____
ROOT
ATOM      1  C   UNL     1      45.099   6.531  11.436  0.00  0.00    +0.000 A 
ATOM      2  C   UNL     1      45.953   6.091  10.441  0.00  0.00    +0.000 A 
ATOM      3  N   UNL     1      45.646   5.039   9.636  0.00  0.00    +0.000 NA
ATOM      4  C   UNL     1      44.444   4.455   9.822  0.00  0.00    +0.000 A 
ATOM      5  C   UNL     1      43.607   4.904  10.853  0.00  0.00    +0.000 A 
ATOM      6  N   UNL     1      43.897   5.942  11.677  0.00  0.00    +0.000 NA
ENDROOT
BRANCH   1   9
ATOM      7  C   UNL     1      47.059   8.414  14.051  0.00  0.00    +0.000 C 
ATOM      8  N   UNL     1      46.529   7.407  13.172  0.00  0.00    +0.000 N 
ATOM      9  C   UNL     1      45.491   7.675  12.305  0.00  0.00    +0.000 C 
ATOM     10  O   UNL     1      44.925   8.758  12.223  0.00  0.00    +0.000 OA
ATOM     11  H   UNL     1      46.935   6.476  13.138  0.00  0.00    +0.000 HD
ENDBRANCH   1   9
BRANCH   4  12
ATOM     12  N   UNL     1      44.175   3.372   8.999  0.00  0.00    +0.000 N 
ATOM     13  H   UNL     1      44.073   3.711   8.044  0.00  0.00    +0.000 HD
BRANCH  12  14
ATOM     14  C   UNL     1      45.080   2.229   9.054  0.00  0.00    +0.000 C 
BRANCH  14  15
ATOM     15  C   UNL     1      45.997   2.219   7.856  0.00  0.00    +0.000 A 
ATOM     16  C   UNL     1      46.957   1.219   7.718  0.00  0.00    +0.000 A 
ATOM     17  N   UNL     1      47.840   1.184   6.690  0.00  0.00    +0.000 NA
ATOM     18  C   UNL     1      47.720   2.188   5.795  0.00  0.00    +0.000 A 
ATOM     19  C   UNL     1      46.767   3.184   5.920  0.00  0.00    +0.000 A 
ATOM     20  N   UNL     1      45.889   3.227   6.951  0.00  0.00    +0.000 NA
ENDBRANCH  14  15
ENDBRANCH  12  14
ENDBRANCH   4  12
TORSDOF 4
ENDMDL
MODEL 6
REMARK VINA RESULT:    -5.532      2.752      7.222
REMARK INTER + INTRA:          -7.232
REMARK INTER:                  -6.872
REMARK INTRA:                  -0.359
REMARK UNBOUND:                -0.406
REMARK  Name = 
REMARK  5 active torsions:
REMARK  status: ('A' for Active; 'I' for Inactive)
REMARK    1  A    between atoms: C_1  and  N_2
REMARK    2  A    between atoms: C_3  and  C_5
REMARK    3  A    between atoms: C_8  and  N_9
REMARK    4  A    between atoms: N_9  and  C_10
REMARK    5  A    between atoms: C_10  and  C_11
REMARK                            x       y       z     vdW  Elec       q    Type
REMARK                         _______ _______ _______ _____ _____    ______ ____
ROOT
ATOM      1  C   UNL     1      45.083   4.201  11.772  0.00  0.00    +0.000 A 
ATOM      2  C   UNL     1      45.564   5.362  11.195  0.00  0.00    +0.000 A 
ATOM      3  N   UNL     1      46.223   6.308  11.914  0.00  0.00    +0.000 NA
ATOM      4  C   UNL     1      46.428   6.052  13.223  0.00  0.00    +0.000 A 
ATOM      5  C   UNL     1      45.909   4.880  13.789  0.00  0.00    +0.000 A 
ATOM      6  N   UNL     1      45.235   3.927  13.094  0.00  0.00    +0.000 NA
ENDROOT
BRANCH   1   9
ATOM      7  C   UNL     1      44.541   1.652   9.045  0.00  0.00    +0.000 C 
ATOM      8  N   UNL     1      45.085   2.659   9.914  0.00  0.00    +0.000 N 
ATOM      9  C   UNL     1      44.348   3.205  10.943  0.00  0.00    +0.000 C 
ATOM     10  O   UNL     1      43.186   2.908  11.189  0.00  0.00    +0.000 OA
ATOM     11  H   UNL     1      46.048   2.969   9.817  0.00  0.00    +0.000 HD
ENDBRANCH   1   9
BRANCH   4  12
ATOM     12  N   UNL     1      47.084   7.049  13.929  0.00  0.00    +0.000 N 
ATOM     13  H   UNL     1      46.567   7.227  14.788  0.00  0.00    +0.000 HD
BRANCH  12  14
ATOM     14  C   UNL     1      48.506   6.872  14.201  0.00  0.00    +0.000 C 
BRANCH  14  15
ATOM     15  C   UNL     1      48.733   6.542  15.656  0.00  0.00    +0.000 A 
ATOM     16  C   UNL     1      48.964   7.561  16.577  0.00  0.00    +0.000 A 
ATOM     17  N   UNL     1      49.222   7.325  17.886  0.00  0.00    +0.000 NA
ATOM     18  C   UNL     1      49.231   6.023  18.244  0.00  0.00    +0.000 A 
ATOM     19  C   UNL     1      48.999   5.003  17.338  0.00  0.00    +0.000 A 
ATOM     20  N   UNL     1      48.750   5.234  16.027  0.00  0.00    +0.000 NA
ENDBRANCH  14  15
ENDBRANCH  12  14
ENDBRANCH   4  12
TORSDOF 4
ENDMDL
MODEL 7
REMARK VINA RESULT:    -5.085      2.094      3.611
REMARK INTER + INTRA:          -6.680
REMARK INTER:                  -6.353
REMARK INTRA:                  -0.328
REMARK UNBOUND:                -0.406
REMARK  Name = 
REMARK  5 active torsions:
REMARK  status: ('A' for Active; 'I' for Inactive)
REMARK    1  A    between atoms: C_1  and  N_2
REMARK    2  A    between atoms: C_3  and  C_5
REMARK    3  A    between atoms: C_8  and  N_9
REMARK    4  A    between atoms: N_9  and  C_10
REMARK    5  A    between atoms: C_10  and  C_11
REMARK                            x       y       z     vdW  Elec       q    Type
REMARK                         _______ _______ _______ _____ _____    ______ ____
ROOT
ATOM      1  C   UNL     1      48.133   4.656  16.445  0.00  0.00    +0.000 A 
ATOM      2  C   UNL     1      47.311   3.778  15.762  0.00  0.00    +0.000 A 
ATOM      3  N   UNL     1      46.853   4.041  14.510  0.00  0.00    +0.000 NA
ATOM      4  C   UNL     1      47.268   5.189  13.934  0.00  0.00    +0.000 A 
ATOM      5  C   UNL     1      48.081   6.073  14.656  0.00  0.00    +0.000 A 
ATOM      6  N   UNL     1      48.539   5.839  15.913  0.00  0.00    +0.000 NA
ENDROOT
BRANCH   1   9
ATOM      7  C   UNL     1      49.908   5.141  19.738  0.00  0.00    +0.000 C 
ATOM      8  N   UNL     1      49.412   5.279  18.396  0.00  0.00    +0.000 N 
ATOM      9  C   UNL     1      48.590   4.330  17.825  0.00  0.00    +0.000 C 
ATOM     10  O   UNL     1      48.238   3.300  18.385  0.00  0.00    +0.000 OA
ATOM     11  H   UNL     1      49.622   6.105  17.843  0.00  0.00    +0.000 HD
ENDBRANCH   1   9
BRANCH   4  12
ATOM     12  N   UNL     1      46.763   5.434  12.665  0.00  0.00    +0.000 N 
ATOM     13  H   UNL     1      47.304   4.893  11.994  0.00  0.00    +0.000 HD
BRANCH  12  14
ATOM     14  C   UNL     1      45.331   5.254  12.452  0.00  0.00    +0.000 C 
BRANCH  14  15
ATOM     15  C   UNL     1      45.074   4.559  11.138  0.00  0.00    +0.000 A 
ATOM     16  C   UNL     1      45.357   5.205   9.937  0.00  0.00    +0.000 A 
ATOM     17  N   UNL     1      45.102   4.653   8.726  0.00  0.00    +0.000 NA
ATOM     18  C   UNL     1      44.558   3.418   8.761  0.00  0.00    +0.000 A 
ATOM     19  C   UNL     1      44.276   2.765   9.948  0.00  0.00    +0.000 A 
ATOM     20  N   UNL     1      44.521   3.317  11.160  0.00  0.00    +0.000 NA
ENDBRANCH  14  15
ENDBRANCH  12  14
ENDBRANCH   4  12
TORSDOF 4
ENDMDL
MODEL 8
REMARK VINA RESULT:    -5.015      4.154      7.058
REMARK INTER + INTRA:          -6.594
REMARK INTER:                  -6.227
REMARK INTRA:                  -0.367
REMARK UNBOUND:                -0.406
REMARK  Name = 
REMARK  5 active torsions:
REMARK  status: ('A' for Active; 'I' for Inactive)
REMARK    1  A    between atoms: C_1  and  N_2
REMARK    2  A    between atoms: C_3  and  C_5
REMARK    3  A    between atoms: C_8  and  N_9
REMARK    4  A    between atoms: N_9  and  C_10
REMARK    5  A    between atoms: C_10  and  C_11
REMARK                            x       y       z     vdW  Elec       q    Type
REMARK                         _______ _______ _______ _____ _____    ______ ____
ROOT
ATOM      1  C   UNL     1      45.449   7.352  12.468  0.00  0.00    +0.000 A 
ATOM      2  C   UNL     1      46.745   7.266  12.939  0.00  0.00    +0.000 A 
ATOM      3  N   UNL     1      47.212   6.160  13.577  0.00  0.00    +0.000 NA
ATOM      4  C   UNL     1      46.363   5.119  13.701  0.00  0.00    +0.000 A 
ATOM      5  C   UNL     1      45.046   5.240  13.236  0.00  0.00    +0.000 A 
ATOM      6  N   UNL     1      44.553   6.339  12.609  0.00  0.00    +0.000 NA
ENDROOT
BRANCH   1   9
ATOM      7  C   UNL     1      43.128   9.606  10.528  0.00  0.00    +0.000 C 
ATOM      8  N   UNL     1      43.746   8.488  11.187  0.00  0.00    +0.000 N 
ATOM      9  C   UNL     1      44.980   8.595  11.794  0.00  0.00    +0.000 C 
ATOM     10  O   UNL     1      45.654   9.617  11.806  0.00  0.00    +0.000 OA
ATOM     11  H   UNL     1      43.269   7.594  11.259  0.00  0.00    +0.000 HD
ENDBRANCH   1   9
BRANCH   4  12
ATOM     12  N   UNL     1      46.865   4.017  14.376  0.00  0.00    +0.000 N 
ATOM     13  H   UNL     1      47.821   3.857  14.063  0.00  0.00    +0.000 HD
BRANCH  12  14
ATOM     14  C   UNL     1      46.784   4.011  15.833  0.00  0.00    +0.000 C 
BRANCH  14  15
ATOM     15  C   UNL     1      48.157   3.879  16.441  0.00  0.00    +0.000 A 
ATOM     16  C   UNL     1      48.633   2.631  16.834  0.00  0.00    +0.000 A 
ATOM     17  N   UNL     1      49.837   2.456  17.431  0.00  0.00    +0.000 NA
ATOM     18  C   UNL     1      50.557   3.583  17.613  0.00  0.00    +0.000 A 
ATOM     19  C   UNL     1      50.097   4.829  17.223  0.00  0.00    +0.000 A 
ATOM     20  N   UNL     1      48.890   5.009  16.635  0.00  0.00    +0.000 NA
ENDBRANCH  14  15
ENDBRANCH  12  14
ENDBRANCH   4  12
TORSDOF 4
ENDMDL
MODEL 9
REMARK VINA RESULT:    -4.931      4.084      7.498
REMARK INTER + INTRA:          -6.490
REMARK INTER:                  -6.138
REMARK INTRA:                  -0.351
REMARK UNBOUND:                -0.406
REMARK  Name = 
REMARK  5 active torsions:
REMARK  status: ('A' for Active; 'I' for Inactive)
REMARK    1  A    between atoms: C_1  and  N_2
REMARK    2  A    between atoms: C_3  and  C_5
REMARK    3  A    between atoms: C_8  and  N_9
REMARK    4  A    between atoms: N_9  and  C_10
REMARK    5  A    between atoms: C_10  and  C_11
REMARK                            x       y       z     vdW  Elec       q    Type
REMARK                         _______ _______ _______ _____ _____    ______ ____
ROOT
ATOM      1  C   UNL     1      45.719   5.647  13.234  0.00  0.00    +0.000 A 
ATOM      2  C   UNL     1      46.693   4.812  13.748  0.00  0.00    +0.000 A 
ATOM      3  N   UNL     1      47.948   5.252  14.030  0.00  0.00    +0.000 NA
ATOM      4  C   UNL     1      48.200   6.561  13.824  0.00  0.00    +0.000 A 
ATOM      5  C   UNL     1      47.203   7.381  13.279  0.00  0.00    +0.000 A 
ATOM      6  N   UNL     1      45.948   6.962  12.976  0.00  0.00    +0.000 NA
ENDROOT
BRANCH   1   9
ATOM      7  C   UNL     1      42.229   5.602  11.803  0.00  0.00    +0.000 C 
ATOM      8  N   UNL     1      43.552   5.978  12.221  0.00  0.00    +0.000 N 
ATOM      9  C   UNL     1      44.364   5.111  12.922  0.00  0.00    +0.000 C 
ATOM     10  O   UNL     1      44.033   3.984  13.265  0.00  0.00    +0.000 OA
ATOM     11  H   UNL     1      43.942   6.883  11.974  0.00  0.00    +0.000 HD
ENDBRANCH   1   9
BRANCH   4  12
ATOM     12  N   UNL     1      49.496   6.969  14.101  0.00  0.00    +0.000 N 
ATOM     13  H   UNL     1      49.822   7.549  13.331  0.00  0.00    +0.000 HD
BRANCH  12  14
ATOM     14  C   UNL     1      49.751   7.611  15.386  0.00  0.00    +0.000 C 
BRANCH  14  15
ATOM     15  C   UNL     1      49.759   6.592  16.498  0.00  0.00    +0.000 A 
ATOM     16  C   UNL     1      48.740   6.584  17.447  0.00  0.00    +0.000 A 
ATOM     17  N   UNL     1      48.718   5.725  18.496  0.00  0.00    +0.000 NA
ATOM     18  C   UNL     1      49.755   4.863  18.554  0.00  0.00    +0.000 A 
ATOM     19  C   UNL     1      50.771   4.859  17.615  0.00  0.00    +0.000 A 
ATOM     20  N   UNL     1      50.801   5.722  16.570  0.00  0.00    +0.000 NA
ENDBRANCH  14  15
ENDBRANCH  12  14
ENDBRANCH   4  12
TORSDOF 4
ENDMDL
