MODEL 1
REMARK VINA RESULT:    -7.504      0.000      0.000
REMARK INTER + INTRA:         -11.372
REMARK INTER:                 -10.136
REMARK INTRA:                  -1.237
REMARK UNBOUND:                -1.237
REMARK  Name = 
REMARK  7 active torsions:
REMARK  status: ('A' for Active; 'I' for Inactive)
REMARK    1  A    between atoms: C_1  and  C_2
REMARK    2  A    between atoms: C_2  and  N_3
REMARK    3  A    between atoms: C_2  and  C_16
REMARK    4  A    between atoms: C_4  and  C_6
REMARK    5  A    between atoms: C_19  and  C_20
REMARK    6  A    between atoms: C_20  and  N_21
REMARK    7  A    between atoms: C_22  and  C_24
REMARK                            x       y       z     vdW  Elec       q    Type
REMARK                         _______ _______ _______ _____ _____    ______ ____
ROOT
ATOM      1  C   UNL     1      47.871   8.718  13.879  0.00  0.00    +0.000 C 
ATOM      2  C   UNL     1      48.101   7.207  14.006  0.00  0.00    +0.000 C 
ENDROOT
BRANCH   2   3
ATOM      3  C   UNL     1      47.156   6.468  13.057  0.00  0.00    +0.000 A 
ATOM      4  C   UNL     1      46.951   6.987  11.768  0.00  0.00    +0.000 A 
ATOM      5  C   UNL     1      46.029   6.409  10.885  0.00  0.00    +0.000 A 
ATOM      6  C   UNL     1      45.274   5.292  11.265  0.00  0.00    +0.000 A 
ATOM      7  C   UNL     1      45.492   4.750  12.539  0.00  0.00    +0.000 A 
ATOM      8  C   UNL     1      46.411   5.337  13.429  0.00  0.00    +0.000 A 
BRANCH   6   9
ATOM      9  C   UNL     1      44.243   4.709  10.328  0.00  0.00    +0.000 C 
BRANCH   9  10
ATOM     10  N   UNL     1      44.808   4.335   9.044  0.00  0.00    +0.000 N 
ATOM     11  C   UNL     1      45.290   3.056   8.840  0.00  0.00    +0.000 C 
ATOM     12  O   UNL     1      45.327   2.219   9.739  0.00  0.00    +0.000 OA
ATOM     13  H   UNL     1      44.541   4.889   8.243  0.00  0.00    +0.000 HD
BRANCH  11  14
ATOM     14  C   UNL     1      45.699   2.754   7.399  0.00  0.00    +0.000 C 
ATOM     15  C   UNL     1      46.523   1.473   7.253  0.00  0.00    +0.000 C 
ATOM     16  C   UNL     1      47.938   1.962   7.005  0.00  0.00    +0.000 C 
ATOM     17  N   UNL     1      47.746   3.165   6.187  0.00  0.00    +0.000 NA
ATOM     18  C   UNL     1      46.588   3.844   6.794  0.00  0.00    +0.000 C 
ATOM     19  H   UNL     1      47.504   2.873   5.240  0.00  0.00    +0.000 HD
ENDBRANCH  11  14
ENDBRANCH   9  10
ENDBRANCH   6   9
ENDBRANCH   2   3
BRANCH   2  20
ATOM     20  N   UNL     1      47.985   6.757  15.384  0.00  0.00    +0.000 N 
ATOM     21  C   UNL     1      49.085   6.355  16.116  0.00  0.00    +0.000 C 
ATOM     22  O   UNL     1      50.224   6.382  15.670  0.00  0.00    +0.000 OA
ATOM     23  H   UNL     1      47.085   6.370  15.654  0.00  0.00    +0.000 HD
BRANCH  21  24
ATOM     24  C   UNL     1      48.831   5.944  17.499  0.00  0.00    +0.000 A 
ATOM     25  C   UNL     1      49.059   4.628  17.883  0.00  0.00    +0.000 A 
ATOM     26  S   UNL     1      48.717   4.326  19.527  0.00  0.00    +0.000 S 
ATOM     27  C   UNL     1      48.205   5.930  19.770  0.00  0.00    +0.000 A 
ATOM     28  N   UNL     1      47.729   6.339  20.976  0.00  0.00    +0.000 NA
ATOM     29  C   UNL     1      47.339   7.571  21.003  0.00  0.00    +0.000 A 
ATOM     30  N   UNL     1      47.396   8.435  19.943  0.00  0.00    +0.000 N 
ATOM     31  C   UNL     1      47.917   8.081  18.720  0.00  0.00    +0.000 A 
ATOM     32  O   UNL     1      48.029   8.895  17.811  0.00  0.00    +0.000 OA
ATOM     33  C   UNL     1      48.331   6.695  18.623  0.00  0.00    +0.000 A 
ATOM     34  H   UNL     1      47.094   9.393  20.035  0.00  0.00    +0.000 HD
ENDBRANCH  21  24
ENDBRANCH   2  20
TORSDOF 6
ENDMDL
MODEL 2
REMARK VINA RESULT:    -7.339      1.297      2.135
REMARK INTER + INTRA:         -11.150
REMARK INTER:                 -10.183
REMARK INTRA:                  -0.967
REMARK UNBOUND:                -1.237
REMARK  Name = 
REMARK  7 active torsions:
REMARK  status: ('A' for Active; 'I' for Inactive)
REMARK    1  A    between atoms: C_1  and  C_2
REMARK    2  A    between atoms: C_2  and  N_3
REMARK    3  A    between atoms: C_2  and  C_16
REMARK    4  A    between atoms: C_4  and  C_6
REMARK    5  A    between atoms: C_19  and  C_20
REMARK    6  A    between atoms: C_20  and  N_21
REMARK    7  A    between atoms: C_22  and  C_24
REMARK                            x       y       z     vdW  Elec       q    Type
REMARK                         _______ _______ _______ _____ _____    ______ ____
ROOT
ATOM      1  C   UNL     1      48.568   8.583  13.111  0.00  0.00    +0.000 C 
ATOM      2  C   UNL     1      48.273   7.153  13.579  0.00  0.00    +0.000 C 
ENDROOT
BRANCH   2   3
ATOM      3  C   UNL     1      47.116   6.579  12.759  0.00  0.00    +0.000 A 
ATOM      4  C   UNL     1      46.628   5.301  13.081  0.00  0.00    +0.000 A 
ATOM      5  C   UNL     1      45.634   4.684  12.311  0.00  0.00    +0.000 A 
ATOM      6  C   UNL     1      45.096   5.322  11.186  0.00  0.00    +0.000 A 
ATOM      7  C   UNL     1      45.557   6.608  10.873  0.00  0.00    +0.000 A 
ATOM      8  C   UNL     1      46.563   7.224  11.641  0.00  0.00    +0.000 A 
BRANCH   6   9
ATOM      9  C   UNL     1      44.064   4.626  10.329  0.00  0.00    +0.000 C 
BRANCH   9  10
ATOM     10  N   UNL     1      44.595   4.223   9.040  0.00  0.00    +0.000 N 
ATOM     11  C   UNL     1      45.250   3.014   8.903  0.00  0.00    +0.000 C 
ATOM     12  O   UNL     1      45.469   2.276   9.861  0.00  0.00    +0.000 OA
ATOM     13  H   UNL     1      44.196   4.657   8.220  0.00  0.00    +0.000 HD
BRANCH  11  14
ATOM     14  C   UNL     1      45.605   2.643   7.463  0.00  0.00    +0.000 C 
ATOM     15  C   UNL     1      46.480   1.393   7.352  0.00  0.00    +0.000 C 
ATOM     16  C   UNL     1      47.857   1.926   7.008  0.00  0.00    +0.000 C 
ATOM     17  N   UNL     1      47.573   3.068   6.132  0.00  0.00    +0.000 NA
ATOM     18  C   UNL     1      46.414   3.732   6.754  0.00  0.00    +0.000 C 
ATOM     19  H   UNL     1      47.301   2.710   5.216  0.00  0.00    +0.000 HD
ENDBRANCH  11  14
ENDBRANCH   9  10
ENDBRANCH   6   9
ENDBRANCH   2   3
BRANCH   2  20
ATOM     20  N   UNL     1      48.035   7.092  15.012  0.00  0.00    +0.000 N 
ATOM     21  C   UNL     1      49.049   6.816  15.909  0.00  0.00    +0.000 C 
ATOM     22  O   UNL     1      50.210   6.640  15.564  0.00  0.00    +0.000 OA
ATOM     23  H   UNL     1      47.089   6.858  15.300  0.00  0.00    +0.000 HD
BRANCH  21  24
ATOM     24  C   UNL     1      48.678   6.804  17.326  0.00  0.00    +0.000 A 
ATOM     25  C   UNL     1      48.237   7.973  17.935  0.00  0.00    +0.000 A 
ATOM     26  S   UNL     1      47.843   7.778  19.584  0.00  0.00    +0.000 S 
ATOM     27  C   UNL     1      48.294   6.138  19.553  0.00  0.00    +0.000 A 
ATOM     28  N   UNL     1      48.245   5.375  20.677  0.00  0.00    +0.000 NA
ATOM     29  C   UNL     1      48.656   4.161  20.514  0.00  0.00    +0.000 A 
ATOM     30  N   UNL     1      49.096   3.635  19.330  0.00  0.00    +0.000 N 
ATOM     31  C   UNL     1      49.115   4.352  18.156  0.00  0.00    +0.000 A 
ATOM     32  O   UNL     1      49.439   3.835  17.093  0.00  0.00    +0.000 OA
ATOM     33  C   UNL     1      48.702   5.736  18.293  0.00  0.00    +0.000 A 
ATOM     34  H   UNL     1      49.385   2.671  19.264  0.00  0.00    +0.000 HD
ENDBRANCH  21  24
ENDBRANCH   2  20
TORSDOF 6
ENDMDL
MODEL 3
REMARK VINA RESULT:    -7.320      3.941      5.771
REMARK INTER + INTRA:         -11.124
REMARK INTER:                  -9.965
REMARK INTRA:                  -1.160
REMARK UNBOUND:                -1.237
REMARK  Name = 
REMARK  7 active torsions:
REMARK  status: ('A' for Active; 'I' for Inactive)
REMARK    1  A    between atoms: C_1  and  C_2
REMARK    2  A    between atoms: C_2  and  N_3
REMARK    3  A    between atoms: C_2  and  C_16
REMARK    4  A    between atoms: C_4  and  C_6
REMARK    5  A    between atoms: C_19  and  C_20
REMARK    6  A    between atoms: C_20  and  N_21
REMARK    7  A    between atoms: C_22  and  C_24
REMARK                            x       y       z     vdW  Elec       q    Type
REMARK                         _______ _______ _______ _____ _____    ______ ____
ROOT
ATOM      1  C   UNL     1      47.759   3.288  17.935  0.00  0.00    +0.000 C 
ATOM      2  C   UNL     1      48.654   4.444  17.471  0.00  0.00    +0.000 C 
ENDROOT
BRANCH   2   3
ATOM      3  C   UNL     1      48.116   5.005  16.153  0.00  0.00    +0.000 A 
ATOM      4  C   UNL     1      47.136   4.276  15.458  0.00  0.00    +0.000 A 
ATOM      5  C   UNL     1      46.671   4.689  14.203  0.00  0.00    +0.000 A 
ATOM      6  C   UNL     1      47.174   5.846  13.595  0.00  0.00    +0.000 A 
ATOM      7  C   UNL     1      48.132   6.595  14.293  0.00  0.00    +0.000 A 
ATOM      8  C   UNL     1      48.607   6.174  15.549  0.00  0.00    +0.000 A 
BRANCH   6   9
ATOM      9  C   UNL     1      46.707   6.254  12.218  0.00  0.00    +0.000 C 
BRANCH   9  10
ATOM     10  N   UNL     1      45.498   5.560  11.814  0.00  0.00    +0.000 N 
ATOM     11  C   UNL     1      45.274   5.267  10.482  0.00  0.00    +0.000 C 
ATOM     12  O   UNL     1      46.037   5.638   9.593  0.00  0.00    +0.000 OA
ATOM     13  H   UNL     1      45.019   5.019  12.519  0.00  0.00    +0.000 HD
BRANCH  11  14
ATOM     14  C   UNL     1      44.050   4.389  10.222  0.00  0.00    +0.000 C 
ATOM     15  C   UNL     1      43.115   4.272  11.426  0.00  0.00    +0.000 C 
ATOM     16  C   UNL     1      43.362   2.874  11.960  0.00  0.00    +0.000 C 
ATOM     17  N   UNL     1      43.587   2.080  10.747  0.00  0.00    +0.000 NA
ATOM     18  C   UNL     1      44.420   2.941   9.891  0.00  0.00    +0.000 C 
ATOM     19  H   UNL     1      42.687   1.926  10.293  0.00  0.00    +0.000 HD
ENDBRANCH  11  14
ENDBRANCH   9  10
ENDBRANCH   6   9
ENDBRANCH   2   3
BRANCH   2  20
ATOM     20  N   UNL     1      50.050   4.047  17.388  0.00  0.00    +0.000 N 
ATOM     21  C   UNL     1      50.924   4.229  18.442  0.00  0.00    +0.000 C 
ATOM     22  O   UNL     1      50.578   4.700  19.517  0.00  0.00    +0.000 OA
ATOM     23  H   UNL     1      50.453   4.017  16.455  0.00  0.00    +0.000 HD
BRANCH  21  24
ATOM     24  C   UNL     1      52.298   3.766  18.234  0.00  0.00    +0.000 A 
ATOM     25  C   UNL     1      53.359   4.646  18.418  0.00  0.00    +0.000 A 
ATOM     26  S   UNL     1      54.888   3.940  18.140  0.00  0.00    +0.000 S 
ATOM     27  C   UNL     1      54.183   2.451  17.716  0.00  0.00    +0.000 A 
ATOM     28  N   UNL     1      54.948   1.401  17.317  0.00  0.00    +0.000 NA
ATOM     29  C   UNL     1      54.276   0.348  16.988  0.00  0.00    +0.000 A 
ATOM     30  N   UNL     1      52.912   0.243  17.036  0.00  0.00    +0.000 N 
ATOM     31  C   UNL     1      52.100   1.260  17.481  0.00  0.00    +0.000 A 
ATOM     32  O   UNL     1      50.888   1.113  17.589  0.00  0.00    +0.000 OA
ATOM     33  C   UNL     1      52.803   2.481  17.824  0.00  0.00    +0.000 A 
ATOM     34  H   UNL     1      52.447  -0.617  16.784  0.00  0.00    +0.000 HD
ENDBRANCH  21  24
ENDBRANCH   2  20
TORSDOF 6
ENDMDL
MODEL 4
REMARK VINA RESULT:    -7.026      2.803      9.106
REMARK INTER + INTRA:         -10.728
REMARK INTER:                  -9.512
REMARK INTRA:                  -1.216
REMARK UNBOUND:                -1.237
REMARK  Name = 
REMARK  7 active torsions:
REMARK  status: ('A' for Active; 'I' for Inactive)
REMARK    1  A    between atoms: C_1  and  C_2
REMARK    2  A    between atoms: C_2  and  N_3
REMARK    3  A    between atoms: C_2  and  C_16
REMARK    4  A    between atoms: C_4  and  C_6
REMARK    5  A    between atoms: C_19  and  C_20
REMARK    6  A    between atoms: C_20  and  N_21
REMARK    7  A    between atoms: C_22  and  C_24
REMARK                            x       y       z     vdW  Elec       q    Type
REMARK                         _______ _______ _______ _____ _____    ______ ____
ROOT
ATOM      1  C   UNL     1      49.023   7.789  11.347  0.00  0.00    +0.000 C 
ATOM      2  C   UNL     1      47.752   7.702  12.201  0.00  0.00    +0.000 C 
ENDROOT
BRANCH   2   3
ATOM      3  C   UNL     1      48.120   7.865  13.677  0.00  0.00    +0.000 A 
ATOM      4  C   UNL     1      48.545   6.735  14.396  0.00  0.00    +0.000 A 
ATOM      5  C   UNL     1      48.807   6.800  15.771  0.00  0.00    +0.000 A 
ATOM      6  C   UNL     1      48.647   7.999  16.477  0.00  0.00    +0.000 A 
ATOM      7  C   UNL     1      48.249   9.138  15.763  0.00  0.00    +0.000 A 
ATOM      8  C   UNL     1      47.976   9.070  14.384  0.00  0.00    +0.000 A 
BRANCH   6   9
ATOM      9  C   UNL     1      48.879   8.048  17.969  0.00  0.00    +0.000 C 
BRANCH   9  10
ATOM     10  N   UNL     1      49.402   6.797  18.489  0.00  0.00    +0.000 N 
ATOM     11  C   UNL     1      48.539   5.806  18.918  0.00  0.00    +0.000 C 
ATOM     12  O   UNL     1      47.321   5.964  18.944  0.00  0.00    +0.000 OA
ATOM     13  H   UNL     1      50.342   6.544  18.224  0.00  0.00    +0.000 HD
BRANCH  11  14
ATOM     14  C   UNL     1      49.220   4.486  19.281  0.00  0.00    +0.000 C 
ATOM     15  C   UNL     1      50.726   4.480  19.013  0.00  0.00    +0.000 C 
ATOM     16  C   UNL     1      50.884   3.625  17.770  0.00  0.00    +0.000 C 
ATOM     17  N   UNL     1      49.862   2.586  17.938  0.00  0.00    +0.000 NA
ATOM     18  C   UNL     1      48.689   3.304  18.465  0.00  0.00    +0.000 C 
ATOM     19  H   UNL     1      50.192   1.922  18.638  0.00  0.00    +0.000 HD
ENDBRANCH  11  14
ENDBRANCH   9  10
ENDBRANCH   6   9
ENDBRANCH   2   3
BRANCH   2  20
ATOM     20  N   UNL     1      47.005   6.483  11.935  0.00  0.00    +0.000 N 
ATOM     21  C   UNL     1      45.625   6.449  11.975  0.00  0.00    +0.000 C 
ATOM     22  O   UNL     1      44.944   7.441  12.200  0.00  0.00    +0.000 OA
ATOM     23  H   UNL     1      47.493   5.610  12.117  0.00  0.00    +0.000 HD
BRANCH  21  24
ATOM     24  C   UNL     1      44.997   5.162  11.667  0.00  0.00    +0.000 A 
ATOM     25  C   UNL     1      44.284   4.488  12.652  0.00  0.00    +0.000 A 
ATOM     26  S   UNL     1      43.615   3.011  12.122  0.00  0.00    +0.000 S 
ATOM     27  C   UNL     1      44.296   3.197  10.573  0.00  0.00    +0.000 A 
ATOM     28  N   UNL     1      44.144   2.240   9.620  0.00  0.00    +0.000 NA
ATOM     29  C   UNL     1      44.749   2.497   8.508  0.00  0.00    +0.000 A 
ATOM     30  N   UNL     1      45.478   3.627   8.255  0.00  0.00    +0.000 N 
ATOM     31  C   UNL     1      45.616   4.645   9.170  0.00  0.00    +0.000 A 
ATOM     32  O   UNL     1      46.208   5.682   8.891  0.00  0.00    +0.000 OA
ATOM     33  C   UNL     1      44.990   4.388  10.452  0.00  0.00    +0.000 A 
ATOM     34  H   UNL     1      45.910   3.778   7.356  0.00  0.00    +0.000 HD
ENDBRANCH  21  24
ENDBRANCH   2  20
TORSDOF 6
ENDMDL
MODEL 5
REMARK VINA RESULT:    -6.862      3.050      4.688
REMARK INTER + INTRA:         -10.505
REMARK INTER:                  -9.198
REMARK INTRA:                  -1.307
REMARK UNBOUND:                -1.237
REMARK  Name = 
REMARK  7 active torsions:
REMARK  status: ('A' for Active; 'I' for Inactive)
REMARK    1  A    between atoms: C_1  and  C_2
REMARK    2  A    between atoms: C_2  and  N_3
REMARK    3  A    between atoms: C_2  and  C_16
REMARK    4  A    between atoms: C_4  and  C_6
REMARK    5  A    between atoms: C_19  and  C_20
REMARK    6  A    between atoms: C_20  and  N_21
REMARK    7  A    between atoms: C_22  and  C_24
REMARK                            x       y       z     vdW  Elec       q    Type
REMARK                         _______ _______ _______ _____ _____    ______ ____
ROOT
ATOM      1  C   UNL     1      47.339   4.277  15.346  0.00  0.00    +0.000 C 
ATOM      2  C   UNL     1      47.168   5.601  14.592  0.00  0.00    +0.000 C 
ENDROOT
BRANCH   2   3
ATOM      3  C   UNL     1      46.256   5.384  13.384  0.00  0.00    +0.000 A 
ATOM      4  C   UNL     1      45.640   4.132  13.218  0.00  0.00    +0.000 A 
ATOM      5  C   UNL     1      44.869   3.841  12.086  0.00  0.00    +0.000 A 
ATOM      6  C   UNL     1      44.690   4.792  11.074  0.00  0.00    +0.000 A 
ATOM      7  C   UNL     1      45.279   6.053  11.242  0.00  0.00    +0.000 A 
ATOM      8  C   UNL     1      46.062   6.342  12.376  0.00  0.00    +0.000 A 
BRANCH   6   9
ATOM      9  C   UNL     1      43.903   4.452   9.831  0.00  0.00    +0.000 C 
BRANCH   9  10
ATOM     10  N   UNL     1      44.752   4.291   8.664  0.00  0.00    +0.000 N 
ATOM     11  C   UNL     1      45.229   3.042   8.316  0.00  0.00    +0.000 C 
ATOM     12  O   UNL     1      45.021   2.046   9.005  0.00  0.00    +0.000 OA
ATOM     13  H   UNL     1      44.704   5.009   7.956  0.00  0.00    +0.000 HD
BRANCH  11  14
ATOM     14  C   UNL     1      45.966   2.994   6.977  0.00  0.00    +0.000 C 
ATOM     15  C   UNL     1      46.513   1.608   6.630  0.00  0.00    +0.000 C 
ATOM     16  C   UNL     1      48.008   1.725   6.861  0.00  0.00    +0.000 C 
ATOM     17  N   UNL     1      48.314   3.093   6.430  0.00  0.00    +0.000 NA
ATOM     18  C   UNL     1      47.198   3.902   6.947  0.00  0.00    +0.000 C 
ATOM     19  H   UNL     1      48.303   3.118   5.410  0.00  0.00    +0.000 HD
ENDBRANCH  11  14
ENDBRANCH   9  10
ENDBRANCH   6   9
ENDBRANCH   2   3
BRANCH   2  20
ATOM     20  N   UNL     1      48.450   6.189  14.235  0.00  0.00    +0.000 N 
ATOM     21  C   UNL     1      49.025   7.196  14.985  0.00  0.00    +0.000 C 
ATOM     22  O   UNL     1      48.517   7.633  16.009  0.00  0.00    +0.000 OA
ATOM     23  H   UNL     1      48.706   6.141  13.253  0.00  0.00    +0.000 HD
BRANCH  21  24
ATOM     24  C   UNL     1      50.328   7.685  14.526  0.00  0.00    +0.000 A 
ATOM     25  C   UNL     1      51.440   7.570  15.352  0.00  0.00    +0.000 A 
ATOM     26  S   UNL     1      52.873   8.183  14.659  0.00  0.00    +0.000 S 
ATOM     27  C   UNL     1      52.048   8.669  13.253  0.00  0.00    +0.000 A 
ATOM     28  N   UNL     1      52.695   9.319  12.249  0.00  0.00    +0.000 NA
ATOM     29  C   UNL     1      51.935   9.663  11.262  0.00  0.00    +0.000 A 
ATOM     30  N   UNL     1      50.593   9.404  11.179  0.00  0.00    +0.000 N 
ATOM     31  C   UNL     1      49.907   8.705  12.145  0.00  0.00    +0.000 A 
ATOM     32  O   UNL     1      48.723   8.418  12.009  0.00  0.00    +0.000 OA
ATOM     33  C   UNL     1      50.706   8.332  13.296  0.00  0.00    +0.000 A 
ATOM     34  H   UNL     1      50.059   9.682  10.370  0.00  0.00    +0.000 HD
ENDBRANCH  21  24
ENDBRANCH   2  20
TORSDOF 6
ENDMDL
MODEL 6
REMARK VINA RESULT:    -6.551      2.386      3.260
REMARK INTER + INTRA:         -10.086
REMARK INTER:                  -9.051
REMARK INTRA:                  -1.035
REMARK UNBOUND:                -1.237
REMARK  Name = 
REMARK  7 active torsions:
REMARK  status: ('A' for Active; 'I' for Inactive)
REMARK    1  A    between atoms: C_1  and  C_2
REMARK    2  A    between atoms: C_2  and  N_3
REMARK    3  A    between atoms: C_2  and  C_16
REMARK    4  A    between atoms: C_4  and  C_6
REMARK    5  A    between atoms: C_19  and  C_20
REMARK    6  A    between atoms: C_20  and  N_21
REMARK    7  A    between atoms: C_22  and  C_24
REMARK                            x       y       z     vdW  Elec       q    Type
REMARK                         _______ _______ _______ _____ _____    ______ ____
ROOT
ATOM      1  C   UNL     1      47.897   2.997  15.520  0.00  0.00    +0.000 C 
ATOM      2  C   UNL     1      47.214   4.351  15.748  0.00  0.00    +0.000 C 
ENDROOT
BRANCH   2   3
ATOM      3  C   UNL     1      46.804   4.946  14.400  0.00  0.00    +0.000 A 
ATOM      4  C   UNL     1      45.630   4.480  13.784  0.00  0.00    +0.000 A 
ATOM      5  C   UNL     1      45.250   4.918  12.509  0.00  0.00    +0.000 A 
ATOM      6  C   UNL     1      46.036   5.835  11.800  0.00  0.00    +0.000 A 
ATOM      7  C   UNL     1      47.195   6.327  12.417  0.00  0.00    +0.000 A 
ATOM      8  C   UNL     1      47.581   5.879  13.694  0.00  0.00    +0.000 A 
BRANCH   6   9
ATOM      9  C   UNL     1      45.649   6.260  10.403  0.00  0.00    +0.000 C 
BRANCH   9  10
ATOM     10  N   UNL     1      45.710   5.164   9.454  0.00  0.00    +0.000 N 
ATOM     11  C   UNL     1      44.573   4.439   9.151  0.00  0.00    +0.000 C 
ATOM     12  O   UNL     1      43.499   4.640   9.714  0.00  0.00    +0.000 OA
ATOM     13  H   UNL     1      46.477   5.164   8.797  0.00  0.00    +0.000 HD
BRANCH  11  14
ATOM     14  C   UNL     1      44.746   3.431   8.016  0.00  0.00    +0.000 C 
ATOM     15  C   UNL     1      44.716   1.974   8.482  0.00  0.00    +0.000 C 
ATOM     16  C   UNL     1      46.163   1.525   8.408  0.00  0.00    +0.000 C 
ATOM     17  N   UNL     1      46.676   2.218   7.222  0.00  0.00    +0.000 NA
ATOM     18  C   UNL     1      46.093   3.568   7.302  0.00  0.00    +0.000 C 
ATOM     19  H   UNL     1      46.315   1.745   6.393  0.00  0.00    +0.000 HD
ENDBRANCH  11  14
ENDBRANCH   9  10
ENDBRANCH   6   9
ENDBRANCH   2   3
BRANCH   2  20
ATOM     20  N   UNL     1      48.046   5.249  16.533  0.00  0.00    +0.000 N 
ATOM     21  C   UNL     1      47.814   5.472  17.876  0.00  0.00    +0.000 C 
ATOM     22  O   UNL     1      46.923   4.907  18.498  0.00  0.00    +0.000 OA
ATOM     23  H   UNL     1      48.517   5.988  16.018  0.00  0.00    +0.000 HD
BRANCH  21  24
ATOM     24  C   UNL     1      48.738   6.384  18.554  0.00  0.00    +0.000 A 
ATOM     25  C   UNL     1      48.241   7.378  19.388  0.00  0.00    +0.000 A 
ATOM     26  S   UNL     1      49.454   8.345  20.098  0.00  0.00    +0.000 S 
ATOM     27  C   UNL     1      50.682   7.500  19.277  0.00  0.00    +0.000 A 
ATOM     28  N   UNL     1      51.987   7.860  19.406  0.00  0.00    +0.000 NA
ATOM     29  C   UNL     1      52.804   7.157  18.693  0.00  0.00    +0.000 A 
ATOM     30  N   UNL     1      52.440   6.120  17.877  0.00  0.00    +0.000 N 
ATOM     31  C   UNL     1      51.140   5.688  17.755  0.00  0.00    +0.000 A 
ATOM     32  O   UNL     1      50.850   4.707  17.079  0.00  0.00    +0.000 OA
ATOM     33  C   UNL     1      50.175   6.471  18.503  0.00  0.00    +0.000 A 
ATOM     34  H   UNL     1      53.131   5.596  17.361  0.00  0.00    +0.000 HD
ENDBRANCH  21  24
ENDBRANCH   2  20
TORSDOF 6
ENDMDL
MODEL 7
REMARK VINA RESULT:    -6.543      3.792      5.569
REMARK INTER + INTRA:         -10.075
REMARK INTER:                  -9.276
REMARK INTRA:                  -0.799
REMARK UNBOUND:                -1.237
REMARK  Name = 
REMARK  7 active torsions:
REMARK  status: ('A' for Active; 'I' for Inactive)
REMARK    1  A    between atoms: C_1  and  C_2
REMARK    2  A    between atoms: C_2  and  N_3
REMARK    3  A    between atoms: C_2  and  C_16
REMARK    4  A    between atoms: C_4  and  C_6
REMARK    5  A    between atoms: C_19  and  C_20
REMARK    6  A    between atoms: C_20  and  N_21
REMARK    7  A    between atoms: C_22  and  C_24
REMARK                            x       y       z     vdW  Elec       q    Type
REMARK                         _______ _______ _______ _____ _____    ______ ____
ROOT
ATOM      1  C   UNL     1      47.282   2.545  17.989  0.00  0.00    +0.000 C 
ATOM      2  C   UNL     1      48.206   3.767  17.910  0.00  0.00    +0.000 C 
ENDROOT
BRANCH   2   3
ATOM      3  C   UNL     1      47.944   4.519  16.604  0.00  0.00    +0.000 A 
ATOM      4  C   UNL     1      47.052   3.963  15.671  0.00  0.00    +0.000 A 
ATOM      5  C   UNL     1      46.840   4.556  14.420  0.00  0.00    +0.000 A 
ATOM      6  C   UNL     1      47.519   5.725  14.054  0.00  0.00    +0.000 A 
ATOM      7  C   UNL     1      48.390   6.302  14.989  0.00  0.00    +0.000 A 
ATOM      8  C   UNL     1      48.610   5.701  16.242  0.00  0.00    +0.000 A 
BRANCH   6   9
ATOM      9  C   UNL     1      47.326   6.327  12.683  0.00  0.00    +0.000 C 
BRANCH   9  10
ATOM     10  N   UNL     1      46.220   5.724  11.963  0.00  0.00    +0.000 N 
ATOM     11  C   UNL     1      45.027   6.407  11.819  0.00  0.00    +0.000 C 
ATOM     12  O   UNL     1      44.831   7.500  12.345  0.00  0.00    +0.000 OA
ATOM     13  H   UNL     1      46.441   4.986  11.310  0.00  0.00    +0.000 HD
BRANCH  11  14
ATOM     14  C   UNL     1      44.013   5.727  10.899  0.00  0.00    +0.000 C 
ATOM     15  C   UNL     1      42.864   5.050  11.649  0.00  0.00    +0.000 C 
ATOM     16  C   UNL     1      43.171   3.568  11.551  0.00  0.00    +0.000 C 
ATOM     17  N   UNL     1      43.753   3.428  10.212  0.00  0.00    +0.000 NA
ATOM     18  C   UNL     1      44.631   4.601  10.066  0.00  0.00    +0.000 C 
ATOM     19  H   UNL     1      42.999   3.486   9.526  0.00  0.00    +0.000 HD
ENDBRANCH  11  14
ENDBRANCH   9  10
ENDBRANCH   6   9
ENDBRANCH   2   3
BRANCH   2  20
ATOM     20  N   UNL     1      49.603   3.399  18.080  0.00  0.00    +0.000 N 
ATOM     21  C   UNL     1      50.223   2.484  17.252  0.00  0.00    +0.000 C 
ATOM     22  O   UNL     1      49.654   1.952  16.308  0.00  0.00    +0.000 OA
ATOM     23  H   UNL     1      49.982   3.505  19.017  0.00  0.00    +0.000 HD
BRANCH  21  24
ATOM     24  C   UNL     1      51.638   2.219  17.521  0.00  0.00    +0.000 A 
ATOM     25  C   UNL     1      52.086   0.908  17.640  0.00  0.00    +0.000 A 
ATOM     26  S   UNL     1      53.759   0.782  17.946  0.00  0.00    +0.000 S 
ATOM     27  C   UNL     1      53.935   2.475  17.980  0.00  0.00    +0.000 A 
ATOM     28  N   UNL     1      55.137   3.050  18.247  0.00  0.00    +0.000 NA
ATOM     29  C   UNL     1      55.112   4.341  18.280  0.00  0.00    +0.000 A 
ATOM     30  N   UNL     1      54.002   5.110  18.055  0.00  0.00    +0.000 N 
ATOM     31  C   UNL     1      52.777   4.574  17.731  0.00  0.00    +0.000 A 
ATOM     32  O   UNL     1      51.818   5.287  17.457  0.00  0.00    +0.000 OA
ATOM     33  C   UNL     1      52.740   3.125  17.721  0.00  0.00    +0.000 A 
ATOM     34  H   UNL     1      54.053   6.117  18.075  0.00  0.00    +0.000 HD
ENDBRANCH  21  24
ENDBRANCH   2  20
TORSDOF 6
ENDMDL
MODEL 8
REMARK VINA RESULT:    -6.523      3.478      4.830
REMARK INTER + INTRA:         -10.047
REMARK INTER:                  -8.824
REMARK INTRA:                  -1.224
REMARK UNBOUND:                -1.237
REMARK  Name = 
REMARK  7 active torsions:
REMARK  status: ('A' for Active; 'I' for Inactive)
REMARK    1  A    between atoms: C_1  and  C_2
REMARK    2  A    between atoms: C_2  and  N_3
REMARK    3  A    between atoms: C_2  and  C_16
REMARK    4  A    between atoms: C_4  and  C_6
REMARK    5  A    between atoms: C_19  and  C_20
REMARK    6  A    between atoms: C_20  and  N_21
REMARK    7  A    between atoms: C_22  and  C_24
REMARK                            x       y       z     vdW  Elec       q    Type
REMARK                         _______ _______ _______ _____ _____    ______ ____
ROOT
ATOM      1  C   UNL     1      47.610   5.135  15.013  0.00  0.00    +0.000 C 
ATOM      2  C   UNL     1      47.377   6.310  14.054  0.00  0.00    +0.000 C 
ENDROOT
BRANCH   2   3
ATOM      3  C   UNL     1      46.446   5.867  12.925  0.00  0.00    +0.000 A 
ATOM      4  C   UNL     1      45.564   4.797  13.156  0.00  0.00    +0.000 A 
ATOM      5  C   UNL     1      44.752   4.286  12.135  0.00  0.00    +0.000 A 
ATOM      6  C   UNL     1      44.799   4.823  10.842  0.00  0.00    +0.000 A 
ATOM      7  C   UNL     1      45.655   5.908  10.609  0.00  0.00    +0.000 A 
ATOM      8  C   UNL     1      46.478   6.415  11.632  0.00  0.00    +0.000 A 
BRANCH   6   9
ATOM      9  C   UNL     1      43.961   4.230   9.734  0.00  0.00    +0.000 C 
BRANCH   9  10
ATOM     10  N   UNL     1      44.738   3.952   8.540  0.00  0.00    +0.000 N 
ATOM     11  C   UNL     1      45.308   2.706   8.354  0.00  0.00    +0.000 C 
ATOM     12  O   UNL     1      45.244   1.823   9.206  0.00  0.00    +0.000 OA
ATOM     13  H   UNL     1      44.573   4.537   7.735  0.00  0.00    +0.000 HD
BRANCH  11  14
ATOM     14  C   UNL     1      45.952   2.501   6.983  0.00  0.00    +0.000 C 
ATOM     15  C   UNL     1      46.810   1.237   6.893  0.00  0.00    +0.000 C 
ATOM     16  C   UNL     1      48.237   1.749   6.913  0.00  0.00    +0.000 C 
ATOM     17  N   UNL     1      48.162   3.001   6.153  0.00  0.00    +0.000 NA
ATOM     18  C   UNL     1      46.910   3.633   6.604  0.00  0.00    +0.000 C 
ATOM     19  H   UNL     1      48.083   2.770   5.162  0.00  0.00    +0.000 HD
ENDBRANCH  11  14
ENDBRANCH   9  10
ENDBRANCH   6   9
ENDBRANCH   2   3
BRANCH   2  20
ATOM     20  N   UNL     1      48.630   6.867  13.569  0.00  0.00    +0.000 N 
ATOM     21  C   UNL     1      48.858   8.228  13.533  0.00  0.00    +0.000 C 
ATOM     22  O   UNL     1      48.043   9.048  13.936  0.00  0.00    +0.000 OA
ATOM     23  H   UNL     1      49.147   6.295  12.907  0.00  0.00    +0.000 HD
BRANCH  21  24
ATOM     24  C   UNL     1      50.170   8.655  13.041  0.00  0.00    +0.000 A 
ATOM     25  C   UNL     1      50.259   9.414  11.880  0.00  0.00    +0.000 A 
ATOM     26  S   UNL     1      51.858   9.829  11.455  0.00  0.00    +0.000 S 
ATOM     27  C   UNL     1      52.490   8.966  12.779  0.00  0.00    +0.000 A 
ATOM     28  N   UNL     1      53.831   8.874  12.980  0.00  0.00    +0.000 NA
ATOM     29  C   UNL     1      54.167   8.155  14.000  0.00  0.00    +0.000 A 
ATOM     30  N   UNL     1      53.287   7.534  14.845  0.00  0.00    +0.000 N 
ATOM     31  C   UNL     1      51.923   7.642  14.711  0.00  0.00    +0.000 A 
ATOM     32  O   UNL     1      51.157   7.141  15.527  0.00  0.00    +0.000 OA
ATOM     33  C   UNL     1      51.492   8.405  13.556  0.00  0.00    +0.000 A 
ATOM     34  H   UNL     1      53.614   7.002  15.638  0.00  0.00    +0.000 HD
ENDBRANCH  21  24
ENDBRANCH   2  20
TORSDOF 6
ENDMDL
MODEL 9
REMARK VINA RESULT:    -6.422      4.057      5.899
REMARK INTER + INTRA:          -9.912
REMARK INTER:                  -8.566
REMARK INTRA:                  -1.346
REMARK UNBOUND:                -1.237
REMARK  Name = 
REMARK  7 active torsions:
REMARK  status: ('A' for Active; 'I' for Inactive)
REMARK    1  A    between atoms: C_1  and  C_2
REMARK    2  A    between atoms: C_2  and  N_3
REMARK    3  A    between atoms: C_2  and  C_16
REMARK    4  A    between atoms: C_4  and  C_6
REMARK    5  A    between atoms: C_19  and  C_20
REMARK    6  A    between atoms: C_20  and  N_21
REMARK    7  A    between atoms: C_22  and  C_24
REMARK                            x       y       z     vdW  Elec       q    Type
REMARK                         _______ _______ _______ _____ _____    ______ ____
ROOT
ATOM      1  C   UNL     1      49.216   6.108  15.953  0.00  0.00    +0.000 C 
ATOM      2  C   UNL     1      49.107   7.159  14.841  0.00  0.00    +0.000 C 
ENDROOT
BRANCH   2   3
ATOM      3  C   UNL     1      47.960   6.785  13.900  0.00  0.00    +0.000 A 
ATOM      4  C   UNL     1      47.540   7.722  12.941  0.00  0.00    +0.000 A 
ATOM      5  C   UNL     1      46.437   7.476  12.113  0.00  0.00    +0.000 A 
ATOM      6  C   UNL     1      45.710   6.283  12.220  0.00  0.00    +0.000 A 
ATOM      7  C   UNL     1      46.138   5.331  13.155  0.00  0.00    +0.000 A 
ATOM      8  C   UNL     1      47.240   5.583  13.994  0.00  0.00    +0.000 A 
BRANCH   6   9
ATOM      9  C   UNL     1      44.489   6.049  11.362  0.00  0.00    +0.000 C 
BRANCH   9  10
ATOM     10  N   UNL     1      44.792   5.292  10.161  0.00  0.00    +0.000 N 
ATOM     11  C   UNL     1      44.211   4.055   9.952  0.00  0.00    +0.000 C 
ATOM     12  O   UNL     1      43.484   3.523  10.788  0.00  0.00    +0.000 OA
ATOM     13  H   UNL     1      45.143   5.806   9.367  0.00  0.00    +0.000 HD
BRANCH  11  14
ATOM     14  C   UNL     1      44.485   3.449   8.576  0.00  0.00    +0.000 C 
ATOM     15  C   UNL     1      44.598   1.924   8.591  0.00  0.00    +0.000 C 
ATOM     16  C   UNL     1      46.083   1.654   8.435  0.00  0.00    +0.000 C 
ATOM     17  N   UNL     1      46.528   2.713   7.522  0.00  0.00    +0.000 NA
ATOM     18  C   UNL     1      45.814   3.918   7.977  0.00  0.00    +0.000 C 
ATOM     19  H   UNL     1      46.217   2.475   6.579  0.00  0.00    +0.000 HD
ENDBRANCH  11  14
ENDBRANCH   9  10
ENDBRANCH   6   9
ENDBRANCH   2   3
BRANCH   2  20
ATOM     20  N   UNL     1      50.371   7.344  14.146  0.00  0.00    +0.000 N 
ATOM     21  C   UNL     1      50.997   8.573  14.085  0.00  0.00    +0.000 C 
ATOM     22  O   UNL     1      50.551   9.572  14.635  0.00  0.00    +0.000 OA
ATOM     23  H   UNL     1      50.570   6.687  13.397  0.00  0.00    +0.000 HD
BRANCH  21  24
ATOM     24  C   UNL     1      52.275   8.618  13.371  0.00  0.00    +0.000 A 
ATOM     25  C   UNL     1      53.426   9.019  14.039  0.00  0.00    +0.000 A 
ATOM     26  S   UNL     1      54.823   9.007  13.060  0.00  0.00    +0.000 S 
ATOM     27  C   UNL     1      53.930   8.512  11.699  0.00  0.00    +0.000 A 
ATOM     28  N   UNL     1      54.527   8.354  10.488  0.00  0.00    +0.000 NA
ATOM     29  C   UNL     1      53.720   8.015   9.538  0.00  0.00    +0.000 A 
ATOM     30  N   UNL     1      52.376   7.805   9.689  0.00  0.00    +0.000 N 
ATOM     31  C   UNL     1      51.738   7.902  10.904  0.00  0.00    +0.000 A 
ATOM     32  O   UNL     1      50.549   7.632  11.027  0.00  0.00    +0.000 OA
ATOM     33  C   UNL     1      52.592   8.321  11.998  0.00  0.00    +0.000 A 
ATOM     34  H   UNL     1      51.802   7.521   8.909  0.00  0.00    +0.000 HD
ENDBRANCH  21  24
ENDBRANCH   2  20
TORSDOF 6
ENDMDL
