MODEL 1
REMARK VINA RESULT:    -7.948      0.000      0.000
REMARK INTER + INTRA:         -13.932
REMARK INTER:                 -12.595
REMARK INTRA:                  -1.338
REMARK UNBOUND:                -1.338
REMARK  Name = 
REMARK  11 active torsions:
REMARK  status: ('A' for Active; 'I' for Inactive)
REMARK    1  A    between atoms: N_1  and  C_2
REMARK    2  A    between atoms: C_2  and  C_3
REMARK    3  A    between atoms: C_3  and  N_4
REMARK    4  A    between atoms: C_3  and  C_20
REMARK    5  A    between atoms: C_5  and  C_7
REMARK    6  A    between atoms: N_13  and  C_14
REMARK    7  A    between atoms: C_14  and  C_15
REMARK    8  A    between atoms: C_15  and  O_16
REMARK    9  A    between atoms: C_23  and  O_24
REMARK   10  A    between atoms: O_24  and  C_25
REMARK   11  A    between atoms: C_25  and  C_26
REMARK                            x       y       z     vdW  Elec       q    Type
REMARK                         _______ _______ _______ _____ _____    ______ ____
ROOT
ATOM      1  C   UNL     1      47.191   8.097  12.832  0.00  0.00    +0.000 C 
ENDROOT
BRANCH   1   2
ATOM      2  C   UNL     1      46.541   6.819  12.319  0.00  0.00    +0.000 A 
ATOM      3  C   UNL     1      46.289   6.646  10.952  0.00  0.00    +0.000 A 
ATOM      4  C   UNL     1      45.662   5.484  10.486  0.00  0.00    +0.000 A 
ATOM      5  C   UNL     1      45.296   4.476  11.380  0.00  0.00    +0.000 A 
ATOM      6  C   UNL     1      45.530   4.647  12.742  0.00  0.00    +0.000 A 
ATOM      7  C   UNL     1      46.162   5.798  13.206  0.00  0.00    +0.000 A 
BRANCH   5   8
ATOM      8  O   UNL     1      44.711   3.368  10.826  0.00  0.00    +0.000 OA
BRANCH   8   9
ATOM      9  C   UNL     1      44.326   3.523   9.454  0.00  0.00    +0.000 C 
BRANCH   9  10
ATOM     10  C   UNL     1      45.287   2.834   8.516  0.00  0.00    +0.000 A 
ATOM     11  C   UNL     1      45.973   3.549   7.534  0.00  0.00    +0.000 A 
ATOM     12  C   UNL     1      46.930   2.893   6.767  0.00  0.00    +0.000 A 
ATOM     13  C   UNL     1      47.185   1.547   7.002  0.00  0.00    +0.000 A 
ATOM     14  C   UNL     1      46.464   0.909   7.995  0.00  0.00    +0.000 A 
ATOM     15  N   UNL     1      45.530   1.517   8.756  0.00  0.00    +0.000 NA
ENDBRANCH   9  10
ENDBRANCH   8   9
ENDBRANCH   5   8
ENDBRANCH   1   2
BRANCH   1  16
ATOM     16  N   UNL     1      47.420   7.957  14.261  0.00  0.00    +0.000 N 
ATOM     17  C   UNL     1      48.584   8.319  14.878  0.00  0.00    +0.000 C 
ATOM     18  O   UNL     1      49.551   8.755  14.263  0.00  0.00    +0.000 OA
ATOM     19  H   UNL     1      46.602   7.787  14.833  0.00  0.00    +0.000 HD
BRANCH  17  20
ATOM     20  C   UNL     1      48.637   8.084  16.328  0.00  0.00    +0.000 A 
ATOM     21  C   UNL     1      48.719   9.166  17.194  0.00  0.00    +0.000 A 
ATOM     22  S   UNL     1      48.808   8.718  18.836  0.00  0.00    +0.000 S 
ATOM     23  C   UNL     1      48.703   7.065  18.449  0.00  0.00    +0.000 A 
ATOM     24  N   UNL     1      48.703   6.122  19.425  0.00  0.00    +0.000 NA
ATOM     25  C   UNL     1      48.573   4.908  19.001  0.00  0.00    +0.000 A 
ATOM     26  N   UNL     1      48.455   4.530  17.677  0.00  0.00    +0.000 N 
ATOM     27  C   UNL     1      48.513   5.468  16.648  0.00  0.00    +0.000 A 
ATOM     28  O   UNL     1      48.507   5.150  15.461  0.00  0.00    +0.000 OA
ATOM     29  C   UNL     1      48.619   6.851  17.087  0.00  0.00    +0.000 A 
BRANCH  26  30
ATOM     30  C   UNL     1      48.306   3.117  17.338  0.00  0.00    +0.000 C 
BRANCH  30  31
ATOM     31  C   UNL     1      49.650   2.403  17.179  0.00  0.00    +0.000 C 
BRANCH  31  32
ATOM     32  O   UNL     1      49.713   1.729  15.925  0.00  0.00    +0.000 OA
ATOM     33  H   UNL     1      50.606   1.352  15.834  0.00  0.00    +0.000 HD
ENDBRANCH  31  32
ENDBRANCH  30  31
ENDBRANCH  26  30
ENDBRANCH  17  20
ENDBRANCH   1  16
BRANCH   1  34
ATOM     34  C   UNL     1      46.316   9.352  12.529  0.00  0.00    +0.000 C 
BRANCH  34  35
ATOM     35  N   UNL     1      44.903   9.216  12.908  0.00  0.00    +0.000 NA
ATOM     36  H   UNL     1      44.350   9.030  12.072  0.00  0.00    +0.000 HD
ATOM     37  H   UNL     1      44.560  10.102  13.280  0.00  0.00    +0.000 HD
ENDBRANCH  34  35
ENDBRANCH   1  34
TORSDOF 11
ENDMDL
MODEL 2
REMARK VINA RESULT:    -7.705      2.026      3.343
REMARK INTER + INTRA:         -13.547
REMARK INTER:                 -12.060
REMARK INTRA:                  -1.488
REMARK UNBOUND:                -1.338
REMARK  Name = 
REMARK  11 active torsions:
REMARK  status: ('A' for Active; 'I' for Inactive)
REMARK    1  A    between atoms: N_1  and  C_2
REMARK    2  A    between atoms: C_2  and  C_3
REMARK    3  A    between atoms: C_3  and  N_4
REMARK    4  A    between atoms: C_3  and  C_20
REMARK    5  A    between atoms: C_5  and  C_7
REMARK    6  A    between atoms: N_13  and  C_14
REMARK    7  A    between atoms: C_14  and  C_15
REMARK    8  A    between atoms: C_15  and  O_16
REMARK    9  A    between atoms: C_23  and  O_24
REMARK   10  A    between atoms: O_24  and  C_25
REMARK   11  A    between atoms: C_25  and  C_26
REMARK                            x       y       z     vdW  Elec       q    Type
REMARK                         _______ _______ _______ _____ _____    ______ ____
ROOT
ATOM      1  C   UNL     1      47.905   6.806  13.523  0.00  0.00    +0.000 C 
ENDROOT
BRANCH   1   2
ATOM      2  C   UNL     1      46.899   6.022  12.690  0.00  0.00    +0.000 A 
ATOM      3  C   UNL     1      46.457   6.515  11.455  0.00  0.00    +0.000 A 
ATOM      4  C   UNL     1      45.509   5.809  10.706  0.00  0.00    +0.000 A 
ATOM      5  C   UNL     1      45.005   4.594  11.176  0.00  0.00    +0.000 A 
ATOM      6  C   UNL     1      45.427   4.105  12.409  0.00  0.00    +0.000 A 
ATOM      7  C   UNL     1      46.378   4.802  13.152  0.00  0.00    +0.000 A 
BRANCH   5   8
ATOM      8  O   UNL     1      44.100   3.967  10.361  0.00  0.00    +0.000 OA
BRANCH   8   9
ATOM      9  C   UNL     1      44.429   2.608  10.042  0.00  0.00    +0.000 C 
BRANCH   9  10
ATOM     10  C   UNL     1      45.269   2.509   8.791  0.00  0.00    +0.000 A 
ATOM     11  C   UNL     1      45.401   3.595   7.925  0.00  0.00    +0.000 A 
ATOM     12  C   UNL     1      46.272   3.493   6.845  0.00  0.00    +0.000 A 
ATOM     13  C   UNL     1      46.993   2.319   6.661  0.00  0.00    +0.000 A 
ATOM     14  C   UNL     1      46.806   1.289   7.563  0.00  0.00    +0.000 A 
ATOM     15  N   UNL     1      45.970   1.356   8.620  0.00  0.00    +0.000 NA
ENDBRANCH   9  10
ENDBRANCH   8   9
ENDBRANCH   5   8
ENDBRANCH   1   2
BRANCH   1  16
ATOM     16  N   UNL     1      47.859   6.309  14.890  0.00  0.00    +0.000 N 
ATOM     17  C   UNL     1      48.942   6.292  15.723  0.00  0.00    +0.000 C 
ATOM     18  O   UNL     1      50.057   6.659  15.367  0.00  0.00    +0.000 OA
ATOM     19  H   UNL     1      46.939   6.177  15.290  0.00  0.00    +0.000 HD
BRANCH  17  20
ATOM     20  C   UNL     1      48.706   5.734  17.063  0.00  0.00    +0.000 A 
ATOM     21  C   UNL     1      48.923   4.382  17.287  0.00  0.00    +0.000 A 
ATOM     22  S   UNL     1      48.568   3.892  18.881  0.00  0.00    +0.000 S 
ATOM     23  C   UNL     1      48.149   5.477  19.335  0.00  0.00    +0.000 A 
ATOM     24  N   UNL     1      47.764   5.756  20.605  0.00  0.00    +0.000 NA
ATOM     25  C   UNL     1      47.516   7.004  20.831  0.00  0.00    +0.000 A 
ATOM     26  N   UNL     1      47.601   8.020  19.897  0.00  0.00    +0.000 N 
ATOM     27  C   UNL     1      47.934   7.757  18.570  0.00  0.00    +0.000 A 
ATOM     28  O   UNL     1      47.922   8.625  17.700  0.00  0.00    +0.000 OA
ATOM     29  C   UNL     1      48.258   6.368  18.285  0.00  0.00    +0.000 A 
BRANCH  26  30
ATOM     30  C   UNL     1      47.298   9.393  20.292  0.00  0.00    +0.000 C 
BRANCH  30  31
ATOM     31  C   UNL     1      48.540  10.167  20.742  0.00  0.00    +0.000 C 
BRANCH  31  32
ATOM     32  O   UNL     1      49.200  10.748  19.622  0.00  0.00    +0.000 OA
ATOM     33  H   UNL     1      49.749  11.483  19.949  0.00  0.00    +0.000 HD
ENDBRANCH  31  32
ENDBRANCH  30  31
ENDBRANCH  26  30
ENDBRANCH  17  20
ENDBRANCH   1  16
BRANCH   1  34
ATOM     34  C   UNL     1      47.621   8.338  13.479  0.00  0.00    +0.000 C 
BRANCH  34  35
ATOM     35  N   UNL     1      47.082   8.896  14.727  0.00  0.00    +0.000 NA
ATOM     36  H   UNL     1      46.752   9.844  14.554  0.00  0.00    +0.000 HD
ATOM     37  H   UNL     1      47.831   8.980  15.417  0.00  0.00    +0.000 HD
ENDBRANCH  34  35
ENDBRANCH   1  34
TORSDOF 11
ENDMDL
MODEL 3
REMARK VINA RESULT:    -7.294      2.093      2.426
REMARK INTER + INTRA:         -12.896
REMARK INTER:                 -11.611
REMARK INTRA:                  -1.285
REMARK UNBOUND:                -1.338
REMARK  Name = 
REMARK  11 active torsions:
REMARK  status: ('A' for Active; 'I' for Inactive)
REMARK    1  A    between atoms: N_1  and  C_2
REMARK    2  A    between atoms: C_2  and  C_3
REMARK    3  A    between atoms: C_3  and  N_4
REMARK    4  A    between atoms: C_3  and  C_20
REMARK    5  A    between atoms: C_5  and  C_7
REMARK    6  A    between atoms: N_13  and  C_14
REMARK    7  A    between atoms: C_14  and  C_15
REMARK    8  A    between atoms: C_15  and  O_16
REMARK    9  A    between atoms: C_23  and  O_24
REMARK   10  A    between atoms: O_24  and  C_25
REMARK   11  A    between atoms: C_25  and  C_26
REMARK                            x       y       z     vdW  Elec       q    Type
REMARK                         _______ _______ _______ _____ _____    ______ ____
ROOT
ATOM      1  C   UNL     1      48.244   7.966  13.420  0.00  0.00    +0.000 C 
ENDROOT
BRANCH   1   2
ATOM      2  C   UNL     1      47.288   6.910  12.881  0.00  0.00    +0.000 A 
ATOM      3  C   UNL     1      46.460   7.189  11.785  0.00  0.00    +0.000 A 
ATOM      4  C   UNL     1      45.560   6.228  11.312  0.00  0.00    +0.000 A 
ATOM      5  C   UNL     1      45.489   4.972  11.917  0.00  0.00    +0.000 A 
ATOM      6  C   UNL     1      46.297   4.691  13.016  0.00  0.00    +0.000 A 
ATOM      7  C   UNL     1      47.201   5.644  13.483  0.00  0.00    +0.000 A 
BRANCH   5   8
ATOM      8  O   UNL     1      44.595   4.092  11.368  0.00  0.00    +0.000 OA
BRANCH   8   9
ATOM      9  C   UNL     1      44.281   4.346   9.992  0.00  0.00    +0.000 C 
BRANCH   9  10
ATOM     10  C   UNL     1      45.211   3.611   9.056  0.00  0.00    +0.000 A 
ATOM     11  C   UNL     1      45.338   2.223   9.110  0.00  0.00    +0.000 A 
ATOM     12  C   UNL     1      46.122   1.581   8.156  0.00  0.00    +0.000 A 
ATOM     13  C   UNL     1      46.748   2.334   7.171  0.00  0.00    +0.000 A 
ATOM     14  C   UNL     1      46.571   3.705   7.185  0.00  0.00    +0.000 A 
ATOM     15  N   UNL     1      45.819   4.358   8.095  0.00  0.00    +0.000 NA
ENDBRANCH   9  10
ENDBRANCH   8   9
ENDBRANCH   5   8
ENDBRANCH   1   2
BRANCH   1  16
ATOM     16  N   UNL     1      49.214   7.313  14.285  0.00  0.00    +0.000 N 
ATOM     17  C   UNL     1      50.293   7.952  14.827  0.00  0.00    +0.000 C 
ATOM     18  O   UNL     1      50.553   9.127  14.591  0.00  0.00    +0.000 OA
ATOM     19  H   UNL     1      48.947   6.412  14.661  0.00  0.00    +0.000 HD
BRANCH  17  20
ATOM     20  C   UNL     1      51.174   7.121  15.660  0.00  0.00    +0.000 A 
ATOM     21  C   UNL     1      52.551   7.255  15.542  0.00  0.00    +0.000 A 
ATOM     22  S   UNL     1      53.425   6.193  16.550  0.00  0.00    +0.000 S 
ATOM     23  C   UNL     1      51.995   5.547  17.205  0.00  0.00    +0.000 A 
ATOM     24  N   UNL     1      52.041   4.585  18.161  0.00  0.00    +0.000 NA
ATOM     25  C   UNL     1      50.887   4.212  18.606  0.00  0.00    +0.000 A 
ATOM     26  N   UNL     1      49.666   4.698  18.176  0.00  0.00    +0.000 N 
ATOM     27  C   UNL     1      49.582   5.639  17.153  0.00  0.00    +0.000 A 
ATOM     28  O   UNL     1      48.509   6.016  16.686  0.00  0.00    +0.000 OA
ATOM     29  C   UNL     1      50.862   6.114  16.653  0.00  0.00    +0.000 A 
BRANCH  26  30
ATOM     30  C   UNL     1      48.434   4.189  18.773  0.00  0.00    +0.000 C 
BRANCH  30  31
ATOM     31  C   UNL     1      47.825   3.032  17.977  0.00  0.00    +0.000 C 
BRANCH  31  32
ATOM     32  O   UNL     1      46.584   3.423  17.397  0.00  0.00    +0.000 OA
ATOM     33  H   UNL     1      46.352   4.299  17.754  0.00  0.00    +0.000 HD
ENDBRANCH  31  32
ENDBRANCH  30  31
ENDBRANCH  26  30
ENDBRANCH  17  20
ENDBRANCH   1  16
BRANCH   1  34
ATOM     34  C   UNL     1      47.486   9.093  14.187  0.00  0.00    +0.000 C 
BRANCH  34  35
ATOM     35  N   UNL     1      47.494   8.948  15.649  0.00  0.00    +0.000 NA
ATOM     36  H   UNL     1      47.409   9.869  16.076  0.00  0.00    +0.000 HD
ATOM     37  H   UNL     1      48.397   8.580  15.953  0.00  0.00    +0.000 HD
ENDBRANCH  34  35
ENDBRANCH   1  34
TORSDOF 11
ENDMDL
MODEL 4
REMARK VINA RESULT:    -7.190      2.915      4.141
REMARK INTER + INTRA:         -12.731
REMARK INTER:                 -11.019
REMARK INTRA:                  -1.712
REMARK UNBOUND:                -1.338
REMARK  Name = 
REMARK  11 active torsions:
REMARK  status: ('A' for Active; 'I' for Inactive)
REMARK    1  A    between atoms: N_1  and  C_2
REMARK    2  A    between atoms: C_2  and  C_3
REMARK    3  A    between atoms: C_3  and  N_4
REMARK    4  A    between atoms: C_3  and  C_20
REMARK    5  A    between atoms: C_5  and  C_7
REMARK    6  A    between atoms: N_13  and  C_14
REMARK    7  A    between atoms: C_14  and  C_15
REMARK    8  A    between atoms: C_15  and  O_16
REMARK    9  A    between atoms: C_23  and  O_24
REMARK   10  A    between atoms: O_24  and  C_25
REMARK   11  A    between atoms: C_25  and  C_26
REMARK                            x       y       z     vdW  Elec       q    Type
REMARK                         _______ _______ _______ _____ _____    ______ ____
ROOT
ATOM      1  C   UNL     1      46.771   5.639  14.059  0.00  0.00    +0.000 C 
ENDROOT
BRANCH   1   2
ATOM      2  C   UNL     1      46.048   5.084  12.838  0.00  0.00    +0.000 A 
ATOM      3  C   UNL     1      45.556   3.772  12.836  0.00  0.00    +0.000 A 
ATOM      4  C   UNL     1      44.921   3.253  11.702  0.00  0.00    +0.000 A 
ATOM      5  C   UNL     1      44.755   4.047  10.564  0.00  0.00    +0.000 A 
ATOM      6  C   UNL     1      45.254   5.346  10.553  0.00  0.00    +0.000 A 
ATOM      7  C   UNL     1      45.879   5.867  11.685  0.00  0.00    +0.000 A 
BRANCH   5   8
ATOM      8  O   UNL     1      44.100   3.458   9.515  0.00  0.00    +0.000 OA
BRANCH   8   9
ATOM      9  C   UNL     1      44.533   2.124   9.217  0.00  0.00    +0.000 C 
BRANCH   9  10
ATOM     10  C   UNL     1      45.608   2.102   8.158  0.00  0.00    +0.000 A 
ATOM     11  C   UNL     1      45.838   3.210   7.342  0.00  0.00    +0.000 A 
ATOM     12  C   UNL     1      46.911   3.184   6.456  0.00  0.00    +0.000 A 
ATOM     13  C   UNL     1      47.730   2.063   6.413  0.00  0.00    +0.000 A 
ATOM     14  C   UNL     1      47.437   1.006   7.255  0.00  0.00    +0.000 A 
ATOM     15  N   UNL     1      46.405   1.000   8.124  0.00  0.00    +0.000 NA
ENDBRANCH   9  10
ENDBRANCH   8   9
ENDBRANCH   5   8
ENDBRANCH   1   2
BRANCH   1  16
ATOM     16  N   UNL     1      47.973   6.325  13.611  0.00  0.00    +0.000 N 
ATOM     17  C   UNL     1      48.071   7.684  13.506  0.00  0.00    +0.000 C 
ATOM     18  O   UNL     1      47.132   8.436  13.743  0.00  0.00    +0.000 OA
ATOM     19  H   UNL     1      48.823   5.775  13.588  0.00  0.00    +0.000 HD
BRANCH  17  20
ATOM     20  C   UNL     1      49.360   8.193  13.016  0.00  0.00    +0.000 A 
ATOM     21  C   UNL     1      49.428   8.790  11.764  0.00  0.00    +0.000 A 
ATOM     22  S   UNL     1      51.000   9.292  11.335  0.00  0.00    +0.000 S 
ATOM     23  C   UNL     1      51.635   8.763  12.821  0.00  0.00    +0.000 A 
ATOM     24  N   UNL     1      52.952   8.919  13.108  0.00  0.00    +0.000 NA
ATOM     25  C   UNL     1      53.299   8.517  14.286  0.00  0.00    +0.000 A 
ATOM     26  N   UNL     1      52.453   7.949  15.220  0.00  0.00    +0.000 N 
ATOM     27  C   UNL     1      51.109   7.717  14.933  0.00  0.00    +0.000 A 
ATOM     28  O   UNL     1      50.359   7.127  15.708  0.00  0.00    +0.000 OA
ATOM     29  C   UNL     1      50.671   8.193  13.630  0.00  0.00    +0.000 A 
BRANCH  26  30
ATOM     30  C   UNL     1      52.978   7.543  16.521  0.00  0.00    +0.000 C 
BRANCH  30  31
ATOM     31  C   UNL     1      53.447   6.086  16.541  0.00  0.00    +0.000 C 
BRANCH  31  32
ATOM     32  O   UNL     1      52.413   5.235  17.026  0.00  0.00    +0.000 OA
ATOM     33  H   UNL     1      52.800   4.355  17.180  0.00  0.00    +0.000 HD
ENDBRANCH  31  32
ENDBRANCH  30  31
ENDBRANCH  26  30
ENDBRANCH  17  20
ENDBRANCH   1  16
BRANCH   1  34
ATOM     34  C   UNL     1      47.120   4.516  15.083  0.00  0.00    +0.000 C 
BRANCH  34  35
ATOM     35  N   UNL     1      48.271   4.815  15.947  0.00  0.00    +0.000 NA
ATOM     36  H   UNL     1      47.972   4.791  16.921  0.00  0.00    +0.000 HD
ATOM     37  H   UNL     1      48.590   5.770  15.776  0.00  0.00    +0.000 HD
ENDBRANCH  34  35
ENDBRANCH   1  34
TORSDOF 11
ENDMDL
MODEL 5
REMARK VINA RESULT:    -7.185      2.328      4.848
REMARK INTER + INTRA:         -12.723
REMARK INTER:                 -11.076
REMARK INTRA:                  -1.647
REMARK UNBOUND:                -1.338
REMARK  Name = 
REMARK  11 active torsions:
REMARK  status: ('A' for Active; 'I' for Inactive)
REMARK    1  A    between atoms: N_1  and  C_2
REMARK    2  A    between atoms: C_2  and  C_3
REMARK    3  A    between atoms: C_3  and  N_4
REMARK    4  A    between atoms: C_3  and  C_20
REMARK    5  A    between atoms: C_5  and  C_7
REMARK    6  A    between atoms: N_13  and  C_14
REMARK    7  A    between atoms: C_14  and  C_15
REMARK    8  A    between atoms: C_15  and  O_16
REMARK    9  A    between atoms: C_23  and  O_24
REMARK   10  A    between atoms: O_24  and  C_25
REMARK   11  A    between atoms: C_25  and  C_26
REMARK                            x       y       z     vdW  Elec       q    Type
REMARK                         _______ _______ _______ _____ _____    ______ ____
ROOT
ATOM      1  C   UNL     1      46.917   5.019  15.053  0.00  0.00    +0.000 C 
ENDROOT
BRANCH   1   2
ATOM      2  C   UNL     1      46.249   4.722  13.717  0.00  0.00    +0.000 A 
ATOM      3  C   UNL     1      45.773   5.763  12.910  0.00  0.00    +0.000 A 
ATOM      4  C   UNL     1      45.131   5.487  11.697  0.00  0.00    +0.000 A 
ATOM      5  C   UNL     1      44.974   4.167  11.271  0.00  0.00    +0.000 A 
ATOM      6  C   UNL     1      45.430   3.125  12.074  0.00  0.00    +0.000 A 
ATOM      7  C   UNL     1      46.078   3.399  13.277  0.00  0.00    +0.000 A 
BRANCH   5   8
ATOM      8  O   UNL     1      44.354   3.999  10.060  0.00  0.00    +0.000 OA
BRANCH   8   9
ATOM      9  C   UNL     1      44.371   2.653   9.566  0.00  0.00    +0.000 C 
BRANCH   9  10
ATOM     10  C   UNL     1      45.387   2.468   8.464  0.00  0.00    +0.000 A 
ATOM     11  C   UNL     1      45.750   3.529   7.634  0.00  0.00    +0.000 A 
ATOM     12  C   UNL     1      46.770   3.341   6.706  0.00  0.00    +0.000 A 
ATOM     13  C   UNL     1      47.405   2.107   6.636  0.00  0.00    +0.000 A 
ATOM     14  C   UNL     1      46.988   1.107   7.494  0.00  0.00    +0.000 A 
ATOM     15  N   UNL     1      46.003   1.257   8.404  0.00  0.00    +0.000 NA
ENDBRANCH   9  10
ENDBRANCH   8   9
ENDBRANCH   5   8
ENDBRANCH   1   2
BRANCH   1  16
ATOM     16  N   UNL     1      48.097   5.834  14.809  0.00  0.00    +0.000 N 
ATOM     17  C   UNL     1      48.792   6.471  15.799  0.00  0.00    +0.000 C 
ATOM     18  O   UNL     1      48.447   6.440  16.975  0.00  0.00    +0.000 OA
ATOM     19  H   UNL     1      48.529   5.738  13.899  0.00  0.00    +0.000 HD
BRANCH  17  20
ATOM     20  C   UNL     1      49.946   7.265  15.356  0.00  0.00    +0.000 A 
ATOM     21  C   UNL     1      51.176   7.086  15.974  0.00  0.00    +0.000 A 
ATOM     22  S   UNL     1      52.398   8.110  15.367  0.00  0.00    +0.000 S 
ATOM     23  C   UNL     1      51.334   8.799  14.233  0.00  0.00    +0.000 A 
ATOM     24  N   UNL     1      51.764   9.751  13.367  0.00  0.00    +0.000 NA
ATOM     25  C   UNL     1      50.870  10.160  12.528  0.00  0.00    +0.000 A 
ATOM     26  N   UNL     1      49.562   9.719  12.473  0.00  0.00    +0.000 N 
ATOM     27  C   UNL     1      49.072   8.789  13.387  0.00  0.00    +0.000 A 
ATOM     28  O   UNL     1      47.890   8.453  13.421  0.00  0.00    +0.000 OA
ATOM     29  C   UNL     1      50.059   8.275  14.323  0.00  0.00    +0.000 A 
BRANCH  26  30
ATOM     30  C   UNL     1      48.656  10.265  11.465  0.00  0.00    +0.000 C 
BRANCH  30  31
ATOM     31  C   UNL     1      47.918  11.515  11.948  0.00  0.00    +0.000 C 
BRANCH  31  32
ATOM     32  O   UNL     1      46.665  11.164  12.528  0.00  0.00    +0.000 OA
ATOM     33  H   UNL     1      46.090  10.833  11.815  0.00  0.00    +0.000 HD
ENDBRANCH  31  32
ENDBRANCH  30  31
ENDBRANCH  26  30
ENDBRANCH  17  20
ENDBRANCH   1  16
BRANCH   1  34
ATOM     34  C   UNL     1      47.292   3.711  15.815  0.00  0.00    +0.000 C 
BRANCH  34  35
ATOM     35  N   UNL     1      46.773   3.634  17.187  0.00  0.00    +0.000 NA
ATOM     36  H   UNL     1      45.761   3.754  17.168  0.00  0.00    +0.000 HD
ATOM     37  H   UNL     1      47.138   4.413  17.737  0.00  0.00    +0.000 HD
ENDBRANCH  34  35
ENDBRANCH   1  34
TORSDOF 11
ENDMDL
MODEL 6
REMARK VINA RESULT:    -6.933      3.638      8.878
REMARK INTER + INTRA:         -12.324
REMARK INTER:                 -11.327
REMARK INTRA:                  -0.996
REMARK UNBOUND:                -1.338
REMARK  Name = 
REMARK  11 active torsions:
REMARK  status: ('A' for Active; 'I' for Inactive)
REMARK    1  A    between atoms: N_1  and  C_2
REMARK    2  A    between atoms: C_2  and  C_3
REMARK    3  A    between atoms: C_3  and  N_4
REMARK    4  A    between atoms: C_3  and  C_20
REMARK    5  A    between atoms: C_5  and  C_7
REMARK    6  A    between atoms: N_13  and  C_14
REMARK    7  A    between atoms: C_14  and  C_15
REMARK    8  A    between atoms: C_15  and  O_16
REMARK    9  A    between atoms: C_23  and  O_24
REMARK   10  A    between atoms: O_24  and  C_25
REMARK   11  A    between atoms: C_25  and  C_26
REMARK                            x       y       z     vdW  Elec       q    Type
REMARK                         _______ _______ _______ _____ _____    ______ ____
ROOT
ATOM      1  C   UNL     1      48.042   4.086  17.584  0.00  0.00    +0.000 C 
ENDROOT
BRANCH   1   2
ATOM      2  C   UNL     1      49.504   3.659  17.550  0.00  0.00    +0.000 A 
ATOM      3  C   UNL     1      49.852   2.318  17.343  0.00  0.00    +0.000 A 
ATOM      4  C   UNL     1      51.194   1.923  17.345  0.00  0.00    +0.000 A 
ATOM      5  C   UNL     1      52.205   2.868  17.535  0.00  0.00    +0.000 A 
ATOM      6  C   UNL     1      51.867   4.201  17.756  0.00  0.00    +0.000 A 
ATOM      7  C   UNL     1      50.531   4.597  17.746  0.00  0.00    +0.000 A 
BRANCH   5   8
ATOM      8  O   UNL     1      53.487   2.388  17.496  0.00  0.00    +0.000 OA
BRANCH   8   9
ATOM      9  C   UNL     1      53.831   1.521  18.584  0.00  0.00    +0.000 C 
BRANCH   9  10
ATOM     10  C   UNL     1      54.178   0.130  18.111  0.00  0.00    +0.000 A 
ATOM     11  C   UNL     1      54.575  -0.104  16.794  0.00  0.00    +0.000 A 
ATOM     12  C   UNL     1      54.990  -1.382  16.432  0.00  0.00    +0.000 A 
ATOM     13  C   UNL     1      55.008  -2.388  17.391  0.00  0.00    +0.000 A 
ATOM     14  C   UNL     1      54.601  -2.075  18.674  0.00  0.00    +0.000 A 
ATOM     15  N   UNL     1      54.193  -0.847  19.057  0.00  0.00    +0.000 NA
ENDBRANCH   9  10
ENDBRANCH   8   9
ENDBRANCH   5   8
ENDBRANCH   1   2
BRANCH   1  16
ATOM     16  N   UNL     1      47.788   4.955  16.446  0.00  0.00    +0.000 N 
ATOM     17  C   UNL     1      47.498   4.492  15.193  0.00  0.00    +0.000 C 
ATOM     18  O   UNL     1      47.471   3.297  14.918  0.00  0.00    +0.000 OA
ATOM     19  H   UNL     1      47.611   5.929  16.655  0.00  0.00    +0.000 HD
BRANCH  17  20
ATOM     20  C   UNL     1      47.292   5.523  14.165  0.00  0.00    +0.000 A 
ATOM     21  C   UNL     1      48.226   6.539  14.019  0.00  0.00    +0.000 A 
ATOM     22  S   UNL     1      47.817   7.670  12.810  0.00  0.00    +0.000 S 
ATOM     23  C   UNL     1      46.398   6.819  12.416  0.00  0.00    +0.000 A 
ATOM     24  N   UNL     1      45.581   7.253  11.424  0.00  0.00    +0.000 NA
ATOM     25  C   UNL     1      44.561   6.494  11.194  0.00  0.00    +0.000 A 
ATOM     26  N   UNL     1      44.258   5.331  11.876  0.00  0.00    +0.000 N 
ATOM     27  C   UNL     1      45.042   4.891  12.940  0.00  0.00    +0.000 A 
ATOM     28  O   UNL     1      44.742   3.915  13.625  0.00  0.00    +0.000 OA
ATOM     29  C   UNL     1      46.222   5.698  13.204  0.00  0.00    +0.000 A 
BRANCH  26  30
ATOM     30  C   UNL     1      43.072   4.563  11.507  0.00  0.00    +0.000 C 
BRANCH  30  31
ATOM     31  C   UNL     1      43.415   3.207  10.884  0.00  0.00    +0.000 C 
BRANCH  31  32
ATOM     32  O   UNL     1      42.999   2.146  11.739  0.00  0.00    +0.000 OA
ATOM     33  H   UNL     1      42.757   2.534  12.599  0.00  0.00    +0.000 HD
ENDBRANCH  31  32
ENDBRANCH  30  31
ENDBRANCH  26  30
ENDBRANCH  17  20
ENDBRANCH   1  16
BRANCH   1  34
ATOM     34  C   UNL     1      47.680   4.800  18.921  0.00  0.00    +0.000 C 
BRANCH  34  35
ATOM     35  N   UNL     1      46.398   5.517  18.903  0.00  0.00    +0.000 NA
ATOM     36  H   UNL     1      45.670   4.890  18.561  0.00  0.00    +0.000 HD
ATOM     37  H   UNL     1      46.443   6.285  18.232  0.00  0.00    +0.000 HD
ENDBRANCH  34  35
ENDBRANCH   1  34
TORSDOF 11
ENDMDL
MODEL 7
REMARK VINA RESULT:    -6.896      2.483      4.366
REMARK INTER + INTRA:         -12.264
REMARK INTER:                 -11.130
REMARK INTRA:                  -1.134
REMARK UNBOUND:                -1.338
REMARK  Name = 
REMARK  11 active torsions:
REMARK  status: ('A' for Active; 'I' for Inactive)
REMARK    1  A    between atoms: N_1  and  C_2
REMARK    2  A    between atoms: C_2  and  C_3
REMARK    3  A    between atoms: C_3  and  N_4
REMARK    4  A    between atoms: C_3  and  C_20
REMARK    5  A    between atoms: C_5  and  C_7
REMARK    6  A    between atoms: N_13  and  C_14
REMARK    7  A    between atoms: C_14  and  C_15
REMARK    8  A    between atoms: C_15  and  O_16
REMARK    9  A    between atoms: C_23  and  O_24
REMARK   10  A    between atoms: O_24  and  C_25
REMARK   11  A    between atoms: C_25  and  C_26
REMARK                            x       y       z     vdW  Elec       q    Type
REMARK                         _______ _______ _______ _____ _____    ______ ____
ROOT
ATOM      1  C   UNL     1      46.790   4.979  14.873  0.00  0.00    +0.000 C 
ENDROOT
BRANCH   1   2
ATOM      2  C   UNL     1      46.189   4.756  13.491  0.00  0.00    +0.000 A 
ATOM      3  C   UNL     1      46.141   5.799  12.557  0.00  0.00    +0.000 A 
ATOM      4  C   UNL     1      45.560   5.601  11.300  0.00  0.00    +0.000 A 
ATOM      5  C   UNL     1      45.035   4.353  10.957  0.00  0.00    +0.000 A 
ATOM      6  C   UNL     1      45.065   3.315  11.885  0.00  0.00    +0.000 A 
ATOM      7  C   UNL     1      45.653   3.508  13.134  0.00  0.00    +0.000 A 
BRANCH   5   8
ATOM      8  O   UNL     1      44.509   4.251   9.696  0.00  0.00    +0.000 OA
BRANCH   8   9
ATOM      9  C   UNL     1      44.374   2.907   9.215  0.00  0.00    +0.000 C 
BRANCH   9  10
ATOM     10  C   UNL     1      45.510   2.518   8.300  0.00  0.00    +0.000 A 
ATOM     11  C   UNL     1      46.165   3.471   7.519  0.00  0.00    +0.000 A 
ATOM     12  C   UNL     1      47.276   3.085   6.775  0.00  0.00    +0.000 A 
ATOM     13  C   UNL     1      47.710   1.767   6.835  0.00  0.00    +0.000 A 
ATOM     14  C   UNL     1      47.008   0.883   7.634  0.00  0.00    +0.000 A 
ATOM     15  N   UNL     1      45.928   1.225   8.366  0.00  0.00    +0.000 NA
ENDBRANCH   9  10
ENDBRANCH   8   9
ENDBRANCH   5   8
ENDBRANCH   1   2
BRANCH   1  16
ATOM     16  N   UNL     1      47.696   6.115  14.805  0.00  0.00    +0.000 N 
ATOM     17  C   UNL     1      48.590   6.428  15.790  0.00  0.00    +0.000 C 
ATOM     18  O   UNL     1      48.671   5.793  16.836  0.00  0.00    +0.000 OA
ATOM     19  H   UNL     1      47.804   6.551  13.898  0.00  0.00    +0.000 HD
BRANCH  17  20
ATOM     20  C   UNL     1      49.408   7.626  15.551  0.00  0.00    +0.000 A 
ATOM     21  C   UNL     1      49.674   8.492  16.603  0.00  0.00    +0.000 A 
ATOM     22  S   UNL     1      50.603   9.847  16.148  0.00  0.00    +0.000 S 
ATOM     23  C   UNL     1      50.714   9.303  14.541  0.00  0.00    +0.000 A 
ATOM     24  N   UNL     1      51.408  10.010  13.615  0.00  0.00    +0.000 NA
ATOM     25  C   UNL     1      51.453   9.467  12.443  0.00  0.00    +0.000 A 
ATOM     26  N   UNL     1      50.851   8.273  12.090  0.00  0.00    +0.000 N 
ATOM     27  C   UNL     1      50.079   7.555  13.000  0.00  0.00    +0.000 A 
ATOM     28  O   UNL     1      49.454   6.544  12.687  0.00  0.00    +0.000 OA
ATOM     29  C   UNL     1      50.037   8.115  14.342  0.00  0.00    +0.000 A 
BRANCH  26  30
ATOM     30  C   UNL     1      50.987   7.769  10.726  0.00  0.00    +0.000 C 
BRANCH  30  31
ATOM     31  C   UNL     1      52.446   7.530  10.327  0.00  0.00    +0.000 C 
BRANCH  31  32
ATOM     32  O   UNL     1      52.807   6.170  10.546  0.00  0.00    +0.000 OA
ATOM     33  H   UNL     1      52.575   5.944  11.465  0.00  0.00    +0.000 HD
ENDBRANCH  31  32
ENDBRANCH  30  31
ENDBRANCH  26  30
ENDBRANCH  17  20
ENDBRANCH   1  16
BRANCH   1  34
ATOM     34  C   UNL     1      47.530   3.709  15.393  0.00  0.00    +0.000 C 
BRANCH  34  35
ATOM     35  N   UNL     1      47.101   3.255  16.723  0.00  0.00    +0.000 NA
ATOM     36  H   UNL     1      46.513   3.971  17.146  0.00  0.00    +0.000 HD
ATOM     37  H   UNL     1      47.914   3.163  17.333  0.00  0.00    +0.000 HD
ENDBRANCH  34  35
ENDBRANCH   1  34
TORSDOF 11
ENDMDL
MODEL 8
REMARK VINA RESULT:    -6.782      2.930      3.852
REMARK INTER + INTRA:         -12.085
REMARK INTER:                 -10.708
REMARK INTRA:                  -1.377
REMARK UNBOUND:                -1.338
REMARK  Name = 
REMARK  11 active torsions:
REMARK  status: ('A' for Active; 'I' for Inactive)
REMARK    1  A    between atoms: N_1  and  C_2
REMARK    2  A    between atoms: C_2  and  C_3
REMARK    3  A    between atoms: C_3  and  N_4
REMARK    4  A    between atoms: C_3  and  C_20
REMARK    5  A    between atoms: C_5  and  C_7
REMARK    6  A    between atoms: N_13  and  C_14
REMARK    7  A    between atoms: C_14  and  C_15
REMARK    8  A    between atoms: C_15  and  O_16
REMARK    9  A    between atoms: C_23  and  O_24
REMARK   10  A    between atoms: O_24  and  C_25
REMARK   11  A    between atoms: C_25  and  C_26
REMARK                            x       y       z     vdW  Elec       q    Type
REMARK                         _______ _______ _______ _____ _____    ______ ____
ROOT
ATOM      1  C   UNL     1      47.340   4.993  15.611  0.00  0.00    +0.000 C 
ENDROOT
BRANCH   1   2
ATOM      2  C   UNL     1      46.762   5.196  14.216  0.00  0.00    +0.000 A 
ATOM      3  C   UNL     1      45.740   4.364  13.739  0.00  0.00    +0.000 A 
ATOM      4  C   UNL     1      45.233   4.532  12.445  0.00  0.00    +0.000 A 
ATOM      5  C   UNL     1      45.730   5.544  11.621  0.00  0.00    +0.000 A 
ATOM      6  C   UNL     1      46.756   6.365  12.082  0.00  0.00    +0.000 A 
ATOM      7  C   UNL     1      47.255   6.206  13.373  0.00  0.00    +0.000 A 
BRANCH   5   8
ATOM      8  O   UNL     1      45.154   5.644  10.382  0.00  0.00    +0.000 OA
BRANCH   8   9
ATOM      9  C   UNL     1      44.499   4.450   9.934  0.00  0.00    +0.000 C 
BRANCH   9  10
ATOM     10  C   UNL     1      45.365   3.652   8.988  0.00  0.00    +0.000 A 
ATOM     11  C   UNL     1      45.442   2.262   9.082  0.00  0.00    +0.000 A 
ATOM     12  C   UNL     1      46.164   1.561   8.121  0.00  0.00    +0.000 A 
ATOM     13  C   UNL     1      46.782   2.260   7.091  0.00  0.00    +0.000 A 
ATOM     14  C   UNL     1      46.657   3.636   7.067  0.00  0.00    +0.000 A 
ATOM     15  N   UNL     1      45.965   4.345   7.983  0.00  0.00    +0.000 NA
ENDBRANCH   9  10
ENDBRANCH   8   9
ENDBRANCH   5   8
ENDBRANCH   1   2
BRANCH   1  16
ATOM     16  N   UNL     1      48.732   5.414  15.599  0.00  0.00    +0.000 N 
ATOM     17  C   UNL     1      49.278   6.242  16.540  0.00  0.00    +0.000 C 
ATOM     18  O   UNL     1      48.620   6.732  17.452  0.00  0.00    +0.000 OA
ATOM     19  H   UNL     1      49.354   4.896  14.992  0.00  0.00    +0.000 HD
BRANCH  17  20
ATOM     20  C   UNL     1      50.698   6.572  16.351  0.00  0.00    +0.000 A 
ATOM     21  C   UNL     1      51.046   7.696  15.614  0.00  0.00    +0.000 A 
ATOM     22  S   UNL     1      52.730   7.914  15.461  0.00  0.00    +0.000 S 
ATOM     23  C   UNL     1      53.050   6.536  16.404  0.00  0.00    +0.000 A 
ATOM     24  N   UNL     1      54.326   6.164  16.679  0.00  0.00    +0.000 NA
ATOM     25  C   UNL     1      54.433   5.127  17.442  0.00  0.00    +0.000 A 
ATOM     26  N   UNL     1      53.377   4.399  17.957  0.00  0.00    +0.000 N 
ATOM     27  C   UNL     1      52.057   4.716  17.643  0.00  0.00    +0.000 A 
ATOM     28  O   UNL     1      51.105   4.029  18.008  0.00  0.00    +0.000 OA
ATOM     29  C   UNL     1      51.894   5.903  16.818  0.00  0.00    +0.000 A 
BRANCH  26  30
ATOM     30  C   UNL     1      53.642   3.247  18.815  0.00  0.00    +0.000 C 
BRANCH  30  31
ATOM     31  C   UNL     1      53.586   1.919  18.056  0.00  0.00    +0.000 C 
BRANCH  31  32
ATOM     32  O   UNL     1      52.366   1.236  18.333  0.00  0.00    +0.000 OA
ATOM     33  H   UNL     1      51.846   1.212  17.510  0.00  0.00    +0.000 HD
ENDBRANCH  31  32
ENDBRANCH  30  31
ENDBRANCH  26  30
ENDBRANCH  17  20
ENDBRANCH   1  16
BRANCH   1  34
ATOM     34  C   UNL     1      47.211   3.512  16.079  0.00  0.00    +0.000 C 
BRANCH  34  35
ATOM     35  N   UNL     1      46.644   3.345  17.424  0.00  0.00    +0.000 NA
ATOM     36  H   UNL     1      45.633   3.242  17.350  0.00  0.00    +0.000 HD
ATOM     37  H   UNL     1      46.801   4.192  17.971  0.00  0.00    +0.000 HD
ENDBRANCH  34  35
ENDBRANCH   1  34
TORSDOF 11
ENDMDL
MODEL 9
REMARK VINA RESULT:    -6.551      1.619      2.044
REMARK INTER + INTRA:         -11.719
REMARK INTER:                 -10.125
REMARK INTRA:                  -1.594
REMARK UNBOUND:                -1.338
REMARK  Name = 
REMARK  11 active torsions:
REMARK  status: ('A' for Active; 'I' for Inactive)
REMARK    1  A    between atoms: N_1  and  C_2
REMARK    2  A    between atoms: C_2  and  C_3
REMARK    3  A    between atoms: C_3  and  N_4
REMARK    4  A    between atoms: C_3  and  C_20
REMARK    5  A    between atoms: C_5  and  C_7
REMARK    6  A    between atoms: N_13  and  C_14
REMARK    7  A    between atoms: C_14  and  C_15
REMARK    8  A    between atoms: C_15  and  O_16
REMARK    9  A    between atoms: C_23  and  O_24
REMARK   10  A    between atoms: O_24  and  C_25
REMARK   11  A    between atoms: C_25  and  C_26
REMARK                            x       y       z     vdW  Elec       q    Type
REMARK                         _______ _______ _______ _____ _____    ______ ____
ROOT
ATOM      1  C   UNL     1      48.936   9.110  13.292  0.00  0.00    +0.000 C 
ENDROOT
BRANCH   1   2
ATOM      2  C   UNL     1      47.776   8.324  12.694  0.00  0.00    +0.000 A 
ATOM      3  C   UNL     1      46.583   8.970  12.342  0.00  0.00    +0.000 A 
ATOM      4  C   UNL     1      45.507   8.241  11.823  0.00  0.00    +0.000 A 
ATOM      5  C   UNL     1      45.618   6.862  11.635  0.00  0.00    +0.000 A 
ATOM      6  C   UNL     1      46.794   6.210  11.997  0.00  0.00    +0.000 A 
ATOM      7  C   UNL     1      47.870   6.936  12.505  0.00  0.00    +0.000 A 
BRANCH   5   8
ATOM      8  O   UNL     1      44.520   6.241  11.101  0.00  0.00    +0.000 OA
BRANCH   8   9
ATOM      9  C   UNL     1      44.486   4.821  11.296  0.00  0.00    +0.000 C 
BRANCH   9  10
ATOM     10  C   UNL     1      44.869   4.069  10.044  0.00  0.00    +0.000 A 
ATOM     11  C   UNL     1      45.489   4.717   8.976  0.00  0.00    +0.000 A 
ATOM     12  C   UNL     1      45.923   3.963   7.890  0.00  0.00    +0.000 A 
ATOM     13  C   UNL     1      45.735   2.586   7.900  0.00  0.00    +0.000 A 
ATOM     14  C   UNL     1      45.113   2.019   8.996  0.00  0.00    +0.000 A 
ATOM     15  N   UNL     1      44.681   2.721  10.064  0.00  0.00    +0.000 NA
ENDBRANCH   9  10
ENDBRANCH   8   9
ENDBRANCH   5   8
ENDBRANCH   1   2
BRANCH   1  16
ATOM     16  N   UNL     1      49.114   8.691  14.673  0.00  0.00    +0.000 N 
ATOM     17  C   UNL     1      50.312   8.281  15.189  0.00  0.00    +0.000 C 
ATOM     18  O   UNL     1      51.330   8.195  14.510  0.00  0.00    +0.000 OA
ATOM     19  H   UNL     1      48.366   8.922  15.314  0.00  0.00    +0.000 HD
BRANCH  17  20
ATOM     20  C   UNL     1      50.292   7.877  16.602  0.00  0.00    +0.000 A 
ATOM     21  C   UNL     1      50.987   8.630  17.538  0.00  0.00    +0.000 A 
ATOM     22  S   UNL     1      50.891   8.003  19.121  0.00  0.00    +0.000 S 
ATOM     23  C   UNL     1      49.887   6.727  18.615  0.00  0.00    +0.000 A 
ATOM     24  N   UNL     1      49.419   5.818  19.506  0.00  0.00    +0.000 NA
ATOM     25  C   UNL     1      48.631   4.926  19.002  0.00  0.00    +0.000 A 
ATOM     26  N   UNL     1      48.268   4.837  17.671  0.00  0.00    +0.000 N 
ATOM     27  C   UNL     1      48.781   5.717  16.721  0.00  0.00    +0.000 A 
ATOM     28  O   UNL     1      48.551   5.602  15.519  0.00  0.00    +0.000 OA
ATOM     29  C   UNL     1      49.641   6.761  17.256  0.00  0.00    +0.000 A 
BRANCH  26  30
ATOM     30  C   UNL     1      47.361   3.778  17.237  0.00  0.00    +0.000 C 
BRANCH  30  31
ATOM     31  C   UNL     1      48.087   2.466  16.930  0.00  0.00    +0.000 C 
BRANCH  31  32
ATOM     32  O   UNL     1      48.607   2.482  15.604  0.00  0.00    +0.000 OA
ATOM     33  H   UNL     1      49.579   2.477  15.665  0.00  0.00    +0.000 HD
ENDBRANCH  31  32
ENDBRANCH  30  31
ENDBRANCH  26  30
ENDBRANCH  17  20
ENDBRANCH   1  16
BRANCH   1  34
ATOM     34  C   UNL     1      48.698  10.648  13.204  0.00  0.00    +0.000 C 
BRANCH  34  35
ATOM     35  N   UNL     1      48.561  11.320  14.503  0.00  0.00    +0.000 NA
ATOM     36  H   UNL     1      48.770  10.655  15.246  0.00  0.00    +0.000 HD
ATOM     37  H   UNL     1      47.590  11.601  14.644  0.00  0.00    +0.000 HD
ENDBRANCH  34  35
ENDBRANCH   1  34
TORSDOF 11
ENDMDL
