MODEL 1
REMARK VINA RESULT:    -8.241      0.000      0.000
REMARK INTER + INTRA:         -13.510
REMARK INTER:                 -12.095
REMARK INTRA:                  -1.415
REMARK UNBOUND:                -1.415
REMARK  Name = 
REMARK  10 active torsions:
REMARK  status: ('A' for Active; 'I' for Inactive)
REMARK    1  A    between atoms: C_1  and  O_2
REMARK    2  A    between atoms: O_2  and  C_3
REMARK    3  A    between atoms: C_10  and  C_11
REMARK    4  A    between atoms: N_13  and  C_14
REMARK    5  A    between atoms: C_14  and  C_15
REMARK    6  A    between atoms: C_18  and  N_19
REMARK    7  A    between atoms: N_19  and  C_20
REMARK    8  A    between atoms: C_20  and  C_21
REMARK    9  A    between atoms: C_21  and  C_22
REMARK   10  A    between atoms: C_26  and  C_27
REMARK                            x       y       z     vdW  Elec       q    Type
REMARK                         _______ _______ _______ _____ _____    ______ ____
ROOT
ATOM      1  C   UNL     1      46.471   7.535  12.658  0.00  0.00    +0.000 A 
ATOM      2  C   UNL     1      46.887   6.374  12.000  0.00  0.00    +0.000 A 
ATOM      3  C   UNL     1      45.998   5.652  11.194  0.00  0.00    +0.000 A 
ATOM      4  C   UNL     1      44.668   6.058  11.036  0.00  0.00    +0.000 A 
ATOM      5  C   UNL     1      44.283   7.267  11.624  0.00  0.00    +0.000 A 
ATOM      6  C   UNL     1      45.167   7.994  12.433  0.00  0.00    +0.000 A 
ENDROOT
BRANCH   4   7
ATOM      7  N   UNL     1      43.706   5.320  10.332  0.00  0.00    +0.000 N 
ATOM      8  H   UNL     1      43.197   5.906   9.668  0.00  0.00    +0.000 HD
BRANCH   7   9
ATOM      9  C   UNL     1      44.124   4.032   9.763  0.00  0.00    +0.000 C 
BRANCH   9  10
ATOM     10  C   UNL     1      44.551   4.196   8.293  0.00  0.00    +0.000 C 
BRANCH  10  11
ATOM     11  C   UNL     1      45.480   3.104   7.835  0.00  0.00    +0.000 A 
ATOM     12  C   UNL     1      45.533   1.884   8.509  0.00  0.00    +0.000 A 
ATOM     13  C   UNL     1      46.391   0.904   8.040  0.00  0.00    +0.000 A 
ATOM     14  N   UNL     1      47.193   1.057   6.964  0.00  0.00    +0.000 NA
ATOM     15  C   UNL     1      47.144   2.246   6.321  0.00  0.00    +0.000 A 
ATOM     16  C   UNL     1      48.048   2.419   5.136  0.00  0.00    +0.000 C 
ATOM     17  C   UNL     1      46.304   3.283   6.718  0.00  0.00    +0.000 A 
ENDBRANCH  10  11
ENDBRANCH   9  10
ENDBRANCH   7   9
ENDBRANCH   4   7
BRANCH   1  18
ATOM     18  C   UNL     1      47.405   8.264  13.593  0.00  0.00    +0.000 C 
BRANCH  18  21
ATOM     19  C   UNL     1      49.066   7.066  14.974  0.00  0.00    +0.000 C 
ATOM     20  O   UNL     1      49.994   7.420  14.236  0.00  0.00    +0.000 OA
ATOM     21  N   UNL     1      47.776   7.443  14.719  0.00  0.00    +0.000 N 
ATOM     22  H   UNL     1      47.023   7.024  15.250  0.00  0.00    +0.000 HD
BRANCH  19  30
ATOM     23  C   UNL     1      47.451   4.343  16.320  0.00  0.00    +0.000 A 
ATOM     24  N   UNL     1      46.968   3.351  17.095  0.00  0.00    +0.000 NA
ATOM     25  C   UNL     1      47.601   3.068  18.230  0.00  0.00    +0.000 A 
ATOM     26  N   UNL     1      48.685   3.670  18.707  0.00  0.00    +0.000 NA
ATOM     27  C   UNL     1      49.123   4.668  17.919  0.00  0.00    +0.000 A 
ATOM     28  S   UNL     1      50.511   5.540  18.362  0.00  0.00    +0.000 S 
ATOM     29  C   UNL     1      50.390   6.532  16.985  0.00  0.00    +0.000 A 
ATOM     30  C   UNL     1      49.307   6.236  16.166  0.00  0.00    +0.000 A 
ATOM     31  C   UNL     1      48.568   5.097  16.715  0.00  0.00    +0.000 A 
BRANCH  23  33
ATOM     32  C   UNL     1      47.052   3.501  14.176  0.00  0.00    +0.000 C 
ATOM     33  O   UNL     1      46.839   4.564  15.103  0.00  0.00    +0.000 OA
ENDBRANCH  23  33
ENDBRANCH  19  30
ENDBRANCH  18  21
ENDBRANCH   1  18
TORSDOF 8
ENDMDL
MODEL 2
REMARK VINA RESULT:    -7.817      1.433      1.771
REMARK INTER + INTRA:         -12.889
REMARK INTER:                 -11.674
REMARK INTRA:                  -1.214
REMARK UNBOUND:                -1.415
REMARK  Name = 
REMARK  10 active torsions:
REMARK  status: ('A' for Active; 'I' for Inactive)
REMARK    1  A    between atoms: C_1  and  O_2
REMARK    2  A    between atoms: O_2  and  C_3
REMARK    3  A    between atoms: C_10  and  C_11
REMARK    4  A    between atoms: N_13  and  C_14
REMARK    5  A    between atoms: C_14  and  C_15
REMARK    6  A    between atoms: C_18  and  N_19
REMARK    7  A    between atoms: N_19  and  C_20
REMARK    8  A    between atoms: C_20  and  C_21
REMARK    9  A    between atoms: C_21  and  C_22
REMARK   10  A    between atoms: C_26  and  C_27
REMARK                            x       y       z     vdW  Elec       q    Type
REMARK                         _______ _______ _______ _____ _____    ______ ____
ROOT
ATOM      1  C   UNL     1      46.654   6.803  12.924  0.00  0.00    +0.000 A 
ATOM      2  C   UNL     1      45.686   7.430  12.132  0.00  0.00    +0.000 A 
ATOM      3  C   UNL     1      44.653   6.689  11.546  0.00  0.00    +0.000 A 
ATOM      4  C   UNL     1      44.568   5.301  11.717  0.00  0.00    +0.000 A 
ATOM      5  C   UNL     1      45.485   4.695  12.580  0.00  0.00    +0.000 A 
ATOM      6  C   UNL     1      46.522   5.431  13.169  0.00  0.00    +0.000 A 
ENDROOT
BRANCH   4   7
ATOM      7  N   UNL     1      43.623   4.494  11.068  0.00  0.00    +0.000 N 
ATOM      8  H   UNL     1      42.900   5.056  10.614  0.00  0.00    +0.000 HD
BRANCH   7   9
ATOM      9  C   UNL     1      44.129   3.408  10.218  0.00  0.00    +0.000 C 
BRANCH   9  10
ATOM     10  C   UNL     1      44.688   3.963   8.896  0.00  0.00    +0.000 C 
BRANCH  10  11
ATOM     11  C   UNL     1      45.536   2.960   8.160  0.00  0.00    +0.000 A 
ATOM     12  C   UNL     1      45.702   1.668   8.657  0.00  0.00    +0.000 A 
ATOM     13  C   UNL     1      46.477   0.775   7.936  0.00  0.00    +0.000 A 
ATOM     14  N   UNL     1      47.093   1.081   6.773  0.00  0.00    +0.000 NA
ATOM     15  C   UNL     1      46.935   2.339   6.302  0.00  0.00    +0.000 A 
ATOM     16  C   UNL     1      47.633   2.680   5.019  0.00  0.00    +0.000 C 
ATOM     17  C   UNL     1      46.166   3.297   6.957  0.00  0.00    +0.000 A 
ENDBRANCH  10  11
ENDBRANCH   9  10
ENDBRANCH   7   9
ENDBRANCH   4   7
BRANCH   1  18
ATOM     18  C   UNL     1      47.814   7.589  13.485  0.00  0.00    +0.000 C 
BRANCH  18  21
ATOM     19  C   UNL     1      48.932   7.070  15.626  0.00  0.00    +0.000 C 
ATOM     20  O   UNL     1      49.952   6.681  15.045  0.00  0.00    +0.000 OA
ATOM     21  N   UNL     1      47.849   7.528  14.925  0.00  0.00    +0.000 N 
ATOM     22  H   UNL     1      46.980   7.702  15.414  0.00  0.00    +0.000 HD
BRANCH  19  30
ATOM     23  C   UNL     1      48.819   4.573  17.989  0.00  0.00    +0.000 A 
ATOM     24  N   UNL     1      48.667   3.811  19.091  0.00  0.00    +0.000 NA
ATOM     25  C   UNL     1      48.506   4.418  20.264  0.00  0.00    +0.000 A 
ATOM     26  N   UNL     1      48.473   5.727  20.484  0.00  0.00    +0.000 NA
ATOM     27  C   UNL     1      48.604   6.453  19.359  0.00  0.00    +0.000 A 
ATOM     28  S   UNL     1      48.602   8.149  19.449  0.00  0.00    +0.000 S 
ATOM     29  C   UNL     1      48.780   8.290  17.763  0.00  0.00    +0.000 A 
ATOM     30  C   UNL     1      48.839   7.072  17.095  0.00  0.00    +0.000 A 
ATOM     31  C   UNL     1      48.764   5.974  18.060  0.00  0.00    +0.000 A 
BRANCH  23  33
ATOM     32  C   UNL     1      47.894   3.442  16.164  0.00  0.00    +0.000 C 
ATOM     33  O   UNL     1      49.076   3.931  16.795  0.00  0.00    +0.000 OA
ENDBRANCH  23  33
ENDBRANCH  19  30
ENDBRANCH  18  21
ENDBRANCH   1  18
TORSDOF 8
ENDMDL
MODEL 3
REMARK VINA RESULT:    -7.697      2.434      3.175
REMARK INTER + INTRA:         -12.713
REMARK INTER:                 -11.445
REMARK INTRA:                  -1.268
REMARK UNBOUND:                -1.415
REMARK  Name = 
REMARK  10 active torsions:
REMARK  status: ('A' for Active; 'I' for Inactive)
REMARK    1  A    between atoms: C_1  and  O_2
REMARK    2  A    between atoms: O_2  and  C_3
REMARK    3  A    between atoms: C_10  and  C_11
REMARK    4  A    between atoms: N_13  and  C_14
REMARK    5  A    between atoms: C_14  and  C_15
REMARK    6  A    between atoms: C_18  and  N_19
REMARK    7  A    between atoms: N_19  and  C_20
REMARK    8  A    between atoms: C_20  and  C_21
REMARK    9  A    between atoms: C_21  and  C_22
REMARK   10  A    between atoms: C_26  and  C_27
REMARK                            x       y       z     vdW  Elec       q    Type
REMARK                         _______ _______ _______ _____ _____    ______ ____
ROOT
ATOM      1  C   UNL     1      47.156   6.232  13.250  0.00  0.00    +0.000 A 
ATOM      2  C   UNL     1      46.765   6.964  12.125  0.00  0.00    +0.000 A 
ATOM      3  C   UNL     1      45.676   6.551  11.346  0.00  0.00    +0.000 A 
ATOM      4  C   UNL     1      44.960   5.390  11.659  0.00  0.00    +0.000 A 
ATOM      5  C   UNL     1      45.299   4.713  12.834  0.00  0.00    +0.000 A 
ATOM      6  C   UNL     1      46.388   5.119  13.616  0.00  0.00    +0.000 A 
ENDROOT
BRANCH   4   7
ATOM      7  N   UNL     1      43.933   4.869  10.858  0.00  0.00    +0.000 N 
ATOM      8  H   UNL     1      43.467   5.605  10.323  0.00  0.00    +0.000 HD
BRANCH   7   9
ATOM      9  C   UNL     1      44.237   3.677  10.056  0.00  0.00    +0.000 C 
BRANCH   9  10
ATOM     10  C   UNL     1      44.751   4.072   8.661  0.00  0.00    +0.000 C 
BRANCH  10  11
ATOM     11  C   UNL     1      45.606   3.002   8.035  0.00  0.00    +0.000 A 
ATOM     12  C   UNL     1      45.671   1.726   8.592  0.00  0.00    +0.000 A 
ATOM     13  C   UNL     1      46.457   0.770   7.971  0.00  0.00    +0.000 A 
ATOM     14  N   UNL     1      47.176   1.000   6.850  0.00  0.00    +0.000 NA
ATOM     15  C   UNL     1      47.116   2.242   6.320  0.00  0.00    +0.000 A 
ATOM     16  C   UNL     1      47.929   2.499   5.086  0.00  0.00    +0.000 C 
ATOM     17  C   UNL     1      46.345   3.260   6.874  0.00  0.00    +0.000 A 
ENDBRANCH  10  11
ENDBRANCH   9  10
ENDBRANCH   7   9
ENDBRANCH   4   7
BRANCH   1  18
ATOM     18  C   UNL     1      48.380   6.630  14.038  0.00  0.00    +0.000 C 
BRANCH  18  21
ATOM     19  C   UNL     1      48.959   6.346  16.423  0.00  0.00    +0.000 C 
ATOM     20  O   UNL     1      50.057   5.852  16.139  0.00  0.00    +0.000 OA
ATOM     21  N   UNL     1      48.090   6.749  15.446  0.00  0.00    +0.000 N 
ATOM     22  H   UNL     1      47.147   7.014  15.699  0.00  0.00    +0.000 HD
BRANCH  19  30
ATOM     23  C   UNL     1      47.771   9.052  18.184  0.00  0.00    +0.000 A 
ATOM     24  N   UNL     1      47.386   9.950  19.113  0.00  0.00    +0.000 NA
ATOM     25  C   UNL     1      47.248   9.541  20.372  0.00  0.00    +0.000 A 
ATOM     26  N   UNL     1      47.455   8.314  20.836  0.00  0.00    +0.000 NA
ATOM     27  C   UNL     1      47.860   7.453  19.885  0.00  0.00    +0.000 A 
ATOM     28  S   UNL     1      48.158   5.832  20.293  0.00  0.00    +0.000 S 
ATOM     29  C   UNL     1      48.601   5.457  18.694  0.00  0.00    +0.000 A 
ATOM     30  C   UNL     1      48.542   6.537  17.821  0.00  0.00    +0.000 A 
ATOM     31  C   UNL     1      48.067   7.724  18.535  0.00  0.00    +0.000 A 
BRANCH  23  33
ATOM     32  C   UNL     1      49.055  10.102  16.537  0.00  0.00    +0.000 C 
ATOM     33  O   UNL     1      47.821   9.468  16.870  0.00  0.00    +0.000 OA
ENDBRANCH  23  33
ENDBRANCH  19  30
ENDBRANCH  18  21
ENDBRANCH   1  18
TORSDOF 8
ENDMDL
MODEL 4
REMARK VINA RESULT:    -7.260      1.685      2.340
REMARK INTER + INTRA:         -12.070
REMARK INTER:                 -10.517
REMARK INTRA:                  -1.553
REMARK UNBOUND:                -1.415
REMARK  Name = 
REMARK  10 active torsions:
REMARK  status: ('A' for Active; 'I' for Inactive)
REMARK    1  A    between atoms: C_1  and  O_2
REMARK    2  A    between atoms: O_2  and  C_3
REMARK    3  A    between atoms: C_10  and  C_11
REMARK    4  A    between atoms: N_13  and  C_14
REMARK    5  A    between atoms: C_14  and  C_15
REMARK    6  A    between atoms: C_18  and  N_19
REMARK    7  A    between atoms: N_19  and  C_20
REMARK    8  A    between atoms: C_20  and  C_21
REMARK    9  A    between atoms: C_21  and  C_22
REMARK   10  A    between atoms: C_26  and  C_27
REMARK                            x       y       z     vdW  Elec       q    Type
REMARK                         _______ _______ _______ _____ _____    ______ ____
ROOT
ATOM      1  C   UNL     1      47.030   7.020  12.782  0.00  0.00    +0.000 A 
ATOM      2  C   UNL     1      47.038   5.718  13.294  0.00  0.00    +0.000 A 
ATOM      3  C   UNL     1      45.899   4.908  13.204  0.00  0.00    +0.000 A 
ATOM      4  C   UNL     1      44.717   5.379  12.619  0.00  0.00    +0.000 A 
ATOM      5  C   UNL     1      44.743   6.647  12.031  0.00  0.00    +0.000 A 
ATOM      6  C   UNL     1      45.879   7.464  12.119  0.00  0.00    +0.000 A 
ENDROOT
BRANCH   4   7
ATOM      7  N   UNL     1      43.517   4.655  12.598  0.00  0.00    +0.000 N 
ATOM      8  H   UNL     1      42.783   5.133  13.125  0.00  0.00    +0.000 HD
BRANCH   7   9
ATOM      9  C   UNL     1      43.056   4.144  11.300  0.00  0.00    +0.000 C 
BRANCH   9  10
ATOM     10  C   UNL     1      43.792   2.844  10.931  0.00  0.00    +0.000 C 
BRANCH  10  11
ATOM     11  C   UNL     1      44.698   3.011   9.740  0.00  0.00    +0.000 A 
ATOM     12  C   UNL     1      44.912   4.269   9.179  0.00  0.00    +0.000 A 
ATOM     13  C   UNL     1      45.767   4.375   8.095  0.00  0.00    +0.000 A 
ATOM     14  N   UNL     1      46.412   3.325   7.539  0.00  0.00    +0.000 NA
ATOM     15  C   UNL     1      46.193   2.107   8.083  0.00  0.00    +0.000 A 
ATOM     16  C   UNL     1      46.897   0.941   7.453  0.00  0.00    +0.000 C 
ATOM     17  C   UNL     1      45.356   1.911   9.178  0.00  0.00    +0.000 A 
ENDBRANCH  10  11
ENDBRANCH   9  10
ENDBRANCH   7   9
ENDBRANCH   4   7
BRANCH   1  18
ATOM     18  C   UNL     1      48.228   7.920  12.956  0.00  0.00    +0.000 C 
BRANCH  18  21
ATOM     19  C   UNL     1      49.501   7.718  15.063  0.00  0.00    +0.000 C 
ATOM     20  O   UNL     1      48.874   8.651  15.578  0.00  0.00    +0.000 OA
ATOM     21  N   UNL     1      49.237   7.308  13.785  0.00  0.00    +0.000 N 
ATOM     22  H   UNL     1      49.857   6.644  13.339  0.00  0.00    +0.000 HD
BRANCH  19  30
ATOM     23  C   UNL     1      49.464   4.979  17.144  0.00  0.00    +0.000 A 
ATOM     24  N   UNL     1      49.716   4.010  18.047  0.00  0.00    +0.000 NA
ATOM     25  C   UNL     1      50.964   3.860  18.484  0.00  0.00    +0.000 A 
ATOM     26  N   UNL     1      52.023   4.577  18.127  0.00  0.00    +0.000 NA
ATOM     27  C   UNL     1      51.728   5.549  17.245  0.00  0.00    +0.000 A 
ATOM     28  S   UNL     1      52.963   6.557  16.662  0.00  0.00    +0.000 S 
ATOM     29  C   UNL     1      51.865   7.435  15.704  0.00  0.00    +0.000 A 
ATOM     30  C   UNL     1      50.550   6.996  15.803  0.00  0.00    +0.000 A 
ATOM     31  C   UNL     1      50.478   5.845  16.705  0.00  0.00    +0.000 A 
BRANCH  23  33
ATOM     32  C   UNL     1      47.443   3.857  16.797  0.00  0.00    +0.000 C 
ATOM     33  O   UNL     1      48.186   5.063  16.632  0.00  0.00    +0.000 OA
ENDBRANCH  23  33
ENDBRANCH  19  30
ENDBRANCH  18  21
ENDBRANCH   1  18
TORSDOF 8
ENDMDL
MODEL 5
REMARK VINA RESULT:    -6.905      2.005      2.794
REMARK INTER + INTRA:         -11.550
REMARK INTER:                 -10.485
REMARK INTRA:                  -1.065
REMARK UNBOUND:                -1.415
REMARK  Name = 
REMARK  10 active torsions:
REMARK  status: ('A' for Active; 'I' for Inactive)
REMARK    1  A    between atoms: C_1  and  O_2
REMARK    2  A    between atoms: O_2  and  C_3
REMARK    3  A    between atoms: C_10  and  C_11
REMARK    4  A    between atoms: N_13  and  C_14
REMARK    5  A    between atoms: C_14  and  C_15
REMARK    6  A    between atoms: C_18  and  N_19
REMARK    7  A    between atoms: N_19  and  C_20
REMARK    8  A    between atoms: C_20  and  C_21
REMARK    9  A    between atoms: C_21  and  C_22
REMARK   10  A    between atoms: C_26  and  C_27
REMARK                            x       y       z     vdW  Elec       q    Type
REMARK                         _______ _______ _______ _____ _____    ______ ____
ROOT
ATOM      1  C   UNL     1      47.123   8.047  13.446  0.00  0.00    +0.000 A 
ATOM      2  C   UNL     1      46.045   8.709  12.851  0.00  0.00    +0.000 A 
ATOM      3  C   UNL     1      45.209   8.043  11.946  0.00  0.00    +0.000 A 
ATOM      4  C   UNL     1      45.436   6.706  11.596  0.00  0.00    +0.000 A 
ATOM      5  C   UNL     1      46.460   6.025  12.261  0.00  0.00    +0.000 A 
ATOM      6  C   UNL     1      47.301   6.686  13.167  0.00  0.00    +0.000 A 
ENDROOT
BRANCH   4   7
ATOM      7  N   UNL     1      44.702   6.022  10.618  0.00  0.00    +0.000 N 
ATOM      8  H   UNL     1      44.766   6.486   9.709  0.00  0.00    +0.000 HD
BRANCH   7   9
ATOM      9  C   UNL     1      44.874   4.565  10.535  0.00  0.00    +0.000 C 
BRANCH   9  10
ATOM     10  C   UNL     1      44.377   4.032   9.180  0.00  0.00    +0.000 C 
BRANCH  10  11
ATOM     11  C   UNL     1      45.456   3.319   8.409  0.00  0.00    +0.000 A 
ATOM     12  C   UNL     1      46.371   4.034   7.639  0.00  0.00    +0.000 A 
ATOM     13  C   UNL     1      47.356   3.336   6.960  0.00  0.00    +0.000 A 
ATOM     14  N   UNL     1      47.484   1.991   6.994  0.00  0.00    +0.000 NA
ATOM     15  C   UNL     1      46.587   1.303   7.735  0.00  0.00    +0.000 A 
ATOM     16  C   UNL     1      46.722  -0.191   7.757  0.00  0.00    +0.000 C 
ATOM     17  C   UNL     1      45.571   1.925   8.456  0.00  0.00    +0.000 A 
ENDBRANCH  10  11
ENDBRANCH   9  10
ENDBRANCH   7   9
ENDBRANCH   4   7
BRANCH   1  18
ATOM     18  C   UNL     1      48.073   8.788  14.355  0.00  0.00    +0.000 C 
BRANCH  18  21
ATOM     19  C   UNL     1      48.247   8.509  16.804  0.00  0.00    +0.000 C 
ATOM     20  O   UNL     1      47.833   9.658  17.004  0.00  0.00    +0.000 OA
ATOM     21  N   UNL     1      48.388   8.019  15.534  0.00  0.00    +0.000 N 
ATOM     22  H   UNL     1      48.862   7.137  15.393  0.00  0.00    +0.000 HD
BRANCH  19  30
ATOM     23  C   UNL     1      50.442   5.881  17.123  0.00  0.00    +0.000 A 
ATOM     24  N   UNL     1      51.136   4.784  17.489  0.00  0.00    +0.000 NA
ATOM     25  C   UNL     1      50.963   4.303  18.717  0.00  0.00    +0.000 A 
ATOM     26  N   UNL     1      50.158   4.791  19.655  0.00  0.00    +0.000 NA
ATOM     27  C   UNL     1      49.466   5.870  19.246  0.00  0.00    +0.000 A 
ATOM     28  S   UNL     1      48.398   6.638  20.320  0.00  0.00    +0.000 S 
ATOM     29  C   UNL     1      47.956   7.783  19.142  0.00  0.00    +0.000 A 
ATOM     30  C   UNL     1      48.594   7.613  17.918  0.00  0.00    +0.000 A 
ATOM     31  C   UNL     1      49.521   6.482  17.997  0.00  0.00    +0.000 A 
BRANCH  23  33
ATOM     32  C   UNL     1      51.914   7.168  15.843  0.00  0.00    +0.000 C 
ATOM     33  O   UNL     1      50.700   6.420  15.880  0.00  0.00    +0.000 OA
ENDBRANCH  23  33
ENDBRANCH  19  30
ENDBRANCH  18  21
ENDBRANCH   1  18
TORSDOF 8
ENDMDL
MODEL 6
REMARK VINA RESULT:    -6.882      2.610      3.343
REMARK INTER + INTRA:         -11.516
REMARK INTER:                 -10.503
REMARK INTRA:                  -1.012
REMARK UNBOUND:                -1.415
REMARK  Name = 
REMARK  10 active torsions:
REMARK  status: ('A' for Active; 'I' for Inactive)
REMARK    1  A    between atoms: C_1  and  O_2
REMARK    2  A    between atoms: O_2  and  C_3
REMARK    3  A    between atoms: C_10  and  C_11
REMARK    4  A    between atoms: N_13  and  C_14
REMARK    5  A    between atoms: C_14  and  C_15
REMARK    6  A    between atoms: C_18  and  N_19
REMARK    7  A    between atoms: N_19  and  C_20
REMARK    8  A    between atoms: C_20  and  C_21
REMARK    9  A    between atoms: C_21  and  C_22
REMARK   10  A    between atoms: C_26  and  C_27
REMARK                            x       y       z     vdW  Elec       q    Type
REMARK                         _______ _______ _______ _____ _____    ______ ____
ROOT
ATOM      1  C   UNL     1      46.548   5.280  13.264  0.00  0.00    +0.000 A 
ATOM      2  C   UNL     1      46.751   6.061  12.122  0.00  0.00    +0.000 A 
ATOM      3  C   UNL     1      45.824   6.046  11.072  0.00  0.00    +0.000 A 
ATOM      4  C   UNL     1      44.681   5.239  11.124  0.00  0.00    +0.000 A 
ATOM      5  C   UNL     1      44.439   4.530  12.304  0.00  0.00    +0.000 A 
ATOM      6  C   UNL     1      45.363   4.539  13.358  0.00  0.00    +0.000 A 
ENDROOT
BRANCH   4   7
ATOM      7  N   UNL     1      43.777   5.100  10.062  0.00  0.00    +0.000 N 
ATOM      8  H   UNL     1      43.335   5.992   9.828  0.00  0.00    +0.000 HD
BRANCH   7   9
ATOM      9  C   UNL     1      44.229   4.353   8.880  0.00  0.00    +0.000 C 
BRANCH   9  10
ATOM     10  C   UNL     1      44.575   2.901   9.251  0.00  0.00    +0.000 C 
BRANCH  10  11
ATOM     11  C   UNL     1      45.548   2.274   8.288  0.00  0.00    +0.000 A 
ATOM     12  C   UNL     1      45.967   0.955   8.457  0.00  0.00    +0.000 A 
ATOM     13  C   UNL     1      46.851   0.417   7.537  0.00  0.00    +0.000 A 
ATOM     14  N   UNL     1      47.341   1.097   6.477  0.00  0.00    +0.000 NA
ATOM     15  C   UNL     1      46.938   2.379   6.325  0.00  0.00    +0.000 A 
ATOM     16  C   UNL     1      47.497   3.137   5.157  0.00  0.00    +0.000 C 
ATOM     17  C   UNL     1      46.046   2.996   7.198  0.00  0.00    +0.000 A 
ENDBRANCH  10  11
ENDBRANCH   9  10
ENDBRANCH   7   9
ENDBRANCH   4   7
BRANCH   1  18
ATOM     18  C   UNL     1      47.588   5.231  14.356  0.00  0.00    +0.000 C 
BRANCH  18  21
ATOM     19  C   UNL     1      48.822   6.946  15.637  0.00  0.00    +0.000 C 
ATOM     20  O   UNL     1      49.876   6.303  15.560  0.00  0.00    +0.000 OA
ATOM     21  N   UNL     1      47.666   6.482  15.071  0.00  0.00    +0.000 N 
ATOM     22  H   UNL     1      46.793   6.952  15.271  0.00  0.00    +0.000 HD
BRANCH  19  30
ATOM     23  C   UNL     1      47.760   7.913  18.763  0.00  0.00    +0.000 A 
ATOM     24  N   UNL     1      47.335   8.564  19.864  0.00  0.00    +0.000 NA
ATOM     25  C   UNL     1      47.452   9.889  19.902  0.00  0.00    +0.000 A 
ATOM     26  N   UNL     1      47.950  10.670  18.951  0.00  0.00    +0.000 NA
ATOM     27  C   UNL     1      48.341   9.988  17.860  0.00  0.00    +0.000 A 
ATOM     28  S   UNL     1      49.021  10.822  16.546  0.00  0.00    +0.000 S 
ATOM     29  C   UNL     1      49.209   9.381  15.662  0.00  0.00    +0.000 A 
ATOM     30  C   UNL     1      48.764   8.245  16.328  0.00  0.00    +0.000 A 
ATOM     31  C   UNL     1      48.273   8.611  17.658  0.00  0.00    +0.000 A 
BRANCH  23  33
ATOM     32  C   UNL     1      48.943   5.946  19.205  0.00  0.00    +0.000 C 
ATOM     33  O   UNL     1      47.717   6.534  18.775  0.00  0.00    +0.000 OA
ENDBRANCH  23  33
ENDBRANCH  19  30
ENDBRANCH  18  21
ENDBRANCH   1  18
TORSDOF 8
ENDMDL
MODEL 7
REMARK VINA RESULT:    -6.705      3.882      8.766
REMARK INTER + INTRA:         -11.256
REMARK INTER:                  -9.702
REMARK INTRA:                  -1.554
REMARK UNBOUND:                -1.415
REMARK  Name = 
REMARK  10 active torsions:
REMARK  status: ('A' for Active; 'I' for Inactive)
REMARK    1  A    between atoms: C_1  and  O_2
REMARK    2  A    between atoms: O_2  and  C_3
REMARK    3  A    between atoms: C_10  and  C_11
REMARK    4  A    between atoms: N_13  and  C_14
REMARK    5  A    between atoms: C_14  and  C_15
REMARK    6  A    between atoms: C_18  and  N_19
REMARK    7  A    between atoms: N_19  and  C_20
REMARK    8  A    between atoms: C_20  and  C_21
REMARK    9  A    between atoms: C_21  and  C_22
REMARK   10  A    between atoms: C_26  and  C_27
REMARK                            x       y       z     vdW  Elec       q    Type
REMARK                         _______ _______ _______ _____ _____    ______ ____
ROOT
ATOM      1  C   UNL     1      48.656   3.268  17.207  0.00  0.00    +0.000 A 
ATOM      2  C   UNL     1      49.479   2.175  16.916  0.00  0.00    +0.000 A 
ATOM      3  C   UNL     1      50.846   2.210  17.218  0.00  0.00    +0.000 A 
ATOM      4  C   UNL     1      51.432   3.341  17.801  0.00  0.00    +0.000 A 
ATOM      5  C   UNL     1      50.590   4.393  18.169  0.00  0.00    +0.000 A 
ATOM      6  C   UNL     1      49.221   4.366  17.868  0.00  0.00    +0.000 A 
ENDROOT
BRANCH   4   7
ATOM      7  N   UNL     1      52.809   3.475  18.025  0.00  0.00    +0.000 N 
ATOM      8  H   UNL     1      53.353   2.914  17.365  0.00  0.00    +0.000 HD
BRANCH   7   9
ATOM      9  C   UNL     1      53.339   4.834  18.198  0.00  0.00    +0.000 C 
BRANCH   9  10
ATOM     10  C   UNL     1      54.270   5.211  17.032  0.00  0.00    +0.000 C 
BRANCH  10  11
ATOM     11  C   UNL     1      53.674   6.261  16.132  0.00  0.00    +0.000 A 
ATOM     12  C   UNL     1      54.438   6.856  15.129  0.00  0.00    +0.000 A 
ATOM     13  C   UNL     1      53.841   7.804  14.315  0.00  0.00    +0.000 A 
ATOM     14  N   UNL     1      52.553   8.196  14.436  0.00  0.00    +0.000 NA
ATOM     15  C   UNL     1      51.821   7.622  15.416  0.00  0.00    +0.000 A 
ATOM     16  C   UNL     1      50.396   8.071  15.558  0.00  0.00    +0.000 C 
ATOM     17  C   UNL     1      52.338   6.654  16.274  0.00  0.00    +0.000 A 
ENDBRANCH  10  11
ENDBRANCH   9  10
ENDBRANCH   7   9
ENDBRANCH   4   7
BRANCH   1  18
ATOM     18  C   UNL     1      47.202   3.263  16.804  0.00  0.00    +0.000 C 
BRANCH  18  21
ATOM     19  C   UNL     1      46.936   4.210  14.537  0.00  0.00    +0.000 C 
ATOM     20  O   UNL     1      47.238   3.133  14.009  0.00  0.00    +0.000 OA
ATOM     21  N   UNL     1      46.898   4.344  15.899  0.00  0.00    +0.000 N 
ATOM     22  H   UNL     1      46.792   5.265  16.303  0.00  0.00    +0.000 HD
BRANCH  19  30
ATOM     23  C   UNL     1      44.166   5.084  12.694  0.00  0.00    +0.000 A 
ATOM     24  N   UNL     1      43.269   5.623  11.844  0.00  0.00    +0.000 NA
ATOM     25  C   UNL     1      43.559   6.786  11.267  0.00  0.00    +0.000 A 
ATOM     26  N   UNL     1      44.667   7.500  11.433  0.00  0.00    +0.000 NA
ATOM     27  C   UNL     1      45.548   6.920  12.268  0.00  0.00    +0.000 A 
ATOM     28  S   UNL     1      47.017   7.699  12.612  0.00  0.00    +0.000 S 
ATOM     29  C   UNL     1      47.512   6.429  13.630  0.00  0.00    +0.000 A 
ATOM     30  C   UNL     1      46.591   5.391  13.730  0.00  0.00    +0.000 A 
ATOM     31  C   UNL     1      45.402   5.706  12.936  0.00  0.00    +0.000 A 
BRANCH  23  33
ATOM     32  C   UNL     1      43.622   2.822  12.471  0.00  0.00    +0.000 C 
ATOM     33  O   UNL     1      43.812   3.926  13.354  0.00  0.00    +0.000 OA
ENDBRANCH  23  33
ENDBRANCH  19  30
ENDBRANCH  18  21
ENDBRANCH   1  18
TORSDOF 8
ENDMDL
MODEL 8
REMARK VINA RESULT:    -6.649      4.846      9.523
REMARK INTER + INTRA:         -11.174
REMARK INTER:                 -10.162
REMARK INTRA:                  -1.012
REMARK UNBOUND:                -1.415
REMARK  Name = 
REMARK  10 active torsions:
REMARK  status: ('A' for Active; 'I' for Inactive)
REMARK    1  A    between atoms: C_1  and  O_2
REMARK    2  A    between atoms: O_2  and  C_3
REMARK    3  A    between atoms: C_10  and  C_11
REMARK    4  A    between atoms: N_13  and  C_14
REMARK    5  A    between atoms: C_14  and  C_15
REMARK    6  A    between atoms: C_18  and  N_19
REMARK    7  A    between atoms: N_19  and  C_20
REMARK    8  A    between atoms: C_20  and  C_21
REMARK    9  A    between atoms: C_21  and  C_22
REMARK   10  A    between atoms: C_26  and  C_27
REMARK                            x       y       z     vdW  Elec       q    Type
REMARK                         _______ _______ _______ _____ _____    ______ ____
ROOT
ATOM      1  C   UNL     1      48.823   3.374  17.055  0.00  0.00    +0.000 A 
ATOM      2  C   UNL     1      49.503   4.550  17.388  0.00  0.00    +0.000 A 
ATOM      3  C   UNL     1      50.864   4.521  17.715  0.00  0.00    +0.000 A 
ATOM      4  C   UNL     1      51.580   3.317  17.735  0.00  0.00    +0.000 A 
ATOM      5  C   UNL     1      50.918   2.160  17.316  0.00  0.00    +0.000 A 
ATOM      6  C   UNL     1      49.555   2.182  16.989  0.00  0.00    +0.000 A 
ENDROOT
BRANCH   4   7
ATOM      7  N   UNL     1      52.912   3.212  18.158  0.00  0.00    +0.000 N 
ATOM      8  H   UNL     1      53.120   3.874  18.908  0.00  0.00    +0.000 HD
BRANCH   7   9
ATOM      9  C   UNL     1      53.437   1.864  18.417  0.00  0.00    +0.000 C 
BRANCH   9  10
ATOM     10  C   UNL     1      54.438   1.448  17.326  0.00  0.00    +0.000 C 
BRANCH  10  11
ATOM     11  C   UNL     1      54.624  -0.045  17.250  0.00  0.00    +0.000 A 
ATOM     12  C   UNL     1      55.126  -0.642  16.095  0.00  0.00    +0.000 A 
ATOM     13  C   UNL     1      55.296  -2.016  16.078  0.00  0.00    +0.000 A 
ATOM     14  N   UNL     1      54.998  -2.823  17.120  0.00  0.00    +0.000 NA
ATOM     15  C   UNL     1      54.502  -2.239  18.234  0.00  0.00    +0.000 A 
ATOM     16  C   UNL     1      54.157  -3.140  19.383  0.00  0.00    +0.000 C 
ATOM     17  C   UNL     1      54.308  -0.864  18.340  0.00  0.00    +0.000 A 
ENDBRANCH  10  11
ENDBRANCH   9  10
ENDBRANCH   7   9
ENDBRANCH   4   7
BRANCH   1  18
ATOM     18  C   UNL     1      47.339   3.394  16.786  0.00  0.00    +0.000 C 
BRANCH  18  21
ATOM     19  C   UNL     1      46.949   4.280  14.513  0.00  0.00    +0.000 C 
ATOM     20  O   UNL     1      47.234   3.193  13.997  0.00  0.00    +0.000 OA
ATOM     21  N   UNL     1      46.979   4.449  15.871  0.00  0.00    +0.000 N 
ATOM     22  H   UNL     1      46.885   5.380  16.256  0.00  0.00    +0.000 HD
BRANCH  19  30
ATOM     23  C   UNL     1      44.147   5.011  12.657  0.00  0.00    +0.000 A 
ATOM     24  N   UNL     1      43.228   5.501  11.800  0.00  0.00    +0.000 NA
ATOM     25  C   UNL     1      43.467   6.671  11.214  0.00  0.00    +0.000 A 
ATOM     26  N   UNL     1      44.540   7.436  11.375  0.00  0.00    +0.000 NA
ATOM     27  C   UNL     1      45.444   6.904  12.217  0.00  0.00    +0.000 A 
ATOM     28  S   UNL     1      46.875   7.753  12.558  0.00  0.00    +0.000 S 
ATOM     29  C   UNL     1      47.425   6.516  13.587  0.00  0.00    +0.000 A 
ATOM     30  C   UNL     1      46.553   5.438  13.695  0.00  0.00    +0.000 A 
ATOM     31  C   UNL     1      45.353   5.691  12.895  0.00  0.00    +0.000 A 
BRANCH  23  33
ATOM     32  C   UNL     1      43.659   2.735  12.448  0.00  0.00    +0.000 C 
ATOM     33  O   UNL     1      43.845   3.844  13.326  0.00  0.00    +0.000 OA
ENDBRANCH  23  33
ENDBRANCH  19  30
ENDBRANCH  18  21
ENDBRANCH   1  18
TORSDOF 8
ENDMDL
MODEL 9
REMARK VINA RESULT:    -6.609      2.010      2.701
REMARK INTER + INTRA:         -11.116
REMARK INTER:                 -10.070
REMARK INTRA:                  -1.046
REMARK UNBOUND:                -1.415
REMARK  Name = 
REMARK  10 active torsions:
REMARK  status: ('A' for Active; 'I' for Inactive)
REMARK    1  A    between atoms: C_1  and  O_2
REMARK    2  A    between atoms: O_2  and  C_3
REMARK    3  A    between atoms: C_10  and  C_11
REMARK    4  A    between atoms: N_13  and  C_14
REMARK    5  A    between atoms: C_14  and  C_15
REMARK    6  A    between atoms: C_18  and  N_19
REMARK    7  A    between atoms: N_19  and  C_20
REMARK    8  A    between atoms: C_20  and  C_21
REMARK    9  A    between atoms: C_21  and  C_22
REMARK   10  A    between atoms: C_26  and  C_27
REMARK                            x       y       z     vdW  Elec       q    Type
REMARK                         _______ _______ _______ _____ _____    ______ ____
ROOT
ATOM      1  C   UNL     1      48.248   7.852  14.418  0.00  0.00    +0.000 A 
ATOM      2  C   UNL     1      48.644   6.731  13.682  0.00  0.00    +0.000 A 
ATOM      3  C   UNL     1      47.878   6.279  12.600  0.00  0.00    +0.000 A 
ATOM      4  C   UNL     1      46.688   6.921  12.235  0.00  0.00    +0.000 A 
ATOM      5  C   UNL     1      46.345   8.091  12.917  0.00  0.00    +0.000 A 
ATOM      6  C   UNL     1      47.106   8.549  14.002  0.00  0.00    +0.000 A 
ENDROOT
BRANCH   4   7
ATOM      7  N   UNL     1      45.827   6.451  11.234  0.00  0.00    +0.000 N 
ATOM      8  H   UNL     1      46.347   6.077  10.437  0.00  0.00    +0.000 HD
BRANCH   7   9
ATOM      9  C   UNL     1      44.710   5.591  11.649  0.00  0.00    +0.000 C 
BRANCH   9  10
ATOM     10  C   UNL     1      43.861   5.174  10.436  0.00  0.00    +0.000 C 
BRANCH  10  11
ATOM     11  C   UNL     1      44.489   4.057   9.645  0.00  0.00    +0.000 A 
ATOM     12  C   UNL     1      44.266   2.726   9.993  0.00  0.00    +0.000 A 
ATOM     13  C   UNL     1      44.851   1.733   9.226  0.00  0.00    +0.000 A 
ATOM     14  N   UNL     1      45.637   1.975   8.154  0.00  0.00    +0.000 NA
ATOM     15  C   UNL     1      45.857   3.268   7.828  0.00  0.00    +0.000 A 
ATOM     16  C   UNL     1      46.743   3.534   6.646  0.00  0.00    +0.000 C 
ATOM     17  C   UNL     1      45.301   4.329   8.538  0.00  0.00    +0.000 A 
ENDBRANCH  10  11
ENDBRANCH   9  10
ENDBRANCH   7   9
ENDBRANCH   4   7
BRANCH   1  18
ATOM     18  C   UNL     1      49.027   8.287  15.635  0.00  0.00    +0.000 C 
BRANCH  18  21
ATOM     19  C   UNL     1      49.737   6.439  17.112  0.00  0.00    +0.000 C 
ATOM     20  O   UNL     1      48.694   6.512  17.772  0.00  0.00    +0.000 OA
ATOM     21  N   UNL     1      49.966   7.275  16.053  0.00  0.00    +0.000 N 
ATOM     22  H   UNL     1      50.882   7.293  15.624  0.00  0.00    +0.000 HD
BRANCH  19  30
ATOM     23  C   UNL     1      49.848   3.006  16.919  0.00  0.00    +0.000 A 
ATOM     24  N   UNL     1      50.124   1.691  17.030  0.00  0.00    +0.000 NA
ATOM     25  C   UNL     1      51.307   1.330  17.520  0.00  0.00    +0.000 A 
ATOM     26  N   UNL     1      52.278   2.139  17.929  0.00  0.00    +0.000 NA
ATOM     27  C   UNL     1      51.957   3.441  17.826  0.00  0.00    +0.000 A 
ATOM     28  S   UNL     1      53.085   4.623  18.287  0.00  0.00    +0.000 S 
ATOM     29  C   UNL     1      52.005   5.879  17.901  0.00  0.00    +0.000 A 
ATOM     30  C   UNL     1      50.775   5.442  17.424  0.00  0.00    +0.000 A 
ATOM     31  C   UNL     1      50.763   3.980  17.351  0.00  0.00    +0.000 A 
BRANCH  23  33
ATOM     32  C   UNL     1      47.541   3.247  17.208  0.00  0.00    +0.000 C 
ATOM     33  O   UNL     1      48.656   3.365  16.326  0.00  0.00    +0.000 OA
ENDBRANCH  23  33
ENDBRANCH  19  30
ENDBRANCH  18  21
ENDBRANCH   1  18
TORSDOF 8
ENDMDL
