MODEL 1
REMARK VINA RESULT:    -7.861      0.000      0.000
REMARK INTER + INTRA:         -11.906
REMARK INTER:                 -10.849
REMARK INTRA:                  -1.058
REMARK UNBOUND:                -1.058
REMARK  Name = 
REMARK  8 active torsions:
REMARK  status: ('A' for Active; 'I' for Inactive)
REMARK    1  A    between atoms: C_1  and  C_2
REMARK    2  A    between atoms: C_2  and  C_3
REMARK    3  A    between atoms: C_7  and  C_8
REMARK    4  A    between atoms: C_8  and  C_9
REMARK    5  A    between atoms: C_9  and  N_10
REMARK    6  A    between atoms: N_10  and  C_11
REMARK    7  A    between atoms: C_14  and  C_15
REMARK    8  A    between atoms: C_23  and  O_24
REMARK                            x       y       z     vdW  Elec       q    Type
REMARK                         _______ _______ _______ _____ _____    ______ ____
ROOT
ATOM      1  C   UNL     1      46.993   6.360  13.017  0.00  0.00    +0.000 A 
ATOM      2  C   UNL     1      47.520   5.205  13.613  0.00  0.00    +0.000 A 
ATOM      3  C   UNL     1      46.747   4.049  13.749  0.00  0.00    +0.000 A 
ATOM      4  C   UNL     1      45.419   4.025  13.316  0.00  0.00    +0.000 A 
ATOM      5  C   UNL     1      44.859   5.156  12.721  0.00  0.00    +0.000 A 
ATOM      6  C   UNL     1      45.679   6.286  12.547  0.00  0.00    +0.000 A 
ENDROOT
BRANCH   1   8
ATOM      7  C   UNL     1      46.731   8.819  12.990  0.00  0.00    +0.000 C 
ATOM      8  C   UNL     1      47.785   7.685  12.990  0.00  0.00    +0.000 C 
ATOM      9  C   UNL     1      48.697   7.777  14.239  0.00  0.00    +0.000 C 
ATOM     10  C   UNL     1      49.612   9.007  14.247  0.00  0.00    +0.000 C 
ATOM     11  C   UNL     1      50.441   9.144  12.973  0.00  0.00    +0.000 C 
ATOM     12  C   UNL     1      49.574   9.078  11.721  0.00  0.00    +0.000 C 
ATOM     13  C   UNL     1      48.676   7.841  11.716  0.00  0.00    +0.000 C 
BRANCH  11  14
ATOM     14  O   UNL     1      51.442   8.128  12.924  0.00  0.00    +0.000 OA
ATOM     15  H   UNL     1      52.286   8.522  12.653  0.00  0.00    +0.000 HD
ENDBRANCH  11  14
ENDBRANCH   1   8
BRANCH   5  16
ATOM     16  C   UNL     1      43.383   5.180  12.348  0.00  0.00    +0.000 C 
BRANCH  16  17
ATOM     17  C   UNL     1      43.078   4.363  11.087  0.00  0.00    +0.000 C 
BRANCH  17  18
ATOM     18  N   UNL     1      43.675   4.897   9.864  0.00  0.00    +0.000 N 
ATOM     19  H   UNL     1      44.098   5.814  10.013  0.00  0.00    +0.000 HD
BRANCH  18  20
ATOM     20  C   UNL     1      44.586   4.005   9.258  0.00  0.00    +0.000 A 
ATOM     21  C   UNL     1      44.545   2.619   9.384  0.00  0.00    +0.000 A 
ATOM     22  N   UNL     1      45.382   1.752   8.781  0.00  0.00    +0.000 NA
ATOM     23  C   UNL     1      46.294   2.318   7.962  0.00  0.00    +0.000 A 
ATOM     24  N   UNL     1      46.415   3.634   7.708  0.00  0.00    +0.000 NA
ATOM     25  C   UNL     1      45.541   4.438   8.352  0.00  0.00    +0.000 A 
BRANCH  23  26
ATOM     26  C   UNL     1      47.241   1.364   7.274  0.00  0.00    +0.000 C 
ATOM     27  N   UNL     1      48.278   1.957   6.584  0.00  0.00    +0.000 N 
ATOM     28  O   UNL     1      47.124   0.146   7.296  0.00  0.00    +0.000 OA
ATOM     29  H   UNL     1      48.378   2.959   6.584  0.00  0.00    +0.000 HD
ATOM     30  H   UNL     1      48.957   1.373   6.117  0.00  0.00    +0.000 HD
ENDBRANCH  23  26
ENDBRANCH  18  20
ENDBRANCH  17  18
ENDBRANCH  16  17
ENDBRANCH   5  16
TORSDOF 7
ENDMDL
MODEL 2
REMARK VINA RESULT:    -7.604      1.233      2.046
REMARK INTER + INTRA:         -11.552
REMARK INTER:                 -10.698
REMARK INTRA:                  -0.853
REMARK UNBOUND:                -1.058
REMARK  Name = 
REMARK  8 active torsions:
REMARK  status: ('A' for Active; 'I' for Inactive)
REMARK    1  A    between atoms: C_1  and  C_2
REMARK    2  A    between atoms: C_2  and  C_3
REMARK    3  A    between atoms: C_7  and  C_8
REMARK    4  A    between atoms: C_8  and  C_9
REMARK    5  A    between atoms: C_9  and  N_10
REMARK    6  A    between atoms: N_10  and  C_11
REMARK    7  A    between atoms: C_14  and  C_15
REMARK    8  A    between atoms: C_23  and  O_24
REMARK                            x       y       z     vdW  Elec       q    Type
REMARK                         _______ _______ _______ _____ _____    ______ ____
ROOT
ATOM      1  C   UNL     1      48.717   7.276  12.462  0.00  0.00    +0.000 A 
ATOM      2  C   UNL     1      48.675   6.593  13.687  0.00  0.00    +0.000 A 
ATOM      3  C   UNL     1      47.550   5.856  14.062  0.00  0.00    +0.000 A 
ATOM      4  C   UNL     1      46.426   5.802  13.235  0.00  0.00    +0.000 A 
ATOM      5  C   UNL     1      46.428   6.470  12.010  0.00  0.00    +0.000 A 
ATOM      6  C   UNL     1      47.597   7.158  11.635  0.00  0.00    +0.000 A 
ENDROOT
BRANCH   1   8
ATOM      7  C   UNL     1      49.258   9.522  11.580  0.00  0.00    +0.000 C 
ATOM      8  C   UNL     1      49.892   8.209  12.099  0.00  0.00    +0.000 C 
ATOM      9  C   UNL     1      50.761   8.472  13.355  0.00  0.00    +0.000 C 
ATOM     10  C   UNL     1      52.021   9.298  13.072  0.00  0.00    +0.000 C 
ATOM     11  C   UNL     1      52.876   8.719  11.948  0.00  0.00    +0.000 C 
ATOM     12  C   UNL     1      52.058   8.465  10.687  0.00  0.00    +0.000 C 
ATOM     13  C   UNL     1      50.811   7.629  10.976  0.00  0.00    +0.000 C 
BRANCH  11  14
ATOM     14  O   UNL     1      53.499   7.508  12.374  0.00  0.00    +0.000 OA
ATOM     15  H   UNL     1      52.843   6.794  12.377  0.00  0.00    +0.000 HD
ENDBRANCH  11  14
ENDBRANCH   1   8
BRANCH   5  16
ATOM     16  C   UNL     1      45.171   6.512  11.151  0.00  0.00    +0.000 C 
BRANCH  16  17
ATOM     17  C   UNL     1      44.356   5.216  11.232  0.00  0.00    +0.000 C 
BRANCH  17  18
ATOM     18  N   UNL     1      43.776   4.790   9.960  0.00  0.00    +0.000 N 
ATOM     19  H   UNL     1      43.457   5.581   9.400  0.00  0.00    +0.000 HD
BRANCH  18  20
ATOM     20  C   UNL     1      44.630   3.947   9.216  0.00  0.00    +0.000 A 
ATOM     21  C   UNL     1      45.600   4.389   8.320  0.00  0.00    +0.000 A 
ATOM     22  N   UNL     1      46.448   3.600   7.633  0.00  0.00    +0.000 NA
ATOM     23  C   UNL     1      46.341   2.281   7.898  0.00  0.00    +0.000 A 
ATOM     24  N   UNL     1      45.486   1.720   8.774  0.00  0.00    +0.000 NA
ATOM     25  C   UNL     1      44.667   2.577   9.423  0.00  0.00    +0.000 A 
BRANCH  23  26
ATOM     26  C   UNL     1      47.285   1.378   7.139  0.00  0.00    +0.000 C 
ATOM     27  N   UNL     1      48.385   2.003   6.590  0.00  0.00    +0.000 N 
ATOM     28  O   UNL     1      47.113   0.175   6.992  0.00  0.00    +0.000 OA
ATOM     29  H   UNL     1      48.529   2.990   6.730  0.00  0.00    +0.000 HD
ATOM     30  H   UNL     1      49.064   1.451   6.086  0.00  0.00    +0.000 HD
ENDBRANCH  23  26
ENDBRANCH  18  20
ENDBRANCH  17  18
ENDBRANCH  16  17
ENDBRANCH   5  16
TORSDOF 7
ENDMDL
MODEL 3
REMARK VINA RESULT:    -7.511      1.412      2.296
REMARK INTER + INTRA:         -11.423
REMARK INTER:                 -10.646
REMARK INTRA:                  -0.777
REMARK UNBOUND:                -1.058
REMARK  Name = 
REMARK  8 active torsions:
REMARK  status: ('A' for Active; 'I' for Inactive)
REMARK    1  A    between atoms: C_1  and  C_2
REMARK    2  A    between atoms: C_2  and  C_3
REMARK    3  A    between atoms: C_7  and  C_8
REMARK    4  A    between atoms: C_8  and  C_9
REMARK    5  A    between atoms: C_9  and  N_10
REMARK    6  A    between atoms: N_10  and  C_11
REMARK    7  A    between atoms: C_14  and  C_15
REMARK    8  A    between atoms: C_23  and  O_24
REMARK                            x       y       z     vdW  Elec       q    Type
REMARK                         _______ _______ _______ _____ _____    ______ ____
ROOT
ATOM      1  C   UNL     1      47.596   8.652  12.131  0.00  0.00    +0.000 A 
ATOM      2  C   UNL     1      46.542   9.575  12.193  0.00  0.00    +0.000 A 
ATOM      3  C   UNL     1      45.213   9.158  12.089  0.00  0.00    +0.000 A 
ATOM      4  C   UNL     1      44.904   7.810  11.895  0.00  0.00    +0.000 A 
ATOM      5  C   UNL     1      45.925   6.861  11.826  0.00  0.00    +0.000 A 
ATOM      6  C   UNL     1      47.250   7.305  11.990  0.00  0.00    +0.000 A 
ENDROOT
BRANCH   1   8
ATOM      7  C   UNL     1      49.129  10.311  11.124  0.00  0.00    +0.000 C 
ATOM      8  C   UNL     1      49.070   9.112  12.100  0.00  0.00    +0.000 C 
ATOM      9  C   UNL     1      49.518   9.533  13.522  0.00  0.00    +0.000 C 
ATOM     10  C   UNL     1      51.005   9.899  13.619  0.00  0.00    +0.000 C 
ATOM     11  C   UNL     1      51.925   8.810  13.073  0.00  0.00    +0.000 C 
ATOM     12  C   UNL     1      51.526   8.383  11.665  0.00  0.00    +0.000 C 
ATOM     13  C   UNL     1      50.047   8.007  11.582  0.00  0.00    +0.000 C 
BRANCH  11  14
ATOM     14  O   UNL     1      51.921   7.678  13.942  0.00  0.00    +0.000 OA
ATOM     15  H   UNL     1      52.471   7.869  14.717  0.00  0.00    +0.000 HD
ENDBRANCH  11  14
ENDBRANCH   1   8
BRANCH   5  16
ATOM     16  C   UNL     1      45.608   5.408  11.504  0.00  0.00    +0.000 C 
BRANCH  16  17
ATOM     17  C   UNL     1      44.119   5.176  11.219  0.00  0.00    +0.000 C 
BRANCH  17  18
ATOM     18  N   UNL     1      43.809   4.914   9.815  0.00  0.00    +0.000 N 
ATOM     19  H   UNL     1      43.790   5.770   9.261  0.00  0.00    +0.000 HD
BRANCH  18  20
ATOM     20  C   UNL     1      44.654   3.945   9.233  0.00  0.00    +0.000 A 
ATOM     21  C   UNL     1      44.585   2.577   9.483  0.00  0.00    +0.000 A 
ATOM     22  N   UNL     1      45.357   1.635   8.906  0.00  0.00    +0.000 NA
ATOM     23  C   UNL     1      46.228   2.100   7.984  0.00  0.00    +0.000 A 
ATOM     24  N   UNL     1      46.366   3.384   7.608  0.00  0.00    +0.000 NA
ATOM     25  C   UNL     1      45.558   4.268   8.233  0.00  0.00    +0.000 A 
BRANCH  23  26
ATOM     26  C   UNL     1      47.102   1.060   7.323  0.00  0.00    +0.000 C 
ATOM     27  N   UNL     1      46.811  -0.248   7.647  0.00  0.00    +0.000 N 
ATOM     28  O   UNL     1      48.020   1.323   6.557  0.00  0.00    +0.000 OA
ATOM     29  H   UNL     1      46.044  -0.458   8.265  0.00  0.00    +0.000 HD
ATOM     30  H   UNL     1      47.348  -0.992   7.224  0.00  0.00    +0.000 HD
ENDBRANCH  23  26
ENDBRANCH  18  20
ENDBRANCH  17  18
ENDBRANCH  16  17
ENDBRANCH   5  16
TORSDOF 7
ENDMDL
MODEL 4
REMARK VINA RESULT:    -7.363      2.744      3.901
REMARK INTER + INTRA:         -11.219
REMARK INTER:                 -10.392
REMARK INTRA:                  -0.827
REMARK UNBOUND:                -1.058
REMARK  Name = 
REMARK  8 active torsions:
REMARK  status: ('A' for Active; 'I' for Inactive)
REMARK    1  A    between atoms: C_1  and  C_2
REMARK    2  A    between atoms: C_2  and  C_3
REMARK    3  A    between atoms: C_7  and  C_8
REMARK    4  A    between atoms: C_8  and  C_9
REMARK    5  A    between atoms: C_9  and  N_10
REMARK    6  A    between atoms: N_10  and  C_11
REMARK    7  A    between atoms: C_14  and  C_15
REMARK    8  A    between atoms: C_23  and  O_24
REMARK                            x       y       z     vdW  Elec       q    Type
REMARK                         _______ _______ _______ _____ _____    ______ ____
ROOT
ATOM      1  C   UNL     1      47.663   5.371  15.149  0.00  0.00    +0.000 A 
ATOM      2  C   UNL     1      48.164   6.480  14.454  0.00  0.00    +0.000 A 
ATOM      3  C   UNL     1      47.702   6.796  13.174  0.00  0.00    +0.000 A 
ATOM      4  C   UNL     1      46.745   5.996  12.545  0.00  0.00    +0.000 A 
ATOM      5  C   UNL     1      46.224   4.882  13.204  0.00  0.00    +0.000 A 
ATOM      6  C   UNL     1      46.668   4.623  14.514  0.00  0.00    +0.000 A 
ENDROOT
BRANCH   1   8
ATOM      7  C   UNL     1      47.366   5.544  17.599  0.00  0.00    +0.000 C 
ATOM      8  C   UNL     1      48.265   4.927  16.500  0.00  0.00    +0.000 C 
ATOM      9  C   UNL     1      48.267   3.380  16.591  0.00  0.00    +0.000 C 
ATOM     10  C   UNL     1      48.952   2.836  17.850  0.00  0.00    +0.000 C 
ATOM     11  C   UNL     1      50.365   3.381  18.045  0.00  0.00    +0.000 C 
ATOM     12  C   UNL     1      50.399   4.903  17.981  0.00  0.00    +0.000 C 
ATOM     13  C   UNL     1      49.727   5.435  16.716  0.00  0.00    +0.000 C 
BRANCH  11  14
ATOM     14  O   UNL     1      51.245   2.833  17.064  0.00  0.00    +0.000 OA
ATOM     15  H   UNL     1      50.954   3.111  16.182  0.00  0.00    +0.000 HD
ENDBRANCH  11  14
ENDBRANCH   1   8
BRANCH   5  16
ATOM     16  C   UNL     1      45.266   3.941  12.489  0.00  0.00    +0.000 C 
BRANCH  16  17
ATOM     17  C   UNL     1      44.336   4.671  11.512  0.00  0.00    +0.000 C 
BRANCH  17  18
ATOM     18  N   UNL     1      43.732   3.810  10.498  0.00  0.00    +0.000 N 
ATOM     19  H   UNL     1      42.871   4.208  10.121  0.00  0.00    +0.000 HD
BRANCH  18  20
ATOM     20  C   UNL     1      44.628   3.458   9.466  0.00  0.00    +0.000 A 
ATOM     21  C   UNL     1      45.236   4.362   8.598  0.00  0.00    +0.000 A 
ATOM     22  N   UNL     1      46.123   4.046   7.634  0.00  0.00    +0.000 NA
ATOM     23  C   UNL     1      46.452   2.738   7.568  0.00  0.00    +0.000 A 
ATOM     24  N   UNL     1      45.982   1.767   8.373  0.00  0.00    +0.000 NA
ATOM     25  C   UNL     1      45.095   2.162   9.313  0.00  0.00    +0.000 A 
BRANCH  23  26
ATOM     26  C   UNL     1      47.446   2.363   6.495  0.00  0.00    +0.000 C 
ATOM     27  N   UNL     1      47.423   3.154   5.366  0.00  0.00    +0.000 N 
ATOM     28  O   UNL     1      48.226   1.423   6.582  0.00  0.00    +0.000 OA
ATOM     29  H   UNL     1      46.790   3.936   5.309  0.00  0.00    +0.000 HD
ATOM     30  H   UNL     1      48.076   2.967   4.619  0.00  0.00    +0.000 HD
ENDBRANCH  23  26
ENDBRANCH  18  20
ENDBRANCH  17  18
ENDBRANCH  16  17
ENDBRANCH   5  16
TORSDOF 7
ENDMDL
MODEL 5
REMARK VINA RESULT:    -7.309      1.386      2.319
REMARK INTER + INTRA:         -11.145
REMARK INTER:                 -10.248
REMARK INTRA:                  -0.897
REMARK UNBOUND:                -1.058
REMARK  Name = 
REMARK  8 active torsions:
REMARK  status: ('A' for Active; 'I' for Inactive)
REMARK    1  A    between atoms: C_1  and  C_2
REMARK    2  A    between atoms: C_2  and  C_3
REMARK    3  A    between atoms: C_7  and  C_8
REMARK    4  A    between atoms: C_8  and  C_9
REMARK    5  A    between atoms: C_9  and  N_10
REMARK    6  A    between atoms: N_10  and  C_11
REMARK    7  A    between atoms: C_14  and  C_15
REMARK    8  A    between atoms: C_23  and  O_24
REMARK                            x       y       z     vdW  Elec       q    Type
REMARK                         _______ _______ _______ _____ _____    ______ ____
ROOT
ATOM      1  C   UNL     1      46.044   7.085  12.586  0.00  0.00    +0.000 A 
ATOM      2  C   UNL     1      45.274   7.904  11.747  0.00  0.00    +0.000 A 
ATOM      3  C   UNL     1      44.008   7.503  11.315  0.00  0.00    +0.000 A 
ATOM      4  C   UNL     1      43.489   6.261  11.690  0.00  0.00    +0.000 A 
ATOM      5  C   UNL     1      44.226   5.418  12.522  0.00  0.00    +0.000 A 
ATOM      6  C   UNL     1      45.474   5.874  12.985  0.00  0.00    +0.000 A 
ENDROOT
BRANCH   1   8
ATOM      7  C   UNL     1      47.959   6.402  13.996  0.00  0.00    +0.000 C 
ATOM      8  C   UNL     1      47.499   7.450  12.953  0.00  0.00    +0.000 C 
ATOM      9  C   UNL     1      48.389   7.397  11.685  0.00  0.00    +0.000 C 
ATOM     10  C   UNL     1      49.833   7.855  11.924  0.00  0.00    +0.000 C 
ATOM     11  C   UNL     1      49.922   9.232  12.578  0.00  0.00    +0.000 C 
ATOM     12  C   UNL     1      49.074   9.316  13.842  0.00  0.00    +0.000 C 
ATOM     13  C   UNL     1      47.633   8.871  13.590  0.00  0.00    +0.000 C 
BRANCH  11  14
ATOM     14  O   UNL     1      49.522  10.244  11.656  0.00  0.00    +0.000 OA
ATOM     15  H   UNL     1      50.067  11.034  11.790  0.00  0.00    +0.000 HD
ENDBRANCH  11  14
ENDBRANCH   1   8
BRANCH   5  16
ATOM     16  C   UNL     1      43.721   4.019  12.846  0.00  0.00    +0.000 C 
BRANCH  16  17
ATOM     17  C   UNL     1      44.159   2.976  11.811  0.00  0.00    +0.000 C 
BRANCH  17  18
ATOM     18  N   UNL     1      43.607   3.186  10.475  0.00  0.00    +0.000 N 
ATOM     19  H   UNL     1      43.138   4.088  10.391  0.00  0.00    +0.000 HD
BRANCH  18  20
ATOM     20  C   UNL     1      44.560   3.007   9.448  0.00  0.00    +0.000 A 
ATOM     21  C   UNL     1      45.187   4.040   8.757  0.00  0.00    +0.000 A 
ATOM     22  N   UNL     1      46.126   3.887   7.803  0.00  0.00    +0.000 NA
ATOM     23  C   UNL     1      46.488   2.609   7.560  0.00  0.00    +0.000 A 
ATOM     24  N   UNL     1      46.004   1.521   8.186  0.00  0.00    +0.000 NA
ATOM     25  C   UNL     1      45.065   1.756   9.129  0.00  0.00    +0.000 A 
BRANCH  23  26
ATOM     26  C   UNL     1      47.542   2.415   6.495  0.00  0.00    +0.000 C 
ATOM     27  N   UNL     1      47.343   3.129   5.332  0.00  0.00    +0.000 N 
ATOM     28  O   UNL     1      48.511   1.677   6.616  0.00  0.00    +0.000 OA
ATOM     29  H   UNL     1      46.552   3.747   5.246  0.00  0.00    +0.000 HD
ATOM     30  H   UNL     1      48.022   3.057   4.588  0.00  0.00    +0.000 HD
ENDBRANCH  23  26
ENDBRANCH  18  20
ENDBRANCH  17  18
ENDBRANCH  16  17
ENDBRANCH   5  16
TORSDOF 7
ENDMDL
MODEL 6
REMARK VINA RESULT:    -7.170      1.720      2.604
REMARK INTER + INTRA:         -10.952
REMARK INTER:                 -10.035
REMARK INTRA:                  -0.917
REMARK UNBOUND:                -1.058
REMARK  Name = 
REMARK  8 active torsions:
REMARK  status: ('A' for Active; 'I' for Inactive)
REMARK    1  A    between atoms: C_1  and  C_2
REMARK    2  A    between atoms: C_2  and  C_3
REMARK    3  A    between atoms: C_7  and  C_8
REMARK    4  A    between atoms: C_8  and  C_9
REMARK    5  A    between atoms: C_9  and  N_10
REMARK    6  A    between atoms: N_10  and  C_11
REMARK    7  A    between atoms: C_14  and  C_15
REMARK    8  A    between atoms: C_23  and  O_24
REMARK                            x       y       z     vdW  Elec       q    Type
REMARK                         _______ _______ _______ _____ _____    ______ ____
ROOT
ATOM      1  C   UNL     1      46.059   8.811  12.163  0.00  0.00    +0.000 A 
ATOM      2  C   UNL     1      45.483   9.994  11.679  0.00  0.00    +0.000 A 
ATOM      3  C   UNL     1      44.201   9.995  11.123  0.00  0.00    +0.000 A 
ATOM      4  C   UNL     1      43.472   8.809  11.014  0.00  0.00    +0.000 A 
ATOM      5  C   UNL     1      44.013   7.611  11.482  0.00  0.00    +0.000 A 
ATOM      6  C   UNL     1      45.283   7.652  12.087  0.00  0.00    +0.000 A 
ENDROOT
BRANCH   1   8
ATOM      7  C   UNL     1      48.217  10.015  12.043  0.00  0.00    +0.000 C 
ATOM      8  C   UNL     1      47.526   8.768  12.645  0.00  0.00    +0.000 C 
ATOM      9  C   UNL     1      47.570   8.805  14.194  0.00  0.00    +0.000 C 
ATOM     10  C   UNL     1      48.980   8.651  14.776  0.00  0.00    +0.000 C 
ATOM     11  C   UNL     1      49.711   7.417  14.253  0.00  0.00    +0.000 C 
ATOM     12  C   UNL     1      49.705   7.357  12.730  0.00  0.00    +0.000 C 
ATOM     13  C   UNL     1      48.294   7.497  12.160  0.00  0.00    +0.000 C 
BRANCH  11  14
ATOM     14  O   UNL     1      49.124   6.231  14.788  0.00  0.00    +0.000 OA
ATOM     15  H   UNL     1      48.223   6.428  15.089  0.00  0.00    +0.000 HD
ENDBRANCH  11  14
ENDBRANCH   1   8
BRANCH   5  16
ATOM     16  C   UNL     1      43.277   6.296  11.268  0.00  0.00    +0.000 C 
BRANCH  16  17
ATOM     17  C   UNL     1      44.214   5.082  11.291  0.00  0.00    +0.000 C 
BRANCH  17  18
ATOM     18  N   UNL     1      43.755   3.952  10.487  0.00  0.00    +0.000 N 
ATOM     19  H   UNL     1      42.850   4.134  10.051  0.00  0.00    +0.000 HD
BRANCH  18  20
ATOM     20  C   UNL     1      44.706   3.526   9.535  0.00  0.00    +0.000 A 
ATOM     21  C   UNL     1      45.070   2.200   9.314  0.00  0.00    +0.000 A 
ATOM     22  N   UNL     1      45.946   1.774   8.383  0.00  0.00    +0.000 NA
ATOM     23  C   UNL     1      46.457   2.744   7.594  0.00  0.00    +0.000 A 
ATOM     24  N   UNL     1      46.156   4.054   7.663  0.00  0.00    +0.000 NA
ATOM     25  C   UNL     1      45.272   4.403   8.623  0.00  0.00    +0.000 A 
BRANCH  23  26
ATOM     26  C   UNL     1      47.440   2.288   6.543  0.00  0.00    +0.000 C 
ATOM     27  N   UNL     1      47.365   2.952   5.337  0.00  0.00    +0.000 N 
ATOM     28  O   UNL     1      48.254   1.389   6.710  0.00  0.00    +0.000 OA
ATOM     29  H   UNL     1      46.704   3.702   5.212  0.00  0.00    +0.000 HD
ATOM     30  H   UNL     1      48.007   2.706   4.598  0.00  0.00    +0.000 HD
ENDBRANCH  23  26
ENDBRANCH  18  20
ENDBRANCH  17  18
ENDBRANCH  16  17
ENDBRANCH   5  16
TORSDOF 7
ENDMDL
MODEL 7
REMARK VINA RESULT:    -7.118      3.678      7.587
REMARK INTER + INTRA:         -10.881
REMARK INTER:                 -10.060
REMARK INTRA:                  -0.821
REMARK UNBOUND:                -1.058
REMARK  Name = 
REMARK  8 active torsions:
REMARK  status: ('A' for Active; 'I' for Inactive)
REMARK    1  A    between atoms: C_1  and  C_2
REMARK    2  A    between atoms: C_2  and  C_3
REMARK    3  A    between atoms: C_7  and  C_8
REMARK    4  A    between atoms: C_8  and  C_9
REMARK    5  A    between atoms: C_9  and  N_10
REMARK    6  A    between atoms: N_10  and  C_11
REMARK    7  A    between atoms: C_14  and  C_15
REMARK    8  A    between atoms: C_23  and  O_24
REMARK                            x       y       z     vdW  Elec       q    Type
REMARK                         _______ _______ _______ _____ _____    ______ ____
ROOT
ATOM      1  C   UNL     1      45.184   3.767   9.469  0.00  0.00    +0.000 A 
ATOM      2  C   UNL     1      44.526   3.053  10.481  0.00  0.00    +0.000 A 
ATOM      3  C   UNL     1      44.323   3.616  11.743  0.00  0.00    +0.000 A 
ATOM      4  C   UNL     1      44.795   4.898  12.034  0.00  0.00    +0.000 A 
ATOM      5  C   UNL     1      45.456   5.639  11.054  0.00  0.00    +0.000 A 
ATOM      6  C   UNL     1      45.596   5.066   9.776  0.00  0.00    +0.000 A 
ENDROOT
BRANCH   1   8
ATOM      7  C   UNL     1      44.200   2.861   7.387  0.00  0.00    +0.000 C 
ATOM      8  C   UNL     1      45.542   3.106   8.120  0.00  0.00    +0.000 C 
ATOM      9  C   UNL     1      46.456   4.051   7.299  0.00  0.00    +0.000 C 
ATOM     10  C   UNL     1      46.961   3.436   5.988  0.00  0.00    +0.000 C 
ATOM     11  C   UNL     1      47.638   2.082   6.185  0.00  0.00    +0.000 C 
ATOM     12  C   UNL     1      46.758   1.117   6.972  0.00  0.00    +0.000 C 
ATOM     13  C   UNL     1      46.271   1.733   8.283  0.00  0.00    +0.000 C 
BRANCH  11  14
ATOM     14  O   UNL     1      48.891   2.246   6.846  0.00  0.00    +0.000 OA
ATOM     15  H   UNL     1      49.042   3.189   7.015  0.00  0.00    +0.000 HD
ENDBRANCH  11  14
ENDBRANCH   1   8
BRANCH   5  16
ATOM     16  C   UNL     1      46.072   6.990  11.390  0.00  0.00    +0.000 C 
BRANCH  16  17
ATOM     17  C   UNL     1      46.330   7.165  12.891  0.00  0.00    +0.000 C 
BRANCH  17  18
ATOM     18  N   UNL     1      47.719   6.954  13.292  0.00  0.00    +0.000 N 
ATOM     19  H   UNL     1      48.190   7.831  13.519  0.00  0.00    +0.000 HD
BRANCH  18  20
ATOM     20  C   UNL     1      47.858   6.014  14.336  0.00  0.00    +0.000 A 
ATOM     21  C   UNL     1      48.562   6.235  15.517  0.00  0.00    +0.000 A 
ATOM     22  N   UNL     1      48.671   5.363  16.538  0.00  0.00    +0.000 NA
ATOM     23  C   UNL     1      47.989   4.208  16.377  0.00  0.00    +0.000 A 
ATOM     24  N   UNL     1      47.231   3.883  15.313  0.00  0.00    +0.000 NA
ATOM     25  C   UNL     1      47.173   4.808  14.330  0.00  0.00    +0.000 A 
BRANCH  23  26
ATOM     26  C   UNL     1      48.097   3.217  17.511  0.00  0.00    +0.000 C 
ATOM     27  N   UNL     1      46.926   2.566  17.838  0.00  0.00    +0.000 N 
ATOM     28  O   UNL     1      49.129   2.989  18.127  0.00  0.00    +0.000 OA
ATOM     29  H   UNL     1      46.083   2.746  17.316  0.00  0.00    +0.000 HD
ATOM     30  H   UNL     1      46.934   1.877  18.576  0.00  0.00    +0.000 HD
ENDBRANCH  23  26
ENDBRANCH  18  20
ENDBRANCH  17  18
ENDBRANCH  16  17
ENDBRANCH   5  16
TORSDOF 7
ENDMDL
MODEL 8
REMARK VINA RESULT:    -7.075      4.448      7.630
REMARK INTER + INTRA:         -10.822
REMARK INTER:                  -9.527
REMARK INTRA:                  -1.295
REMARK UNBOUND:                -1.058
REMARK  Name = 
REMARK  8 active torsions:
REMARK  status: ('A' for Active; 'I' for Inactive)
REMARK    1  A    between atoms: C_1  and  C_2
REMARK    2  A    between atoms: C_2  and  C_3
REMARK    3  A    between atoms: C_7  and  C_8
REMARK    4  A    between atoms: C_8  and  C_9
REMARK    5  A    between atoms: C_9  and  N_10
REMARK    6  A    between atoms: N_10  and  C_11
REMARK    7  A    between atoms: C_14  and  C_15
REMARK    8  A    between atoms: C_23  and  O_24
REMARK                            x       y       z     vdW  Elec       q    Type
REMARK                         _______ _______ _______ _____ _____    ______ ____
ROOT
ATOM      1  C   UNL     1      45.951   7.145  11.687  0.00  0.00    +0.000 A 
ATOM      2  C   UNL     1      45.169   8.255  12.038  0.00  0.00    +0.000 A 
ATOM      3  C   UNL     1      45.760   9.454  12.440  0.00  0.00    +0.000 A 
ATOM      4  C   UNL     1      47.150   9.568  12.526  0.00  0.00    +0.000 A 
ATOM      5  C   UNL     1      47.962   8.485  12.189  0.00  0.00    +0.000 A 
ATOM      6  C   UNL     1      47.338   7.309  11.734  0.00  0.00    +0.000 A 
ENDROOT
BRANCH   1   8
ATOM      7  C   UNL     1      45.678   5.442   9.914  0.00  0.00    +0.000 C 
ATOM      8  C   UNL     1      45.312   5.773  11.381  0.00  0.00    +0.000 C 
ATOM      9  C   UNL     1      45.878   4.703  12.349  0.00  0.00    +0.000 C 
ATOM     10  C   UNL     1      45.220   3.326  12.201  0.00  0.00    +0.000 C 
ATOM     11  C   UNL     1      43.697   3.377  12.299  0.00  0.00    +0.000 C 
ATOM     12  C   UNL     1      43.102   4.407  11.346  0.00  0.00    +0.000 C 
ATOM     13  C   UNL     1      43.754   5.779  11.511  0.00  0.00    +0.000 C 
BRANCH  11  14
ATOM     14  O   UNL     1      43.299   3.667  13.638  0.00  0.00    +0.000 OA
ATOM     15  H   UNL     1      42.338   3.795  13.666  0.00  0.00    +0.000 HD
ENDBRANCH  11  14
ENDBRANCH   1   8
BRANCH   5  16
ATOM     16  C   UNL     1      49.470   8.560  12.385  0.00  0.00    +0.000 C 
BRANCH  16  17
ATOM     17  C   UNL     1      49.950   7.747  13.594  0.00  0.00    +0.000 C 
BRANCH  17  18
ATOM     18  N   UNL     1      49.272   8.074  14.847  0.00  0.00    +0.000 N 
ATOM     19  H   UNL     1      48.486   8.708  14.703  0.00  0.00    +0.000 HD
BRANCH  18  20
ATOM     20  C   UNL     1      48.883   6.932  15.579  0.00  0.00    +0.000 A 
ATOM     21  C   UNL     1      48.931   6.823  16.967  0.00  0.00    +0.000 A 
ATOM     22  N   UNL     1      48.527   5.756  17.683  0.00  0.00    +0.000 NA
ATOM     23  C   UNL     1      47.998   4.749  16.955  0.00  0.00    +0.000 A 
ATOM     24  N   UNL     1      47.843   4.740  15.618  0.00  0.00    +0.000 NA
ATOM     25  C   UNL     1      48.274   5.844  14.971  0.00  0.00    +0.000 A 
BRANCH  23  26
ATOM     26  C   UNL     1      47.536   3.543  17.739  0.00  0.00    +0.000 C 
ATOM     27  N   UNL     1      48.319   3.208  18.823  0.00  0.00    +0.000 N 
ATOM     28  O   UNL     1      46.547   2.880  17.457  0.00  0.00    +0.000 OA
ATOM     29  H   UNL     1      49.122   3.769  19.060  0.00  0.00    +0.000 HD
ATOM     30  H   UNL     1      48.054   2.423  19.400  0.00  0.00    +0.000 HD
ENDBRANCH  23  26
ENDBRANCH  18  20
ENDBRANCH  17  18
ENDBRANCH  16  17
ENDBRANCH   5  16
TORSDOF 7
ENDMDL
MODEL 9
REMARK VINA RESULT:    -6.893      2.319      3.470
REMARK INTER + INTRA:         -10.570
REMARK INTER:                  -9.676
REMARK INTRA:                  -0.894
REMARK UNBOUND:                -1.058
REMARK  Name = 
REMARK  8 active torsions:
REMARK  status: ('A' for Active; 'I' for Inactive)
REMARK    1  A    between atoms: C_1  and  C_2
REMARK    2  A    between atoms: C_2  and  C_3
REMARK    3  A    between atoms: C_7  and  C_8
REMARK    4  A    between atoms: C_8  and  C_9
REMARK    5  A    between atoms: C_9  and  N_10
REMARK    6  A    between atoms: N_10  and  C_11
REMARK    7  A    between atoms: C_14  and  C_15
REMARK    8  A    between atoms: C_23  and  O_24
REMARK                            x       y       z     vdW  Elec       q    Type
REMARK                         _______ _______ _______ _____ _____    ______ ____
ROOT
ATOM      1  C   UNL     1      48.435   7.196  14.034  0.00  0.00    +0.000 A 
ATOM      2  C   UNL     1      49.271   7.440  12.934  0.00  0.00    +0.000 A 
ATOM      3  C   UNL     1      48.780   7.374  11.628  0.00  0.00    +0.000 A 
ATOM      4  C   UNL     1      47.446   7.038  11.386  0.00  0.00    +0.000 A 
ATOM      5  C   UNL     1      46.584   6.785  12.453  0.00  0.00    +0.000 A 
ATOM      6  C   UNL     1      47.094   6.914  13.758  0.00  0.00    +0.000 A 
ENDROOT
BRANCH   1   8
ATOM      7  C   UNL     1      50.535   7.198  15.340  0.00  0.00    +0.000 C 
ATOM      8  C   UNL     1      48.995   7.123  15.471  0.00  0.00    +0.000 C 
ATOM      9  C   UNL     1      48.451   8.311  16.306  0.00  0.00    +0.000 C 
ATOM     10  C   UNL     1      48.859   8.264  17.783  0.00  0.00    +0.000 C 
ATOM     11  C   UNL     1      48.514   6.939  18.458  0.00  0.00    +0.000 C 
ATOM     12  C   UNL     1      49.050   5.747  17.674  0.00  0.00    +0.000 C 
ATOM     13  C   UNL     1      48.626   5.794  16.206  0.00  0.00    +0.000 C 
BRANCH  11  14
ATOM     14  O   UNL     1      47.101   6.820  18.617  0.00  0.00    +0.000 OA
ATOM     15  H   UNL     1      46.899   5.988  19.073  0.00  0.00    +0.000 HD
ENDBRANCH  11  14
ENDBRANCH   1   8
BRANCH   5  16
ATOM     16  C   UNL     1      45.160   6.309  12.200  0.00  0.00    +0.000 C 
BRANCH  16  17
ATOM     17  C   UNL     1      45.085   4.811  11.881  0.00  0.00    +0.000 C 
BRANCH  17  18
ATOM     18  N   UNL     1      44.250   4.483  10.727  0.00  0.00    +0.000 N 
ATOM     19  H   UNL     1      43.661   5.267  10.445  0.00  0.00    +0.000 HD
BRANCH  18  20
ATOM     20  C   UNL     1      44.989   3.979   9.635  0.00  0.00    +0.000 A 
ATOM     21  C   UNL     1      45.713   4.760   8.736  0.00  0.00    +0.000 A 
ATOM     22  N   UNL     1      46.454   4.292   7.713  0.00  0.00    +0.000 NA
ATOM     23  C   UNL     1      46.505   2.946   7.615  0.00  0.00    +0.000 A 
ATOM     24  N   UNL     1      45.899   2.073   8.441  0.00  0.00    +0.000 NA
ATOM     25  C   UNL     1      45.173   2.619   9.440  0.00  0.00    +0.000 A 
BRANCH  23  26
ATOM     26  C   UNL     1      47.333   2.401   6.476  0.00  0.00    +0.000 C 
ATOM     27  N   UNL     1      47.275   3.126   5.304  0.00  0.00    +0.000 N 
ATOM     28  O   UNL     1      48.012   1.385   6.547  0.00  0.00    +0.000 OA
ATOM     29  H   UNL     1      46.728   3.970   5.258  0.00  0.00    +0.000 HD
ATOM     30  H   UNL     1      47.820   2.824   4.510  0.00  0.00    +0.000 HD
ENDBRANCH  23  26
ENDBRANCH  18  20
ENDBRANCH  17  18
ENDBRANCH  16  17
ENDBRANCH   5  16
TORSDOF 7
ENDMDL
