MODEL 1
REMARK VINA RESULT:    -8.577      0.000      0.000
REMARK INTER + INTRA:         -12.122
REMARK INTER:                 -11.085
REMARK INTRA:                  -1.038
REMARK UNBOUND:                -1.038
REMARK  Name = 
REMARK  5 active torsions:
REMARK  status: ('A' for Active; 'I' for Inactive)
REMARK    1  A    between atoms: C_2  and  C_4
REMARK    2  A    between atoms: C_7  and  N_8
REMARK    3  A    between atoms: N_8  and  C_9
REMARK    4  A    between atoms: C_9  and  C_10
REMARK    5  A    between atoms: C_14  and  C_15
REMARK                            x       y       z     vdW  Elec       q    Type
REMARK                         _______ _______ _______ _____ _____    ______ ____
ROOT
ATOM      1  N   UNL     1      43.800   4.961   9.879  0.00  0.00    +0.000 N 
ATOM      2  H   UNL     1      42.942   5.215   9.392  0.00  0.00    +0.000 HD
ENDROOT
BRANCH   1   6
ATOM      3  C   UNL     1      46.347   2.251   7.872  0.00  0.00    +0.000 A 
ATOM      4  C   UNL     1      45.380   1.764   8.750  0.00  0.00    +0.000 A 
ATOM      5  C   UNL     1      44.518   2.650   9.401  0.00  0.00    +0.000 A 
ATOM      6  C   UNL     1      44.575   4.033   9.174  0.00  0.00    +0.000 A 
ATOM      7  C   UNL     1      45.555   4.506   8.289  0.00  0.00    +0.000 A 
ATOM      8  C   UNL     1      46.439   3.627   7.648  0.00  0.00    +0.000 A 
BRANCH   3  10
ATOM      9  N   UNL     1      48.384   1.906   6.586  0.00  0.00    +0.000 N 
ATOM     10  C   UNL     1      47.318   1.338   7.215  0.00  0.00    +0.000 C 
ATOM     11  O   UNL     1      47.180   0.120   7.253  0.00  0.00    +0.000 OA
ATOM     12  H   UNL     1      49.078   1.273   6.207  0.00  0.00    +0.000 HD
ATOM     13  H   UNL     1      48.659   2.867   6.736  0.00  0.00    +0.000 HD
ENDBRANCH   3  10
ENDBRANCH   1   6
BRANCH   1  14
ATOM     14  C   UNL     1      43.638   4.789  11.315  0.00  0.00    +0.000 C 
BRANCH  14  15
ATOM     15  C   UNL     1      44.905   5.104  12.069  0.00  0.00    +0.000 A 
ATOM     16  C   UNL     1      45.337   4.242  13.086  0.00  0.00    +0.000 A 
ATOM     17  C   UNL     1      46.563   4.445  13.710  0.00  0.00    +0.000 A 
ATOM     18  C   UNL     1      47.379   5.503  13.312  0.00  0.00    +0.000 A 
ATOM     19  C   UNL     1      46.980   6.375  12.286  0.00  0.00    +0.000 A 
ATOM     20  C   UNL     1      45.724   6.180  11.690  0.00  0.00    +0.000 A 
BRANCH  19  21
ATOM     21  C   UNL     1      47.921   7.444  11.757  0.00  0.00    +0.000 C 
ATOM     22  C   UNL     1      49.361   7.173  12.228  0.00  0.00    +0.000 C 
ATOM     23  C   UNL     1      50.297   8.296  11.813  0.00  0.00    +0.000 C 
ATOM     24  O   UNL     1      49.810   9.554  12.273  0.00  0.00    +0.000 OA
ATOM     25  C   UNL     1      48.541   9.878  11.707  0.00  0.00    +0.000 C 
ATOM     26  C   UNL     1      47.486   8.867  12.136  0.00  0.00    +0.000 C 
ENDBRANCH  19  21
ENDBRANCH  14  15
ENDBRANCH   1  14
TORSDOF 5
ENDMDL
MODEL 2
REMARK VINA RESULT:    -8.532      2.121      3.434
REMARK INTER + INTRA:         -12.064
REMARK INTER:                 -11.228
REMARK INTRA:                  -0.836
REMARK UNBOUND:                -1.038
REMARK  Name = 
REMARK  5 active torsions:
REMARK  status: ('A' for Active; 'I' for Inactive)
REMARK    1  A    between atoms: C_2  and  C_4
REMARK    2  A    between atoms: C_7  and  N_8
REMARK    3  A    between atoms: N_8  and  C_9
REMARK    4  A    between atoms: C_9  and  C_10
REMARK    5  A    between atoms: C_14  and  C_15
REMARK                            x       y       z     vdW  Elec       q    Type
REMARK                         _______ _______ _______ _____ _____    ______ ____
ROOT
ATOM      1  N   UNL     1      43.792   4.851  10.030  0.00  0.00    +0.000 N 
ATOM      2  H   UNL     1      42.862   5.002   9.646  0.00  0.00    +0.000 HD
ENDROOT
BRANCH   1   6
ATOM      3  C   UNL     1      46.315   2.253   7.851  0.00  0.00    +0.000 A 
ATOM      4  C   UNL     1      45.403   1.721   8.762  0.00  0.00    +0.000 A 
ATOM      5  C   UNL     1      44.548   2.571   9.469  0.00  0.00    +0.000 A 
ATOM      6  C   UNL     1      44.559   3.958   9.271  0.00  0.00    +0.000 A 
ATOM      7  C   UNL     1      45.484   4.476   8.353  0.00  0.00    +0.000 A 
ATOM      8  C   UNL     1      46.361   3.635   7.654  0.00  0.00    +0.000 A 
BRANCH   3  10
ATOM      9  N   UNL     1      48.350   1.982   6.543  0.00  0.00    +0.000 N 
ATOM     10  C   UNL     1      47.278   1.379   7.132  0.00  0.00    +0.000 C 
ATOM     11  O   UNL     1      47.131   0.163   7.085  0.00  0.00    +0.000 OA
ATOM     12  H   UNL     1      49.038   1.371   6.121  0.00  0.00    +0.000 HD
ATOM     13  H   UNL     1      48.632   2.927   6.760  0.00  0.00    +0.000 HD
ENDBRANCH   3  10
ENDBRANCH   1   6
BRANCH   1  14
ATOM     14  C   UNL     1      43.826   4.741  11.481  0.00  0.00    +0.000 C 
BRANCH  14  15
ATOM     15  C   UNL     1      45.136   5.214  12.055  0.00  0.00    +0.000 A 
ATOM     16  C   UNL     1      45.811   6.282  11.447  0.00  0.00    +0.000 A 
ATOM     17  C   UNL     1      46.957   6.816  12.029  0.00  0.00    +0.000 A 
ATOM     18  C   UNL     1      47.431   6.298  13.233  0.00  0.00    +0.000 A 
ATOM     19  C   UNL     1      46.768   5.239  13.873  0.00  0.00    +0.000 A 
ATOM     20  C   UNL     1      45.634   4.686  13.257  0.00  0.00    +0.000 A 
BRANCH  19  21
ATOM     21  C   UNL     1      47.199   4.763  15.250  0.00  0.00    +0.000 C 
ATOM     22  C   UNL     1      48.319   5.662  15.803  0.00  0.00    +0.000 C 
ATOM     23  C   UNL     1      48.850   5.132  17.124  0.00  0.00    +0.000 C 
ATOM     24  O   UNL     1      49.269   3.775  16.991  0.00  0.00    +0.000 OA
ATOM     25  C   UNL     1      48.189   2.913  16.633  0.00  0.00    +0.000 C 
ATOM     26  C   UNL     1      47.631   3.289  15.266  0.00  0.00    +0.000 C 
ENDBRANCH  19  21
ENDBRANCH  14  15
ENDBRANCH   1  14
TORSDOF 5
ENDMDL
MODEL 3
REMARK VINA RESULT:    -7.338      1.632      2.499
REMARK INTER + INTRA:         -10.520
REMARK INTER:                  -9.728
REMARK INTRA:                  -0.792
REMARK UNBOUND:                -1.038
REMARK  Name = 
REMARK  5 active torsions:
REMARK  status: ('A' for Active; 'I' for Inactive)
REMARK    1  A    between atoms: C_2  and  C_4
REMARK    2  A    between atoms: C_7  and  N_8
REMARK    3  A    between atoms: N_8  and  C_9
REMARK    4  A    between atoms: C_9  and  C_10
REMARK    5  A    between atoms: C_14  and  C_15
REMARK                            x       y       z     vdW  Elec       q    Type
REMARK                         _______ _______ _______ _____ _____    ______ ____
ROOT
ATOM      1  N   UNL     1      43.892   5.025   9.912  0.00  0.00    +0.000 N 
ATOM      2  H   UNL     1      42.916   4.887   9.658  0.00  0.00    +0.000 HD
ENDROOT
BRANCH   1   6
ATOM      3  C   UNL     1      46.278   2.116   7.987  0.00  0.00    +0.000 A 
ATOM      4  C   UNL     1      46.469   3.466   7.693  0.00  0.00    +0.000 A 
ATOM      5  C   UNL     1      45.702   4.436   8.343  0.00  0.00    +0.000 A 
ATOM      6  C   UNL     1      44.750   4.095   9.314  0.00  0.00    +0.000 A 
ATOM      7  C   UNL     1      44.568   2.733   9.594  0.00  0.00    +0.000 A 
ATOM      8  C   UNL     1      45.318   1.749   8.933  0.00  0.00    +0.000 A 
BRANCH   3  10
ATOM      9  N   UNL     1      46.784  -0.235   7.612  0.00  0.00    +0.000 N 
ATOM     10  C   UNL     1      47.035   1.059   7.267  0.00  0.00    +0.000 C 
ATOM     11  O   UNL     1      47.838   1.335   6.383  0.00  0.00    +0.000 OA
ATOM     12  H   UNL     1      47.249  -0.948   7.064  0.00  0.00    +0.000 HD
ATOM     13  H   UNL     1      45.974  -0.510   8.149  0.00  0.00    +0.000 HD
ENDBRANCH   3  10
ENDBRANCH   1   6
BRANCH   1  14
ATOM     14  C   UNL     1      44.099   5.366  11.312  0.00  0.00    +0.000 C 
BRANCH  14  15
ATOM     15  C   UNL     1      44.847   6.664  11.474  0.00  0.00    +0.000 A 
ATOM     16  C   UNL     1      44.180   7.879  11.261  0.00  0.00    +0.000 A 
ATOM     17  C   UNL     1      44.815   9.088  11.524  0.00  0.00    +0.000 A 
ATOM     18  C   UNL     1      46.118   9.096  12.018  0.00  0.00    +0.000 A 
ATOM     19  C   UNL     1      46.807   7.896  12.256  0.00  0.00    +0.000 A 
ATOM     20  C   UNL     1      46.168   6.684  11.953  0.00  0.00    +0.000 A 
BRANCH  19  21
ATOM     21  C   UNL     1      48.173   7.896  12.921  0.00  0.00    +0.000 C 
ATOM     22  C   UNL     1      48.171   6.972  14.151  0.00  0.00    +0.000 C 
ATOM     23  C   UNL     1      49.490   7.052  14.902  0.00  0.00    +0.000 C 
ATOM     24  O   UNL     1      49.794   8.402  15.246  0.00  0.00    +0.000 OA
ATOM     25  C   UNL     1      49.955   9.226  14.091  0.00  0.00    +0.000 C 
ATOM     26  C   UNL     1      48.655   9.304  13.301  0.00  0.00    +0.000 C 
ENDBRANCH  19  21
ENDBRANCH  14  15
ENDBRANCH   1  14
TORSDOF 5
ENDMDL
MODEL 4
REMARK VINA RESULT:    -7.324      2.283      6.500
REMARK INTER + INTRA:         -10.503
REMARK INTER:                  -9.506
REMARK INTRA:                  -0.997
REMARK UNBOUND:                -1.038
REMARK  Name = 
REMARK  5 active torsions:
REMARK  status: ('A' for Active; 'I' for Inactive)
REMARK    1  A    between atoms: C_2  and  C_4
REMARK    2  A    between atoms: C_7  and  N_8
REMARK    3  A    between atoms: N_8  and  C_9
REMARK    4  A    between atoms: C_9  and  C_10
REMARK    5  A    between atoms: C_14  and  C_15
REMARK                            x       y       z     vdW  Elec       q    Type
REMARK                         _______ _______ _______ _____ _____    ______ ____
ROOT
ATOM      1  N   UNL     1      44.349   6.760  12.614  0.00  0.00    +0.000 N 
ATOM      2  H   UNL     1      43.885   7.503  13.133  0.00  0.00    +0.000 HD
ENDROOT
BRANCH   1   6
ATOM      3  C   UNL     1      48.525   7.408  12.647  0.00  0.00    +0.000 A 
ATOM      4  C   UNL     1      48.011   6.218  13.159  0.00  0.00    +0.000 A 
ATOM      5  C   UNL     1      46.633   5.984  13.130  0.00  0.00    +0.000 A 
ATOM      6  C   UNL     1      45.740   6.909  12.571  0.00  0.00    +0.000 A 
ATOM      7  C   UNL     1      46.275   8.103  12.064  0.00  0.00    +0.000 A 
ATOM      8  C   UNL     1      47.653   8.357  12.107  0.00  0.00    +0.000 A 
BRANCH   3  10
ATOM      9  N   UNL     1      50.582   7.583  13.936  0.00  0.00    +0.000 N 
ATOM     10  C   UNL     1      49.978   7.711  12.721  0.00  0.00    +0.000 C 
ATOM     11  O   UNL     1      50.616   8.041  11.728  0.00  0.00    +0.000 OA
ATOM     12  H   UNL     1      51.586   7.718  13.960  0.00  0.00    +0.000 HD
ATOM     13  H   UNL     1      50.157   7.090  14.709  0.00  0.00    +0.000 HD
ENDBRANCH   3  10
ENDBRANCH   1   6
BRANCH   1  14
ATOM     14  C   UNL     1      43.652   6.357  11.401  0.00  0.00    +0.000 C 
BRANCH  14  15
ATOM     15  C   UNL     1      43.898   4.910  11.061  0.00  0.00    +0.000 A 
ATOM     16  C   UNL     1      43.287   3.907  11.826  0.00  0.00    +0.000 A 
ATOM     17  C   UNL     1      43.399   2.570  11.457  0.00  0.00    +0.000 A 
ATOM     18  C   UNL     1      44.111   2.224  10.309  0.00  0.00    +0.000 A 
ATOM     19  C   UNL     1      44.721   3.207   9.515  0.00  0.00    +0.000 A 
ATOM     20  C   UNL     1      44.630   4.548   9.918  0.00  0.00    +0.000 A 
BRANCH  19  21
ATOM     21  C   UNL     1      45.380   2.848   8.194  0.00  0.00    +0.000 C 
ATOM     22  C   UNL     1      46.184   1.544   8.331  0.00  0.00    +0.000 C 
ATOM     23  C   UNL     1      46.950   1.232   7.056  0.00  0.00    +0.000 C 
ATOM     24  O   UNL     1      47.775   2.333   6.681  0.00  0.00    +0.000 OA
ATOM     25  C   UNL     1      47.009   3.504   6.397  0.00  0.00    +0.000 C 
ATOM     26  C   UNL     1      46.265   3.975   7.640  0.00  0.00    +0.000 C 
ENDBRANCH  19  21
ENDBRANCH  14  15
ENDBRANCH   1  14
TORSDOF 5
ENDMDL
MODEL 5
REMARK VINA RESULT:    -7.047      3.276      7.070
REMARK INTER + INTRA:         -10.144
REMARK INTER:                  -9.563
REMARK INTRA:                  -0.581
REMARK UNBOUND:                -1.038
REMARK  Name = 
REMARK  5 active torsions:
REMARK  status: ('A' for Active; 'I' for Inactive)
REMARK    1  A    between atoms: C_2  and  C_4
REMARK    2  A    between atoms: C_7  and  N_8
REMARK    3  A    between atoms: N_8  and  C_9
REMARK    4  A    between atoms: C_9  and  C_10
REMARK    5  A    between atoms: C_14  and  C_15
REMARK                            x       y       z     vdW  Elec       q    Type
REMARK                         _______ _______ _______ _____ _____    ______ ____
ROOT
ATOM      1  N   UNL     1      47.796   6.701  12.419  0.00  0.00    +0.000 N 
ATOM      2  H   UNL     1      48.323   6.242  11.678  0.00  0.00    +0.000 HD
ENDROOT
BRANCH   1   6
ATOM      3  C   UNL     1      47.428   4.580  16.057  0.00  0.00    +0.000 A 
ATOM      4  C   UNL     1      46.833   4.073  14.903  0.00  0.00    +0.000 A 
ATOM      5  C   UNL     1      46.970   4.755  13.690  0.00  0.00    +0.000 A 
ATOM      6  C   UNL     1      47.719   5.935  13.589  0.00  0.00    +0.000 A 
ATOM      7  C   UNL     1      48.309   6.432  14.760  0.00  0.00    +0.000 A 
ATOM      8  C   UNL     1      48.160   5.768  15.986  0.00  0.00    +0.000 A 
BRANCH   3  10
ATOM      9  N   UNL     1      47.683   4.577  18.477  0.00  0.00    +0.000 N 
ATOM     10  C   UNL     1      47.248   3.910  17.371  0.00  0.00    +0.000 C 
ATOM     11  O   UNL     1      46.710   2.813  17.463  0.00  0.00    +0.000 OA
ATOM     12  H   UNL     1      47.488   4.145  19.373  0.00  0.00    +0.000 HD
ATOM     13  H   UNL     1      47.904   5.562  18.471  0.00  0.00    +0.000 HD
ENDBRANCH   3  10
ENDBRANCH   1   6
BRANCH   1  14
ATOM     14  C   UNL     1      46.602   7.394  11.959  0.00  0.00    +0.000 C 
BRANCH  14  15
ATOM     15  C   UNL     1      45.551   6.439  11.457  0.00  0.00    +0.000 A 
ATOM     16  C   UNL     1      44.219   6.599  11.865  0.00  0.00    +0.000 A 
ATOM     17  C   UNL     1      43.214   5.808  11.319  0.00  0.00    +0.000 A 
ATOM     18  C   UNL     1      43.526   4.858  10.348  0.00  0.00    +0.000 A 
ATOM     19  C   UNL     1      44.848   4.684   9.908  0.00  0.00    +0.000 A 
ATOM     20  C   UNL     1      45.858   5.465  10.493  0.00  0.00    +0.000 A 
BRANCH  19  21
ATOM     21  C   UNL     1      45.174   3.749   8.756  0.00  0.00    +0.000 C 
ATOM     22  C   UNL     1      45.465   2.332   9.280  0.00  0.00    +0.000 C 
ATOM     23  C   UNL     1      45.913   1.411   8.157  0.00  0.00    +0.000 C 
ATOM     24  O   UNL     1      47.028   1.966   7.463  0.00  0.00    +0.000 OA
ATOM     25  C   UNL     1      46.707   3.209   6.840  0.00  0.00    +0.000 C 
ATOM     26  C   UNL     1      46.333   4.254   7.884  0.00  0.00    +0.000 C 
ENDBRANCH  19  21
ENDBRANCH  14  15
ENDBRANCH   1  14
TORSDOF 5
ENDMDL
MODEL 6
REMARK VINA RESULT:    -6.756      2.328      6.725
REMARK INTER + INTRA:          -9.768
REMARK INTER:                  -8.935
REMARK INTRA:                  -0.833
REMARK UNBOUND:                -1.038
REMARK  Name = 
REMARK  5 active torsions:
REMARK  status: ('A' for Active; 'I' for Inactive)
REMARK    1  A    between atoms: C_2  and  C_4
REMARK    2  A    between atoms: C_7  and  N_8
REMARK    3  A    between atoms: N_8  and  C_9
REMARK    4  A    between atoms: C_9  and  C_10
REMARK    5  A    between atoms: C_14  and  C_15
REMARK                            x       y       z     vdW  Elec       q    Type
REMARK                         _______ _______ _______ _____ _____    ______ ____
ROOT
ATOM      1  N   UNL     1      45.847   6.657  13.220  0.00  0.00    +0.000 N 
ATOM      2  H   UNL     1      45.471   7.110  14.051  0.00  0.00    +0.000 HD
ENDROOT
BRANCH   1   6
ATOM      3  C   UNL     1      49.857   7.786  12.505  0.00  0.00    +0.000 A 
ATOM      4  C   UNL     1      49.474   7.386  13.784  0.00  0.00    +0.000 A 
ATOM      5  C   UNL     1      48.156   6.988  14.025  0.00  0.00    +0.000 A 
ATOM      6  C   UNL     1      47.199   6.951  13.001  0.00  0.00    +0.000 A 
ATOM      7  C   UNL     1      47.601   7.360  11.721  0.00  0.00    +0.000 A 
ATOM      8  C   UNL     1      48.915   7.781  11.473  0.00  0.00    +0.000 A 
BRANCH   3  10
ATOM      9  N   UNL     1      51.976   7.581  11.325  0.00  0.00    +0.000 N 
ATOM     10  C   UNL     1      51.235   8.274  12.234  0.00  0.00    +0.000 C 
ATOM     11  O   UNL     1      51.682   9.271  12.789  0.00  0.00    +0.000 OA
ATOM     12  H   UNL     1      52.884   7.965  11.093  0.00  0.00    +0.000 HD
ATOM     13  H   UNL     1      51.570   6.916  10.682  0.00  0.00    +0.000 HD
ENDBRANCH   3  10
ENDBRANCH   1   6
BRANCH   1  14
ATOM     14  C   UNL     1      44.940   6.655  12.082  0.00  0.00    +0.000 C 
BRANCH  14  15
ATOM     15  C   UNL     1      44.646   5.260  11.594  0.00  0.00    +0.000 A 
ATOM     16  C   UNL     1      43.709   4.472  12.276  0.00  0.00    +0.000 A 
ATOM     17  C   UNL     1      43.331   3.231  11.774  0.00  0.00    +0.000 A 
ATOM     18  C   UNL     1      43.875   2.771  10.576  0.00  0.00    +0.000 A 
ATOM     19  C   UNL     1      44.805   3.544   9.862  0.00  0.00    +0.000 A 
ATOM     20  C   UNL     1      45.204   4.779  10.398  0.00  0.00    +0.000 A 
BRANCH  19  21
ATOM     21  C   UNL     1      45.296   3.110   8.492  0.00  0.00    +0.000 C 
ATOM     22  C   UNL     1      45.999   1.745   8.580  0.00  0.00    +0.000 C 
ATOM     23  C   UNL     1      46.606   1.349   7.244  0.00  0.00    +0.000 C 
ATOM     24  O   UNL     1      47.477   2.371   6.763  0.00  0.00    +0.000 OA
ATOM     25  C   UNL     1      46.786   3.597   6.528  0.00  0.00    +0.000 C 
ATOM     26  C   UNL     1      46.211   4.149   7.826  0.00  0.00    +0.000 C 
ENDBRANCH  19  21
ENDBRANCH  14  15
ENDBRANCH   1  14
TORSDOF 5
ENDMDL
MODEL 7
REMARK VINA RESULT:    -6.743      4.103      8.090
REMARK INTER + INTRA:          -9.752
REMARK INTER:                  -9.164
REMARK INTRA:                  -0.588
REMARK UNBOUND:                -1.038
REMARK  Name = 
REMARK  5 active torsions:
REMARK  status: ('A' for Active; 'I' for Inactive)
REMARK    1  A    between atoms: C_2  and  C_4
REMARK    2  A    between atoms: C_7  and  N_8
REMARK    3  A    between atoms: N_8  and  C_9
REMARK    4  A    between atoms: C_9  and  C_10
REMARK    5  A    between atoms: C_14  and  C_15
REMARK                            x       y       z     vdW  Elec       q    Type
REMARK                         _______ _______ _______ _____ _____    ______ ____
ROOT
ATOM      1  N   UNL     1      46.745   4.026  14.460  0.00  0.00    +0.000 N 
ATOM      2  H   UNL     1      46.032   3.299  14.439  0.00  0.00    +0.000 HD
ENDROOT
BRANCH   1   6
ATOM      3  C   UNL     1      48.505   4.493  18.274  0.00  0.00    +0.000 A 
ATOM      4  C   UNL     1      47.981   3.255  17.906  0.00  0.00    +0.000 A 
ATOM      5  C   UNL     1      47.418   3.084  16.638  0.00  0.00    +0.000 A 
ATOM      6  C   UNL     1      47.388   4.125  15.700  0.00  0.00    +0.000 A 
ATOM      7  C   UNL     1      47.917   5.365  16.087  0.00  0.00    +0.000 A 
ATOM      8  C   UNL     1      48.464   5.553  17.364  0.00  0.00    +0.000 A 
BRANCH   3  10
ATOM      9  N   UNL     1      48.600   3.911  20.635  0.00  0.00    +0.000 N 
ATOM     10  C   UNL     1      49.052   4.721  19.637  0.00  0.00    +0.000 C 
ATOM     11  O   UNL     1      49.891   5.587  19.855  0.00  0.00    +0.000 OA
ATOM     12  H   UNL     1      49.034   4.025  21.543  0.00  0.00    +0.000 HD
ATOM     13  H   UNL     1      48.105   3.048  20.457  0.00  0.00    +0.000 HD
ENDBRANCH   3  10
ENDBRANCH   1   6
BRANCH   1  14
ATOM     14  C   UNL     1      46.366   5.250  13.770  0.00  0.00    +0.000 C 
BRANCH  14  15
ATOM     15  C   UNL     1      45.269   5.017  12.763  0.00  0.00    +0.000 A 
ATOM     16  C   UNL     1      44.015   5.614  12.955  0.00  0.00    +0.000 A 
ATOM     17  C   UNL     1      43.029   5.514  11.979  0.00  0.00    +0.000 A 
ATOM     18  C   UNL     1      43.291   4.828  10.794  0.00  0.00    +0.000 A 
ATOM     19  C   UNL     1      44.542   4.232  10.567  0.00  0.00    +0.000 A 
ATOM     20  C   UNL     1      45.516   4.310  11.575  0.00  0.00    +0.000 A 
BRANCH  19  21
ATOM     21  C   UNL     1      44.877   3.603   9.225  0.00  0.00    +0.000 C 
ATOM     22  C   UNL     1      45.382   2.163   9.419  0.00  0.00    +0.000 C 
ATOM     23  C   UNL     1      45.839   1.557   8.101  0.00  0.00    +0.000 C 
ATOM     24  O   UNL     1      46.815   2.389   7.476  0.00  0.00    +0.000 OA
ATOM     25  C   UNL     1      46.293   3.676   7.151  0.00  0.00    +0.000 C 
ATOM     26  C   UNL     1      45.887   4.427   8.413  0.00  0.00    +0.000 C 
ENDBRANCH  19  21
ENDBRANCH  14  15
ENDBRANCH   1  14
TORSDOF 5
ENDMDL
MODEL 8
REMARK VINA RESULT:    -6.467      5.105      7.938
REMARK INTER + INTRA:          -9.395
REMARK INTER:                  -8.602
REMARK INTRA:                  -0.793
REMARK UNBOUND:                -1.038
REMARK  Name = 
REMARK  5 active torsions:
REMARK  status: ('A' for Active; 'I' for Inactive)
REMARK    1  A    between atoms: C_2  and  C_4
REMARK    2  A    between atoms: C_7  and  N_8
REMARK    3  A    between atoms: N_8  and  C_9
REMARK    4  A    between atoms: C_9  and  C_10
REMARK    5  A    between atoms: C_14  and  C_15
REMARK                            x       y       z     vdW  Elec       q    Type
REMARK                         _______ _______ _______ _____ _____    ______ ____
ROOT
ATOM      1  N   UNL     1      48.191   5.548  16.517  0.00  0.00    +0.000 N 
ATOM      2  H   UNL     1      47.496   5.743  17.235  0.00  0.00    +0.000 HD
ENDROOT
BRANCH   1   6
ATOM      3  C   UNL     1      50.973   2.499  17.425  0.00  0.00    +0.000 A 
ATOM      4  C   UNL     1      51.344   3.834  17.576  0.00  0.00    +0.000 A 
ATOM      5  C   UNL     1      50.423   4.849  17.301  0.00  0.00    +0.000 A 
ATOM      6  C   UNL     1      49.111   4.564  16.899  0.00  0.00    +0.000 A 
ATOM      7  C   UNL     1      48.756   3.215  16.749  0.00  0.00    +0.000 A 
ATOM      8  C   UNL     1      49.678   2.190  17.001  0.00  0.00    +0.000 A 
BRANCH   3  10
ATOM      9  N   UNL     1      51.466   0.223  18.132  0.00  0.00    +0.000 N 
ATOM     10  C   UNL     1      51.950   1.402  17.650  0.00  0.00    +0.000 C 
ATOM     11  O   UNL     1      53.140   1.540  17.393  0.00  0.00    +0.000 OA
ATOM     12  H   UNL     1      52.127  -0.541  18.210  0.00  0.00    +0.000 HD
ATOM     13  H   UNL     1      50.482  -0.008  18.126  0.00  0.00    +0.000 HD
ENDBRANCH   3  10
ENDBRANCH   1   6
BRANCH   1  14
ATOM     14  C   UNL     1      48.681   6.731  15.825  0.00  0.00    +0.000 C 
BRANCH  14  15
ATOM     15  C   UNL     1      48.198   6.795  14.400  0.00  0.00    +0.000 A 
ATOM     16  C   UNL     1      48.911   7.555  13.461  0.00  0.00    +0.000 A 
ATOM     17  C   UNL     1      48.555   7.529  12.117  0.00  0.00    +0.000 A 
ATOM     18  C   UNL     1      47.493   6.732  11.693  0.00  0.00    +0.000 A 
ATOM     19  C   UNL     1      46.770   5.949  12.607  0.00  0.00    +0.000 A 
ATOM     20  C   UNL     1      47.116   6.011  13.966  0.00  0.00    +0.000 A 
BRANCH  19  21
ATOM     21  C   UNL     1      45.703   4.977  12.133  0.00  0.00    +0.000 C 
ATOM     22  C   UNL     1      45.118   5.437  10.786  0.00  0.00    +0.000 C 
ATOM     23  C   UNL     1      43.964   4.547  10.353  0.00  0.00    +0.000 C 
ATOM     24  O   UNL     1      42.971   4.477  11.374  0.00  0.00    +0.000 OA
ATOM     25  C   UNL     1      43.477   3.899  12.577  0.00  0.00    +0.000 C 
ATOM     26  C   UNL     1      44.585   4.764  13.164  0.00  0.00    +0.000 C 
ENDBRANCH  19  21
ENDBRANCH  14  15
ENDBRANCH   1  14
TORSDOF 5
ENDMDL
MODEL 9
REMARK VINA RESULT:    -6.411      4.752      8.066
REMARK INTER + INTRA:          -9.323
REMARK INTER:                  -8.606
REMARK INTRA:                  -0.717
REMARK UNBOUND:                -1.038
REMARK  Name = 
REMARK  5 active torsions:
REMARK  status: ('A' for Active; 'I' for Inactive)
REMARK    1  A    between atoms: C_2  and  C_4
REMARK    2  A    between atoms: C_7  and  N_8
REMARK    3  A    between atoms: N_8  and  C_9
REMARK    4  A    between atoms: C_9  and  C_10
REMARK    5  A    between atoms: C_14  and  C_15
REMARK                            x       y       z     vdW  Elec       q    Type
REMARK                         _______ _______ _______ _____ _____    ______ ____
ROOT
ATOM      1  N   UNL     1      47.549   5.122  16.121  0.00  0.00    +0.000 N 
ATOM      2  H   UNL     1      47.670   6.101  15.869  0.00  0.00    +0.000 HD
ENDROOT
BRANCH   1   6
ATOM      3  C   UNL     1      51.022   3.318  17.716  0.00  0.00    +0.000 A 
ATOM      4  C   UNL     1      50.993   4.698  17.520  0.00  0.00    +0.000 A 
ATOM      5  C   UNL     1      49.841   5.307  17.015  0.00  0.00    +0.000 A 
ATOM      6  C   UNL     1      48.686   4.568  16.721  0.00  0.00    +0.000 A 
ATOM      7  C   UNL     1      48.734   3.181  16.922  0.00  0.00    +0.000 A 
ATOM      8  C   UNL     1      49.892   2.557  17.407  0.00  0.00    +0.000 A 
BRANCH   3  10
ATOM      9  N   UNL     1      52.259   1.274  18.178  0.00  0.00    +0.000 N 
ATOM     10  C   UNL     1      52.254   2.636  18.192  0.00  0.00    +0.000 C 
ATOM     11  O   UNL     1      53.235   3.270  18.562  0.00  0.00    +0.000 OA
ATOM     12  H   UNL     1      53.129   0.821  18.433  0.00  0.00    +0.000 HD
ATOM     13  H   UNL     1      51.581   0.729  17.665  0.00  0.00    +0.000 HD
ENDBRANCH   3  10
ENDBRANCH   1   6
BRANCH   1  14
ATOM     14  C   UNL     1      46.831   4.337  15.128  0.00  0.00    +0.000 C 
BRANCH  14  15
ATOM     15  C   UNL     1      46.598   5.109  13.855  0.00  0.00    +0.000 A 
ATOM     16  C   UNL     1      47.263   6.327  13.654  0.00  0.00    +0.000 A 
ATOM     17  C   UNL     1      47.160   6.994  12.438  0.00  0.00    +0.000 A 
ATOM     18  C   UNL     1      46.403   6.444  11.405  0.00  0.00    +0.000 A 
ATOM     19  C   UNL     1      45.737   5.219  11.571  0.00  0.00    +0.000 A 
ATOM     20  C   UNL     1      45.821   4.574  12.815  0.00  0.00    +0.000 A 
BRANCH  19  21
ATOM     21  C   UNL     1      45.025   4.550  10.408  0.00  0.00    +0.000 C 
ATOM     22  C   UNL     1      44.865   3.043  10.671  0.00  0.00    +0.000 C 
ATOM     23  C   UNL     1      44.266   2.334   9.468  0.00  0.00    +0.000 C 
ATOM     24  O   UNL     1      45.034   2.595   8.295  0.00  0.00    +0.000 OA
ATOM     25  C   UNL     1      45.048   3.982   7.960  0.00  0.00    +0.000 C 
ATOM     26  C   UNL     1      45.720   4.794   9.060  0.00  0.00    +0.000 C 
ENDBRANCH  19  21
ENDBRANCH  14  15
ENDBRANCH   1  14
TORSDOF 5
ENDMDL
