MODEL 1
REMARK VINA RESULT:    -8.027      0.000      0.000
REMARK INTER + INTRA:         -12.420
REMARK INTER:                 -11.311
REMARK INTRA:                  -1.109
REMARK UNBOUND:                -1.109
REMARK  Name = 
REMARK  8 active torsions:
REMARK  status: ('A' for Active; 'I' for Inactive)
REMARK    1  A    between atoms: C_1  and  O_2
REMARK    2  A    between atoms: O_2  and  C_3
REMARK    3  A    between atoms: C_5  and  C_6
REMARK    4  A    between atoms: C_6  and  N_7
REMARK    5  A    between atoms: C_8  and  C_10
REMARK    6  A    between atoms: C_17  and  C_18
REMARK    7  A    between atoms: C_18  and  N_19
REMARK    8  A    between atoms: C_20  and  C_22
REMARK                            x       y       z     vdW  Elec       q    Type
REMARK                         _______ _______ _______ _____ _____    ______ ____
ROOT
ATOM      1  C   UNL     1      46.938   5.295  13.024  0.00  0.00    +0.000 A 
ATOM      2  C   UNL     1      45.969   4.589  12.294  0.00  0.00    +0.000 A 
ATOM      3  C   UNL     1      45.201   5.225  11.306  0.00  0.00    +0.000 A 
ATOM      4  C   UNL     1      45.421   6.579  11.043  0.00  0.00    +0.000 A 
ATOM      5  C   UNL     1      46.375   7.290  11.770  0.00  0.00    +0.000 A 
ATOM      6  C   UNL     1      47.137   6.665  12.773  0.00  0.00    +0.000 A 
ENDROOT
BRANCH   1   8
ATOM      7  C   UNL     1      46.994   4.009  15.021  0.00  0.00    +0.000 C 
ATOM      8  O   UNL     1      47.699   4.729  14.014  0.00  0.00    +0.000 OA
ENDBRANCH   1   8
BRANCH   3   9
ATOM      9  C   UNL     1      44.199   4.443  10.501  0.00  0.00    +0.000 C 
BRANCH   9  10
ATOM     10  N   UNL     1      44.853   3.399   9.748  0.00  0.00    +0.000 N 
ATOM     11  C   UNL     1      45.530   3.669   8.585  0.00  0.00    +0.000 C 
ATOM     12  O   UNL     1      45.583   4.794   8.100  0.00  0.00    +0.000 OA
ATOM     13  H   UNL     1      44.894   2.478  10.161  0.00  0.00    +0.000 HD
BRANCH  11  14
ATOM     14  C   UNL     1      46.180   2.539   7.976  0.00  0.00    +0.000 A 
ATOM     15  C   UNL     1      47.103   2.412   6.958  0.00  0.00    +0.000 A 
ATOM     16  N   UNL     1      47.430   1.097   6.736  0.00  0.00    +0.000 NA
ATOM     17  C   UNL     1      46.718   0.417   7.604  0.00  0.00    +0.000 A 
ATOM     18  N   UNL     1      45.955   1.241   8.376  0.00  0.00    +0.000 N 
ATOM     19  H   UNL     1      45.323   0.963   9.117  0.00  0.00    +0.000 HD
ENDBRANCH  11  14
ENDBRANCH   9  10
ENDBRANCH   3   9
BRANCH   6  20
ATOM     20  C   UNL     1      48.165   7.478  13.518  0.00  0.00    +0.000 C 
BRANCH  20  21
ATOM     21  N   UNL     1      48.027   7.347  14.950  0.00  0.00    +0.000 N 
ATOM     22  C   UNL     1      49.064   7.009  15.777  0.00  0.00    +0.000 C 
ATOM     23  O   UNL     1      50.207   6.825  15.368  0.00  0.00    +0.000 OA
ATOM     24  H   UNL     1      47.072   7.291  15.290  0.00  0.00    +0.000 HD
BRANCH  22  25
ATOM     25  C   UNL     1      48.757   6.986  17.218  0.00  0.00    +0.000 A 
ATOM     26  C   UNL     1      48.299   8.136  17.849  0.00  0.00    +0.000 A 
ATOM     27  S   UNL     1      47.915   7.907  19.496  0.00  0.00    +0.000 S 
ATOM     28  C   UNL     1      48.392   6.275  19.438  0.00  0.00    +0.000 A 
ATOM     29  N   UNL     1      48.307   5.481  20.540  0.00  0.00    +0.000 NA
ATOM     30  C   UNL     1      48.732   4.275  20.362  0.00  0.00    +0.000 A 
ATOM     31  N   UNL     1      49.235   3.791  19.183  0.00  0.00    +0.000 N 
ATOM     32  C   UNL     1      49.318   4.547  18.039  0.00  0.00    +0.000 A 
ATOM     33  O   UNL     1      49.740   4.067  16.992  0.00  0.00    +0.000 OA
ATOM     34  C   UNL     1      48.846   5.910  18.182  0.00  0.00    +0.000 A 
ATOM     35  H   UNL     1      49.551   2.834  19.108  0.00  0.00    +0.000 HD
ENDBRANCH  22  25
ENDBRANCH  20  21
ENDBRANCH   6  20
TORSDOF 7
ENDMDL
MODEL 2
REMARK VINA RESULT:    -7.859      1.574      2.328
REMARK INTER + INTRA:         -12.183
REMARK INTER:                 -11.399
REMARK INTRA:                  -0.784
REMARK UNBOUND:                -1.109
REMARK  Name = 
REMARK  8 active torsions:
REMARK  status: ('A' for Active; 'I' for Inactive)
REMARK    1  A    between atoms: C_1  and  O_2
REMARK    2  A    between atoms: O_2  and  C_3
REMARK    3  A    between atoms: C_5  and  C_6
REMARK    4  A    between atoms: C_6  and  N_7
REMARK    5  A    between atoms: C_8  and  C_10
REMARK    6  A    between atoms: C_17  and  C_18
REMARK    7  A    between atoms: C_18  and  N_19
REMARK    8  A    between atoms: C_20  and  C_22
REMARK                            x       y       z     vdW  Elec       q    Type
REMARK                         _______ _______ _______ _____ _____    ______ ____
ROOT
ATOM      1  C   UNL     1      45.234   7.438  11.770  0.00  0.00    +0.000 A 
ATOM      2  C   UNL     1      44.423   6.572  11.021  0.00  0.00    +0.000 A 
ATOM      3  C   UNL     1      44.627   5.184  11.046  0.00  0.00    +0.000 A 
ATOM      4  C   UNL     1      45.648   4.663  11.845  0.00  0.00    +0.000 A 
ATOM      5  C   UNL     1      46.465   5.517  12.585  0.00  0.00    +0.000 A 
ATOM      6  C   UNL     1      46.278   6.909  12.552  0.00  0.00    +0.000 A 
ENDROOT
BRANCH   1   8
ATOM      7  C   UNL     1      44.044   9.325  10.954  0.00  0.00    +0.000 C 
ATOM      8  O   UNL     1      45.093   8.801  11.765  0.00  0.00    +0.000 OA
ENDBRANCH   1   8
BRANCH   3   9
ATOM      9  C   UNL     1      43.719   4.267  10.272  0.00  0.00    +0.000 C 
BRANCH   9  10
ATOM     10  N   UNL     1      44.487   3.267   9.568  0.00  0.00    +0.000 N 
ATOM     11  C   UNL     1      45.341   3.603   8.546  0.00  0.00    +0.000 C 
ATOM     12  O   UNL     1      45.468   4.756   8.149  0.00  0.00    +0.000 OA
ATOM     13  H   UNL     1      44.464   2.321   9.922  0.00  0.00    +0.000 HD
BRANCH  11  14
ATOM     14  C   UNL     1      46.081   2.508   7.979  0.00  0.00    +0.000 A 
ATOM     15  C   UNL     1      47.051   2.427   7.000  0.00  0.00    +0.000 A 
ATOM     16  N   UNL     1      47.464   1.132   6.808  0.00  0.00    +0.000 NA
ATOM     17  C   UNL     1      46.760   0.419   7.655  0.00  0.00    +0.000 A 
ATOM     18  N   UNL     1      45.918   1.203   8.386  0.00  0.00    +0.000 N 
ATOM     19  H   UNL     1      45.274   0.896   9.103  0.00  0.00    +0.000 HD
ENDBRANCH  11  14
ENDBRANCH   9  10
ENDBRANCH   3   9
BRANCH   6  20
ATOM     20  C   UNL     1      47.181   7.784  13.385  0.00  0.00    +0.000 C 
BRANCH  20  21
ATOM     21  N   UNL     1      47.559   7.150  14.626  0.00  0.00    +0.000 N 
ATOM     22  C   UNL     1      48.847   6.798  14.927  0.00  0.00    +0.000 C 
ATOM     23  O   UNL     1      49.793   7.028  14.177  0.00  0.00    +0.000 OA
ATOM     24  H   UNL     1      46.792   6.766  15.168  0.00  0.00    +0.000 HD
BRANCH  22  25
ATOM     25  C   UNL     1      49.060   6.220  16.265  0.00  0.00    +0.000 A 
ATOM     26  C   UNL     1      49.862   6.881  17.188  0.00  0.00    +0.000 A 
ATOM     27  S   UNL     1      49.930   6.113  18.710  0.00  0.00    +0.000 S 
ATOM     28  C   UNL     1      48.930   4.844  18.178  0.00  0.00    +0.000 A 
ATOM     29  N   UNL     1      48.581   3.830  19.015  0.00  0.00    +0.000 NA
ATOM     30  C   UNL     1      47.845   2.919  18.471  0.00  0.00    +0.000 A 
ATOM     31  N   UNL     1      47.427   2.930  17.166  0.00  0.00    +0.000 N 
ATOM     32  C   UNL     1      47.735   3.944  16.291  0.00  0.00    +0.000 A 
ATOM     33  O   UNL     1      47.311   3.936  15.140  0.00  0.00    +0.000 OA
ATOM     34  C   UNL     1      48.554   4.998  16.854  0.00  0.00    +0.000 A 
ATOM     35  H   UNL     1      46.851   2.186  16.799  0.00  0.00    +0.000 HD
ENDBRANCH  22  25
ENDBRANCH  20  21
ENDBRANCH   6  20
TORSDOF 7
ENDMDL
MODEL 3
REMARK VINA RESULT:    -7.586      1.576      2.515
REMARK INTER + INTRA:         -11.800
REMARK INTER:                 -10.683
REMARK INTRA:                  -1.116
REMARK UNBOUND:                -1.109
REMARK  Name = 
REMARK  8 active torsions:
REMARK  status: ('A' for Active; 'I' for Inactive)
REMARK    1  A    between atoms: C_1  and  O_2
REMARK    2  A    between atoms: O_2  and  C_3
REMARK    3  A    between atoms: C_5  and  C_6
REMARK    4  A    between atoms: C_6  and  N_7
REMARK    5  A    between atoms: C_8  and  C_10
REMARK    6  A    between atoms: C_17  and  C_18
REMARK    7  A    between atoms: C_18  and  N_19
REMARK    8  A    between atoms: C_20  and  C_22
REMARK                            x       y       z     vdW  Elec       q    Type
REMARK                         _______ _______ _______ _____ _____    ______ ____
ROOT
ATOM      1  C   UNL     1      46.141   7.095  12.038  0.00  0.00    +0.000 A 
ATOM      2  C   UNL     1      45.305   6.263  11.277  0.00  0.00    +0.000 A 
ATOM      3  C   UNL     1      45.233   4.884  11.528  0.00  0.00    +0.000 A 
ATOM      4  C   UNL     1      45.999   4.342  12.563  0.00  0.00    +0.000 A 
ATOM      5  C   UNL     1      46.839   5.160  13.318  0.00  0.00    +0.000 A 
ATOM      6  C   UNL     1      46.930   6.539  13.062  0.00  0.00    +0.000 A 
ENDROOT
BRANCH   1   8
ATOM      7  C   UNL     1      45.230   9.267  12.350  0.00  0.00    +0.000 C 
ATOM      8  O   UNL     1      46.266   8.443  11.822  0.00  0.00    +0.000 OA
ENDBRANCH   1   8
BRANCH   3   9
ATOM      9  C   UNL     1      44.299   4.014  10.732  0.00  0.00    +0.000 C 
BRANCH   9  10
ATOM     10  N   UNL     1      45.041   3.082   9.917  0.00  0.00    +0.000 N 
ATOM     11  C   UNL     1      45.489   3.422   8.664  0.00  0.00    +0.000 C 
ATOM     12  O   UNL     1      45.250   4.511   8.153  0.00  0.00    +0.000 OA
ATOM     13  H   UNL     1      45.321   2.208  10.338  0.00  0.00    +0.000 HD
BRANCH  11  14
ATOM     14  C   UNL     1      46.264   2.412   7.993  0.00  0.00    +0.000 A 
ATOM     15  C   UNL     1      47.291   2.462   7.073  0.00  0.00    +0.000 A 
ATOM     16  N   UNL     1      47.717   1.204   6.726  0.00  0.00    +0.000 NA
ATOM     17  C   UNL     1      46.963   0.384   7.419  0.00  0.00    +0.000 A 
ATOM     18  N   UNL     1      46.077   1.064   8.201  0.00  0.00    +0.000 N 
ATOM     19  H   UNL     1      45.391   0.664   8.828  0.00  0.00    +0.000 HD
ENDBRANCH  11  14
ENDBRANCH   9  10
ENDBRANCH   3   9
BRANCH   6  20
ATOM     20  C   UNL     1      47.843   7.379  13.919  0.00  0.00    +0.000 C 
BRANCH  20  21
ATOM     21  N   UNL     1      47.902   6.901  15.281  0.00  0.00    +0.000 N 
ATOM     22  C   UNL     1      49.067   6.528  15.896  0.00  0.00    +0.000 C 
ATOM     23  O   UNL     1      50.163   6.605  15.347  0.00  0.00    +0.000 OA
ATOM     24  H   UNL     1      47.010   6.635  15.686  0.00  0.00    +0.000 HD
BRANCH  22  25
ATOM     25  C   UNL     1      48.949   6.128  17.309  0.00  0.00    +0.000 A 
ATOM     26  C   UNL     1      49.324   4.849  17.701  0.00  0.00    +0.000 A 
ATOM     27  S   UNL     1      49.200   4.584  19.383  0.00  0.00    +0.000 S 
ATOM     28  C   UNL     1      48.594   6.153  19.642  0.00  0.00    +0.000 A 
ATOM     29  N   UNL     1      48.282   6.586  20.893  0.00  0.00    +0.000 NA
ATOM     30  C   UNL     1      47.804   7.784  20.939  0.00  0.00    +0.000 A 
ATOM     31  N   UNL     1      47.609   8.589  19.847  0.00  0.00    +0.000 N 
ATOM     32  C   UNL     1      47.932   8.204  18.568  0.00  0.00    +0.000 A 
ATOM     33  O   UNL     1      47.777   8.968  17.621  0.00  0.00    +0.000 OA
ATOM     34  C   UNL     1      48.480   6.868  18.461  0.00  0.00    +0.000 A 
ATOM     35  H   UNL     1      47.230   9.520  19.950  0.00  0.00    +0.000 HD
ENDBRANCH  22  25
ENDBRANCH  20  21
ENDBRANCH   6  20
TORSDOF 7
ENDMDL
MODEL 4
REMARK VINA RESULT:    -7.544      2.621      4.400
REMARK INTER + INTRA:         -11.740
REMARK INTER:                 -10.443
REMARK INTRA:                  -1.298
REMARK UNBOUND:                -1.109
REMARK  Name = 
REMARK  8 active torsions:
REMARK  status: ('A' for Active; 'I' for Inactive)
REMARK    1  A    between atoms: C_1  and  O_2
REMARK    2  A    between atoms: O_2  and  C_3
REMARK    3  A    between atoms: C_5  and  C_6
REMARK    4  A    between atoms: C_6  and  N_7
REMARK    5  A    between atoms: C_8  and  C_10
REMARK    6  A    between atoms: C_17  and  C_18
REMARK    7  A    between atoms: C_18  and  N_19
REMARK    8  A    between atoms: C_20  and  C_22
REMARK                            x       y       z     vdW  Elec       q    Type
REMARK                         _______ _______ _______ _____ _____    ______ ____
ROOT
ATOM      1  C   UNL     1      45.771   5.819  12.887  0.00  0.00    +0.000 A 
ATOM      2  C   UNL     1      45.065   5.412  11.744  0.00  0.00    +0.000 A 
ATOM      3  C   UNL     1      44.959   4.055  11.402  0.00  0.00    +0.000 A 
ATOM      4  C   UNL     1      45.557   3.100  12.227  0.00  0.00    +0.000 A 
ATOM      5  C   UNL     1      46.269   3.495  13.359  0.00  0.00    +0.000 A 
ATOM      6  C   UNL     1      46.395   4.853  13.699  0.00  0.00    +0.000 A 
ENDROOT
BRANCH   1   8
ATOM      7  C   UNL     1      45.679   8.104  12.243  0.00  0.00    +0.000 C 
ATOM      8  O   UNL     1      45.925   7.130  13.255  0.00  0.00    +0.000 OA
ENDBRANCH   1   8
BRANCH   3   9
ATOM      9  C   UNL     1      44.160   3.634  10.199  0.00  0.00    +0.000 C 
BRANCH   9  10
ATOM     10  N   UNL     1      45.003   2.961   9.239  0.00  0.00    +0.000 N 
ATOM     11  C   UNL     1      45.709   3.657   8.289  0.00  0.00    +0.000 C 
ATOM     12  O   UNL     1      45.633   4.876   8.175  0.00  0.00    +0.000 OA
ATOM     13  H   UNL     1      45.148   1.968   9.356  0.00  0.00    +0.000 HD
BRANCH  11  14
ATOM     14  C   UNL     1      46.550   2.858   7.439  0.00  0.00    +0.000 A 
ATOM     15  C   UNL     1      46.912   1.526   7.446  0.00  0.00    +0.000 A 
ATOM     16  N   UNL     1      47.752   1.227   6.403  0.00  0.00    +0.000 NA
ATOM     17  C   UNL     1      47.912   2.359   5.758  0.00  0.00    +0.000 A 
ATOM     18  N   UNL     1      47.204   3.368   6.340  0.00  0.00    +0.000 N 
ATOM     19  H   UNL     1      47.159   4.331   6.034  0.00  0.00    +0.000 HD
ENDBRANCH  11  14
ENDBRANCH   9  10
ENDBRANCH   3   9
BRANCH   6  20
ATOM     20  C   UNL     1      47.163   5.224  14.942  0.00  0.00    +0.000 C 
BRANCH  20  21
ATOM     21  N   UNL     1      47.958   6.415  14.756  0.00  0.00    +0.000 N 
ATOM     22  C   UNL     1      49.149   6.631  15.394  0.00  0.00    +0.000 C 
ATOM     23  O   UNL     1      49.656   5.808  16.152  0.00  0.00    +0.000 OA
ATOM     24  H   UNL     1      47.479   7.190  14.306  0.00  0.00    +0.000 HD
BRANCH  22  25
ATOM     25  C   UNL     1      49.856   7.872  15.034  0.00  0.00    +0.000 A 
ATOM     26  C   UNL     1      50.300   8.732  16.031  0.00  0.00    +0.000 A 
ATOM     27  S   UNL     1      51.170  10.076  15.439  0.00  0.00    +0.000 S 
ATOM     28  C   UNL     1      50.942   9.584  13.827  0.00  0.00    +0.000 A 
ATOM     29  N   UNL     1      51.455  10.308  12.795  0.00  0.00    +0.000 NA
ATOM     30  C   UNL     1      51.179   9.837  11.625  0.00  0.00    +0.000 A 
ATOM     31  N   UNL     1      50.437   8.709  11.393  0.00  0.00    +0.000 N 
ATOM     32  C   UNL     1      49.919   7.934  12.402  0.00  0.00    +0.000 A 
ATOM     33  O   UNL     1      49.290   6.910  12.154  0.00  0.00    +0.000 OA
ATOM     34  C   UNL     1      50.206   8.415  13.738  0.00  0.00    +0.000 A 
ATOM     35  H   UNL     1      50.256   8.392  10.450  0.00  0.00    +0.000 HD
ENDBRANCH  22  25
ENDBRANCH  20  21
ENDBRANCH   6  20
TORSDOF 7
ENDMDL
MODEL 5
REMARK VINA RESULT:    -7.442      3.490      4.565
REMARK INTER + INTRA:         -11.596
REMARK INTER:                 -10.357
REMARK INTRA:                  -1.239
REMARK UNBOUND:                -1.109
REMARK  Name = 
REMARK  8 active torsions:
REMARK  status: ('A' for Active; 'I' for Inactive)
REMARK    1  A    between atoms: C_1  and  O_2
REMARK    2  A    between atoms: O_2  and  C_3
REMARK    3  A    between atoms: C_5  and  C_6
REMARK    4  A    between atoms: C_6  and  N_7
REMARK    5  A    between atoms: C_8  and  C_10
REMARK    6  A    between atoms: C_17  and  C_18
REMARK    7  A    between atoms: C_18  and  N_19
REMARK    8  A    between atoms: C_20  and  C_22
REMARK                            x       y       z     vdW  Elec       q    Type
REMARK                         _______ _______ _______ _____ _____    ______ ____
ROOT
ATOM      1  C   UNL     1      46.043   5.466  12.869  0.00  0.00    +0.000 A 
ATOM      2  C   UNL     1      45.538   4.282  12.311  0.00  0.00    +0.000 A 
ATOM      3  C   UNL     1      44.502   4.311  11.365  0.00  0.00    +0.000 A 
ATOM      4  C   UNL     1      43.981   5.545  10.967  0.00  0.00    +0.000 A 
ATOM      5  C   UNL     1      44.471   6.726  11.524  0.00  0.00    +0.000 A 
ATOM      6  C   UNL     1      45.497   6.704  12.485  0.00  0.00    +0.000 A 
ENDROOT
BRANCH   1   8
ATOM      7  C   UNL     1      47.029   4.438  14.771  0.00  0.00    +0.000 C 
ATOM      8  O   UNL     1      47.037   5.493  13.813  0.00  0.00    +0.000 OA
ENDBRANCH   1   8
BRANCH   3   9
ATOM      9  C   UNL     1      44.002   3.035  10.743  0.00  0.00    +0.000 C 
BRANCH   9  10
ATOM     10  N   UNL     1      44.989   2.487   9.844  0.00  0.00    +0.000 N 
ATOM     11  C   UNL     1      45.175   2.998   8.583  0.00  0.00    +0.000 C 
ATOM     12  O   UNL     1      44.493   3.913   8.137  0.00  0.00    +0.000 OA
ATOM     13  H   UNL     1      45.620   1.786  10.208  0.00  0.00    +0.000 HD
BRANCH  11  14
ATOM     14  C   UNL     1      46.234   2.388   7.822  0.00  0.00    +0.000 A 
ATOM     15  C   UNL     1      46.739   1.105   7.762  0.00  0.00    +0.000 A 
ATOM     16  N   UNL     1      47.771   1.013   6.861  0.00  0.00    +0.000 NA
ATOM     17  C   UNL     1      47.906   2.223   6.371  0.00  0.00    +0.000 A 
ATOM     18  N   UNL     1      47.000   3.084   6.914  0.00  0.00    +0.000 N 
ATOM     19  H   UNL     1      46.897   4.068   6.702  0.00  0.00    +0.000 HD
ENDBRANCH  11  14
ENDBRANCH   9  10
ENDBRANCH   3   9
BRANCH   6  20
ATOM     20  C   UNL     1      45.999   8.012  13.043  0.00  0.00    +0.000 C 
BRANCH  20  21
ATOM     21  N   UNL     1      47.376   8.263  12.686  0.00  0.00    +0.000 N 
ATOM     22  C   UNL     1      47.889   9.519  12.506  0.00  0.00    +0.000 C 
ATOM     23  O   UNL     1      47.224  10.538  12.671  0.00  0.00    +0.000 OA
ATOM     24  H   UNL     1      47.889   7.455  12.346  0.00  0.00    +0.000 HD
BRANCH  22  25
ATOM     25  C   UNL     1      49.330   9.589  12.208  0.00  0.00    +0.000 A 
ATOM     26  C   UNL     1      49.777  10.315  11.111  0.00  0.00    +0.000 A 
ATOM     27  S   UNL     1      51.477  10.357  10.965  0.00  0.00    +0.000 S 
ATOM     28  C   UNL     1      51.676   9.366  12.334  0.00  0.00    +0.000 A 
ATOM     29  N   UNL     1      52.916   9.017  12.772  0.00  0.00    +0.000 NA
ATOM     30  C   UNL     1      52.917   8.236  13.800  0.00  0.00    +0.000 A 
ATOM     31  N   UNL     1      51.792   7.774  14.430  0.00  0.00    +0.000 N 
ATOM     32  C   UNL     1      50.521   8.119  14.039  0.00  0.00    +0.000 A 
ATOM     33  O   UNL     1      49.539   7.713  14.653  0.00  0.00    +0.000 OA
ATOM     34  C   UNL     1      50.462   9.000  12.892  0.00  0.00    +0.000 A 
ATOM     35  H   UNL     1      51.861   7.164  15.234  0.00  0.00    +0.000 HD
ENDBRANCH  22  25
ENDBRANCH  20  21
ENDBRANCH   6  20
TORSDOF 7
ENDMDL
MODEL 6
REMARK VINA RESULT:    -7.267      2.573      3.429
REMARK INTER + INTRA:         -11.350
REMARK INTER:                 -10.311
REMARK INTRA:                  -1.039
REMARK UNBOUND:                -1.109
REMARK  Name = 
REMARK  8 active torsions:
REMARK  status: ('A' for Active; 'I' for Inactive)
REMARK    1  A    between atoms: C_1  and  O_2
REMARK    2  A    between atoms: O_2  and  C_3
REMARK    3  A    between atoms: C_5  and  C_6
REMARK    4  A    between atoms: C_6  and  N_7
REMARK    5  A    between atoms: C_8  and  C_10
REMARK    6  A    between atoms: C_17  and  C_18
REMARK    7  A    between atoms: C_18  and  N_19
REMARK    8  A    between atoms: C_20  and  C_22
REMARK                            x       y       z     vdW  Elec       q    Type
REMARK                         _______ _______ _______ _____ _____    ______ ____
ROOT
ATOM      1  C   UNL     1      45.844   5.973  12.786  0.00  0.00    +0.000 A 
ATOM      2  C   UNL     1      45.188   5.722  11.571  0.00  0.00    +0.000 A 
ATOM      3  C   UNL     1      44.883   4.413  11.169  0.00  0.00    +0.000 A 
ATOM      4  C   UNL     1      45.229   3.349  12.006  0.00  0.00    +0.000 A 
ATOM      5  C   UNL     1      45.889   3.588  13.210  0.00  0.00    +0.000 A 
ATOM      6  C   UNL     1      46.214   4.895  13.612  0.00  0.00    +0.000 A 
ENDROOT
BRANCH   1   8
ATOM      7  C   UNL     1      45.393   8.305  12.720  0.00  0.00    +0.000 C 
ATOM      8  O   UNL     1      46.186   7.229  13.215  0.00  0.00    +0.000 OA
ENDBRANCH   1   8
BRANCH   3   9
ATOM      9  C   UNL     1      44.139   4.164   9.885  0.00  0.00    +0.000 C 
BRANCH   9  10
ATOM     10  N   UNL     1      44.934   3.366   8.982  0.00  0.00    +0.000 N 
ATOM     11  C   UNL     1      45.918   3.926   8.205  0.00  0.00    +0.000 C 
ATOM     12  O   UNL     1      46.147   5.131   8.201  0.00  0.00    +0.000 OA
ATOM     13  H   UNL     1      44.824   2.363   9.020  0.00  0.00    +0.000 HD
BRANCH  11  14
ATOM     14  C   UNL     1      46.666   2.999   7.398  0.00  0.00    +0.000 A 
ATOM     15  C   UNL     1      46.930   1.649   7.504  0.00  0.00    +0.000 A 
ATOM     16  N   UNL     1      47.706   1.204   6.463  0.00  0.00    +0.000 NA
ATOM     17  C   UNL     1      47.924   2.264   5.722  0.00  0.00    +0.000 A 
ATOM     18  N   UNL     1      47.313   3.367   6.240  0.00  0.00    +0.000 N 
ATOM     19  H   UNL     1      47.327   4.304   5.856  0.00  0.00    +0.000 HD
ENDBRANCH  11  14
ENDBRANCH   9  10
ENDBRANCH   3   9
BRANCH   6  20
ATOM     20  C   UNL     1      46.916   5.098  14.931  0.00  0.00    +0.000 C 
BRANCH  20  21
ATOM     21  N   UNL     1      48.087   5.933  14.802  0.00  0.00    +0.000 N 
ATOM     22  C   UNL     1      48.738   6.486  15.872  0.00  0.00    +0.000 C 
ATOM     23  O   UNL     1      48.396   6.284  17.034  0.00  0.00    +0.000 OA
ATOM     24  H   UNL     1      48.269   6.283  13.866  0.00  0.00    +0.000 HD
BRANCH  22  25
ATOM     25  C   UNL     1      49.952   7.257  15.558  0.00  0.00    +0.000 A 
ATOM     26  C   UNL     1      49.859   8.427  14.813  0.00  0.00    +0.000 A 
ATOM     27  S   UNL     1      51.350   9.234  14.615  0.00  0.00    +0.000 S 
ATOM     28  C   UNL     1      52.182   8.025  15.475  0.00  0.00    +0.000 A 
ATOM     29  N   UNL     1      53.525   8.111  15.682  0.00  0.00    +0.000 NA
ATOM     30  C   UNL     1      54.030   7.110  16.321  0.00  0.00    +0.000 A 
ATOM     31  N   UNL     1      53.316   6.031  16.773  0.00  0.00    +0.000 N 
ATOM     32  C   UNL     1      51.957   5.912  16.608  0.00  0.00    +0.000 A 
ATOM     33  O   UNL     1      51.348   4.948  17.060  0.00  0.00    +0.000 OA
ATOM     34  C   UNL     1      51.338   7.014  15.902  0.00  0.00    +0.000 A 
ATOM     35  H   UNL     1      53.772   5.277  17.269  0.00  0.00    +0.000 HD
ENDBRANCH  22  25
ENDBRANCH  20  21
ENDBRANCH   6  20
TORSDOF 7
ENDMDL
MODEL 7
REMARK VINA RESULT:    -7.046      2.412      2.971
REMARK INTER + INTRA:         -11.038
REMARK INTER:                  -9.764
REMARK INTRA:                  -1.275
REMARK UNBOUND:                -1.109
REMARK  Name = 
REMARK  8 active torsions:
REMARK  status: ('A' for Active; 'I' for Inactive)
REMARK    1  A    between atoms: C_1  and  O_2
REMARK    2  A    between atoms: O_2  and  C_3
REMARK    3  A    between atoms: C_5  and  C_6
REMARK    4  A    between atoms: C_6  and  N_7
REMARK    5  A    between atoms: C_8  and  C_10
REMARK    6  A    between atoms: C_17  and  C_18
REMARK    7  A    between atoms: C_18  and  N_19
REMARK    8  A    between atoms: C_20  and  C_22
REMARK                            x       y       z     vdW  Elec       q    Type
REMARK                         _______ _______ _______ _____ _____    ______ ____
ROOT
ATOM      1  C   UNL     1      46.297   5.740  13.024  0.00  0.00    +0.000 A 
ATOM      2  C   UNL     1      45.689   4.812  12.164  0.00  0.00    +0.000 A 
ATOM      3  C   UNL     1      44.946   5.233  11.051  0.00  0.00    +0.000 A 
ATOM      4  C   UNL     1      44.827   6.602  10.793  0.00  0.00    +0.000 A 
ATOM      5  C   UNL     1      45.420   7.531  11.647  0.00  0.00    +0.000 A 
ATOM      6  C   UNL     1      46.151   7.118  12.774  0.00  0.00    +0.000 A 
ENDROOT
BRANCH   1   8
ATOM      7  C   UNL     1      46.927   4.019  14.534  0.00  0.00    +0.000 C 
ATOM      8  O   UNL     1      47.014   5.384  14.136  0.00  0.00    +0.000 OA
ENDBRANCH   1   8
BRANCH   3   9
ATOM      9  C   UNL     1      44.338   4.225  10.115  0.00  0.00    +0.000 C 
BRANCH   9  10
ATOM     10  N   UNL     1      45.308   3.786   9.140  0.00  0.00    +0.000 N 
ATOM     11  C   UNL     1      45.363   2.480   8.718  0.00  0.00    +0.000 C 
ATOM     12  O   UNL     1      44.627   1.611   9.172  0.00  0.00    +0.000 OA
ATOM     13  H   UNL     1      45.875   4.491   8.690  0.00  0.00    +0.000 HD
BRANCH  11  14
ATOM     14  C   UNL     1      46.342   2.204   7.701  0.00  0.00    +0.000 A 
ATOM     15  C   UNL     1      47.121   1.103   7.409  0.00  0.00    +0.000 A 
ATOM     16  N   UNL     1      47.917   1.325   6.313  0.00  0.00    +0.000 NA
ATOM     17  C   UNL     1      47.637   2.548   5.930  0.00  0.00    +0.000 A 
ATOM     18  N   UNL     1      46.691   3.116   6.730  0.00  0.00    +0.000 N 
ATOM     19  H   UNL     1      46.304   4.047   6.643  0.00  0.00    +0.000 HD
ENDBRANCH  11  14
ENDBRANCH   9  10
ENDBRANCH   3   9
BRANCH   6  20
ATOM     20  C   UNL     1      46.784   8.165  13.655  0.00  0.00    +0.000 C 
BRANCH  20  21
ATOM     21  N   UNL     1      48.171   7.875  13.934  0.00  0.00    +0.000 N 
ATOM     22  C   UNL     1      49.052   8.807  14.414  0.00  0.00    +0.000 C 
ATOM     23  O   UNL     1      48.720   9.959  14.682  0.00  0.00    +0.000 OA
ATOM     24  H   UNL     1      48.521   7.008  13.537  0.00  0.00    +0.000 HD
BRANCH  22  25
ATOM     25  C   UNL     1      50.411   8.319  14.703  0.00  0.00    +0.000 A 
ATOM     26  C   UNL     1      51.501   8.868  14.038  0.00  0.00    +0.000 A 
ATOM     27  S   UNL     1      53.003   8.244  14.555  0.00  0.00    +0.000 S 
ATOM     28  C   UNL     1      52.250   7.182  15.650  0.00  0.00    +0.000 A 
ATOM     29  N   UNL     1      52.984   6.348  16.435  0.00  0.00    +0.000 NA
ATOM     30  C   UNL     1      52.282   5.576  17.194  0.00  0.00    +0.000 A 
ATOM     31  N   UNL     1      50.913   5.561  17.240  0.00  0.00    +0.000 N 
ATOM     32  C   UNL     1      50.130   6.401  16.485  0.00  0.00    +0.000 A 
ATOM     33  O   UNL     1      48.908   6.383  16.581  0.00  0.00    +0.000 OA
ATOM     34  C   UNL     1      50.870   7.295  15.618  0.00  0.00    +0.000 A 
ATOM     35  H   UNL     1      50.421   4.931  17.859  0.00  0.00    +0.000 HD
ENDBRANCH  22  25
ENDBRANCH  20  21
ENDBRANCH   6  20
TORSDOF 7
ENDMDL
MODEL 8
REMARK VINA RESULT:    -6.813      3.273      4.784
REMARK INTER + INTRA:         -10.709
REMARK INTER:                  -9.407
REMARK INTRA:                  -1.302
REMARK UNBOUND:                -1.109
REMARK  Name = 
REMARK  8 active torsions:
REMARK  status: ('A' for Active; 'I' for Inactive)
REMARK    1  A    between atoms: C_1  and  O_2
REMARK    2  A    between atoms: O_2  and  C_3
REMARK    3  A    between atoms: C_5  and  C_6
REMARK    4  A    between atoms: C_6  and  N_7
REMARK    5  A    between atoms: C_8  and  C_10
REMARK    6  A    between atoms: C_17  and  C_18
REMARK    7  A    between atoms: C_18  and  N_19
REMARK    8  A    between atoms: C_20  and  C_22
REMARK                            x       y       z     vdW  Elec       q    Type
REMARK                         _______ _______ _______ _____ _____    ______ ____
ROOT
ATOM      1  C   UNL     1      48.697   6.435  15.544  0.00  0.00    +0.000 A 
ATOM      2  C   UNL     1      48.234   6.937  14.317  0.00  0.00    +0.000 A 
ATOM      3  C   UNL     1      47.240   6.266  13.589  0.00  0.00    +0.000 A 
ATOM      4  C   UNL     1      46.696   5.089  14.108  0.00  0.00    +0.000 A 
ATOM      5  C   UNL     1      47.157   4.578  15.321  0.00  0.00    +0.000 A 
ATOM      6  C   UNL     1      48.165   5.234  16.049  0.00  0.00    +0.000 A 
ENDROOT
BRANCH   1   8
ATOM      7  C   UNL     1      50.792   7.555  15.558  0.00  0.00    +0.000 C 
ATOM      8  O   UNL     1      49.681   7.036  16.285  0.00  0.00    +0.000 OA
ENDBRANCH   1   8
BRANCH   3   9
ATOM      9  C   UNL     1      46.723   6.842  12.298  0.00  0.00    +0.000 C 
BRANCH   9  10
ATOM     10  N   UNL     1      46.374   5.788  11.375  0.00  0.00    +0.000 N 
ATOM     11  C   UNL     1      45.065   5.514  11.059  0.00  0.00    +0.000 C 
ATOM     12  O   UNL     1      44.126   6.115  11.569  0.00  0.00    +0.000 OA
ATOM     13  H   UNL     1      47.124   5.329  10.879  0.00  0.00    +0.000 HD
BRANCH  11  14
ATOM     14  C   UNL     1      44.873   4.476  10.081  0.00  0.00    +0.000 A 
ATOM     15  C   UNL     1      44.452   3.165  10.162  0.00  0.00    +0.000 A 
ATOM     16  N   UNL     1      44.428   2.567   8.926  0.00  0.00    +0.000 NA
ATOM     17  C   UNL     1      44.832   3.494   8.090  0.00  0.00    +0.000 A 
ATOM     18  N   UNL     1      45.106   4.662   8.737  0.00  0.00    +0.000 N 
ATOM     19  H   UNL     1      45.431   5.525   8.319  0.00  0.00    +0.000 HD
ENDBRANCH  11  14
ENDBRANCH   9  10
ENDBRANCH   3   9
BRANCH   6  20
ATOM     20  C   UNL     1      48.614   4.645  17.362  0.00  0.00    +0.000 C 
BRANCH  20  21
ATOM     21  N   UNL     1      49.999   4.238  17.329  0.00  0.00    +0.000 N 
ATOM     22  C   UNL     1      50.829   4.310  18.416  0.00  0.00    +0.000 C 
ATOM     23  O   UNL     1      50.449   4.695  19.518  0.00  0.00    +0.000 OA
ATOM     24  H   UNL     1      50.393   4.113  16.402  0.00  0.00    +0.000 HD
BRANCH  22  25
ATOM     25  C   UNL     1      52.194   3.790  18.219  0.00  0.00    +0.000 A 
ATOM     26  C   UNL     1      53.289   4.616  18.437  0.00  0.00    +0.000 A 
ATOM     27  S   UNL     1      54.791   3.828  18.243  0.00  0.00    +0.000 S 
ATOM     28  C   UNL     1      54.032   2.368  17.812  0.00  0.00    +0.000 A 
ATOM     29  N   UNL     1      54.764   1.258  17.520  0.00  0.00    +0.000 NA
ATOM     30  C   UNL     1      54.060   0.231  17.179  0.00  0.00    +0.000 A 
ATOM     31  N   UNL     1      52.692   0.212  17.103  0.00  0.00    +0.000 N 
ATOM     32  C   UNL     1      51.911   1.300  17.411  0.00  0.00    +0.000 A 
ATOM     33  O   UNL     1      50.687   1.232  17.367  0.00  0.00    +0.000 OA
ATOM     34  C   UNL     1      52.652   2.480  17.808  0.00  0.00    +0.000 A 
ATOM     35  H   UNL     1      52.199  -0.627  16.829  0.00  0.00    +0.000 HD
ENDBRANCH  22  25
ENDBRANCH  20  21
ENDBRANCH   6  20
TORSDOF 7
ENDMDL
MODEL 9
REMARK VINA RESULT:    -6.804      4.787      7.960
REMARK INTER + INTRA:         -10.698
REMARK INTER:                  -9.610
REMARK INTRA:                  -1.087
REMARK UNBOUND:                -1.109
REMARK  Name = 
REMARK  8 active torsions:
REMARK  status: ('A' for Active; 'I' for Inactive)
REMARK    1  A    between atoms: C_1  and  O_2
REMARK    2  A    between atoms: O_2  and  C_3
REMARK    3  A    between atoms: C_5  and  C_6
REMARK    4  A    between atoms: C_6  and  N_7
REMARK    5  A    between atoms: C_8  and  C_10
REMARK    6  A    between atoms: C_17  and  C_18
REMARK    7  A    between atoms: C_18  and  N_19
REMARK    8  A    between atoms: C_20  and  C_22
REMARK                            x       y       z     vdW  Elec       q    Type
REMARK                         _______ _______ _______ _____ _____    ______ ____
ROOT
ATOM      1  C   UNL     1      48.199   9.702  12.195  0.00  0.00    +0.000 A 
ATOM      2  C   UNL     1      49.524   9.843  11.753  0.00  0.00    +0.000 A 
ATOM      3  C   UNL     1      50.361   8.726  11.606  0.00  0.00    +0.000 A 
ATOM      4  C   UNL     1      49.854   7.456  11.893  0.00  0.00    +0.000 A 
ATOM      5  C   UNL     1      48.542   7.308  12.342  0.00  0.00    +0.000 A 
ATOM      6  C   UNL     1      47.702   8.423  12.508  0.00  0.00    +0.000 A 
ENDROOT
BRANCH   1   8
ATOM      7  C   UNL     1      46.864  11.394  11.195  0.00  0.00    +0.000 C 
ATOM      8  O   UNL     1      47.346  10.760  12.377  0.00  0.00    +0.000 OA
ENDBRANCH   1   8
BRANCH   3   9
ATOM      9  C   UNL     1      51.764   8.889  11.089  0.00  0.00    +0.000 C 
BRANCH   9  10
ATOM     10  N   UNL     1      51.974   8.070   9.918  0.00  0.00    +0.000 N 
ATOM     11  C   UNL     1      53.020   7.185   9.839  0.00  0.00    +0.000 C 
ATOM     12  O   UNL     1      53.853   7.069  10.731  0.00  0.00    +0.000 OA
ATOM     13  H   UNL     1      51.263   8.085   9.201  0.00  0.00    +0.000 HD
BRANCH  11  14
ATOM     14  C   UNL     1      53.068   6.395   8.637  0.00  0.00    +0.000 A 
ATOM     15  C   UNL     1      52.586   6.587   7.358  0.00  0.00    +0.000 A 
ATOM     16  N   UNL     1      52.892   5.527   6.541  0.00  0.00    +0.000 NA
ATOM     17  C   UNL     1      53.554   4.689   7.302  0.00  0.00    +0.000 A 
ATOM     18  N   UNL     1      53.690   5.169   8.571  0.00  0.00    +0.000 N 
ATOM     19  H   UNL     1      54.160   4.715   9.344  0.00  0.00    +0.000 HD
ENDBRANCH  11  14
ENDBRANCH   9  10
ENDBRANCH   3   9
BRANCH   6  20
ATOM     20  C   UNL     1      46.288   8.204  12.981  0.00  0.00    +0.000 C 
BRANCH  20  21
ATOM     21  N   UNL     1      45.802   6.885  12.651  0.00  0.00    +0.000 N 
ATOM     22  C   UNL     1      44.845   6.653  11.699  0.00  0.00    +0.000 C 
ATOM     23  O   UNL     1      44.349   7.551  11.023  0.00  0.00    +0.000 OA
ATOM     24  H   UNL     1      46.034   6.157  13.320  0.00  0.00    +0.000 HD
BRANCH  22  25
ATOM     25  C   UNL     1      44.517   5.240  11.447  0.00  0.00    +0.000 A 
ATOM     26  C   UNL     1      43.784   4.520  12.383  0.00  0.00    +0.000 A 
ATOM     27  S   UNL     1      43.424   2.926  11.892  0.00  0.00    +0.000 S 
ATOM     28  C   UNL     1      44.277   3.122  10.433  0.00  0.00    +0.000 A 
ATOM     29  N   UNL     1      44.356   2.111   9.526  0.00  0.00    +0.000 NA
ATOM     30  C   UNL     1      45.060   2.388   8.480  0.00  0.00    +0.000 A 
ATOM     31  N   UNL     1      45.693   3.583   8.259  0.00  0.00    +0.000 N 
ATOM     32  C   UNL     1      45.622   4.640   9.133  0.00  0.00    +0.000 A 
ATOM     33  O   UNL     1      46.172   5.706   8.882  0.00  0.00    +0.000 OA
ATOM     34  C   UNL     1      44.836   4.384  10.324  0.00  0.00    +0.000 A 
ATOM     35  H   UNL     1      46.230   3.737   7.416  0.00  0.00    +0.000 HD
ENDBRANCH  22  25
ENDBRANCH  20  21
ENDBRANCH   6  20
TORSDOF 7
ENDMDL
