MODEL 1
REMARK VINA RESULT:    -8.896      0.000      0.000
REMARK INTER + INTRA:         -12.956
REMARK INTER:                 -12.536
REMARK INTRA:                  -0.420
REMARK UNBOUND:                -0.420
REMARK  Name = 
REMARK  8 active torsions:
REMARK  status: ('A' for Active; 'I' for Inactive)
REMARK    1  A    between atoms: C_1  and  C_2
REMARK    2  A    between atoms: C_2  and  C_3
REMARK    3  A    between atoms: C_3  and  N_4
REMARK    4  A    between atoms: C_3  and  C_18
REMARK    5  A    between atoms: C_5  and  C_7
REMARK    6  A    between atoms: C_21  and  O_22
REMARK    7  A    between atoms: O_22  and  C_23
REMARK    8  A    between atoms: C_23  and  C_24
REMARK                            x       y       z     vdW  Elec       q    Type
REMARK                         _______ _______ _______ _____ _____    ______ ____
ROOT
ATOM      1  N   UNL     1      47.157   7.314  14.200  0.00  0.00    +0.000 N 
ATOM      2  C   UNL     1      48.407   6.750  14.200  0.00  0.00    +0.000 C 
ATOM      3  O   UNL     1      49.039   6.561  13.164  0.00  0.00    +0.000 OA
ATOM      4  H   UNL     1      46.599   7.282  15.047  0.00  0.00    +0.000 HD
ENDROOT
BRANCH   2   5
ATOM      5  C   UNL     1      48.985   6.455  15.515  0.00  0.00    +0.000 A 
ATOM      6  C   UNL     1      50.068   7.193  15.975  0.00  0.00    +0.000 A 
ATOM      7  S   UNL     1      50.570   6.761  17.547  0.00  0.00    +0.000 S 
ATOM      8  C   UNL     1      49.406   5.525  17.642  0.00  0.00    +0.000 A 
ATOM      9  N   UNL     1      49.323   4.723  18.732  0.00  0.00    +0.000 NA
ATOM     10  C   UNL     1      48.438   3.773  18.659  0.00  0.00    +0.000 A 
ATOM     11  N   UNL     1      48.286   2.892  19.676  0.00  0.00    +0.000 N 
ATOM     12  N   UNL     1      47.615   3.608  17.576  0.00  0.00    +0.000 N 
ATOM     13  C   UNL     1      47.623   4.420  16.472  0.00  0.00    +0.000 A 
ATOM     14  O   UNL     1      46.818   4.263  15.555  0.00  0.00    +0.000 OA
ATOM     15  C   UNL     1      48.625   5.462  16.499  0.00  0.00    +0.000 A 
ATOM     16  H   UNL     1      48.733   3.193  20.535  0.00  0.00    +0.000 HD
ATOM     17  H   UNL     1      47.389   2.453  19.811  0.00  0.00    +0.000 HD
ATOM     18  H   UNL     1      46.952   2.847  17.558  0.00  0.00    +0.000 HD
ENDBRANCH   2   5
BRANCH   1  19
ATOM     19  C   UNL     1      46.481   7.736  12.983  0.00  0.00    +0.000 C 
BRANCH  19  20
ATOM     20  C   UNL     1      45.965   6.486  12.283  0.00  0.00    +0.000 A 
ATOM     21  C   UNL     1      45.555   5.363  13.021  0.00  0.00    +0.000 A 
ATOM     22  C   UNL     1      45.179   4.179  12.372  0.00  0.00    +0.000 A 
ATOM     23  C   UNL     1      45.205   4.110  10.978  0.00  0.00    +0.000 A 
ATOM     24  C   UNL     1      45.625   5.215  10.245  0.00  0.00    +0.000 A 
ATOM     25  C   UNL     1      45.986   6.393  10.885  0.00  0.00    +0.000 A 
BRANCH  23  26
ATOM     26  O   UNL     1      44.811   2.928  10.411  0.00  0.00    +0.000 OA
BRANCH  26  27
ATOM     27  C   UNL     1      44.412   3.046   9.038  0.00  0.00    +0.000 C 
BRANCH  27  28
ATOM     28  C   UNL     1      45.496   2.521   8.137  0.00  0.00    +0.000 A 
ATOM     29  C   UNL     1      45.992   3.339   7.123  0.00  0.00    +0.000 A 
ATOM     30  C   UNL     1      47.024   2.862   6.328  0.00  0.00    +0.000 A 
ATOM     31  C   UNL     1      47.533   1.594   6.568  0.00  0.00    +0.000 A 
ATOM     32  C   UNL     1      46.993   0.850   7.604  0.00  0.00    +0.000 A 
ATOM     33  N   UNL     1      45.993   1.285   8.398  0.00  0.00    +0.000 NA
ENDBRANCH  27  28
ENDBRANCH  26  27
ENDBRANCH  23  26
ENDBRANCH  19  20
BRANCH  19  35
ATOM     34  C   UNL     1      47.018  10.085  12.125  0.00  0.00    +0.000 C 
ATOM     35  C   UNL     1      47.419   8.614  12.126  0.00  0.00    +0.000 C 
ENDBRANCH  19  35
ENDBRANCH   1  19
TORSDOF 7
ENDMDL
MODEL 2
REMARK VINA RESULT:    -8.613      1.912      2.224
REMARK INTER + INTRA:         -12.558
REMARK INTER:                 -11.287
REMARK INTRA:                  -1.270
REMARK UNBOUND:                -0.420
REMARK  Name = 
REMARK  8 active torsions:
REMARK  status: ('A' for Active; 'I' for Inactive)
REMARK    1  A    between atoms: C_1  and  C_2
REMARK    2  A    between atoms: C_2  and  C_3
REMARK    3  A    between atoms: C_3  and  N_4
REMARK    4  A    between atoms: C_3  and  C_18
REMARK    5  A    between atoms: C_5  and  C_7
REMARK    6  A    between atoms: C_21  and  O_22
REMARK    7  A    between atoms: O_22  and  C_23
REMARK    8  A    between atoms: C_23  and  C_24
REMARK                            x       y       z     vdW  Elec       q    Type
REMARK                         _______ _______ _______ _____ _____    ______ ____
ROOT
ATOM      1  N   UNL     1      47.978   7.505  14.848  0.00  0.00    +0.000 N 
ATOM      2  C   UNL     1      48.507   8.439  15.700  0.00  0.00    +0.000 C 
ATOM      3  O   UNL     1      49.025   9.476  15.293  0.00  0.00    +0.000 OA
ATOM      4  H   UNL     1      47.729   6.590  15.208  0.00  0.00    +0.000 HD
ENDROOT
BRANCH   2   5
ATOM      5  C   UNL     1      48.350   8.172  17.133  0.00  0.00    +0.000 A 
ATOM      6  C   UNL     1      48.070   9.218  18.004  0.00  0.00    +0.000 A 
ATOM      7  S   UNL     1      47.855   8.720  19.622  0.00  0.00    +0.000 S 
ATOM      8  C   UNL     1      48.200   7.101  19.229  0.00  0.00    +0.000 A 
ATOM      9  N   UNL     1      48.229   6.140  20.186  0.00  0.00    +0.000 NA
ATOM     10  C   UNL     1      48.569   4.955  19.773  0.00  0.00    +0.000 A 
ATOM     11  N   UNL     1      48.661   3.922  20.644  0.00  0.00    +0.000 N 
ATOM     12  N   UNL     1      48.844   4.676  18.460  0.00  0.00    +0.000 N 
ATOM     13  C   UNL     1      48.780   5.599  17.448  0.00  0.00    +0.000 A 
ATOM     14  O   UNL     1      48.976   5.278  16.276  0.00  0.00    +0.000 OA
ATOM     15  C   UNL     1      48.447   6.939  17.876  0.00  0.00    +0.000 A 
ATOM     16  H   UNL     1      48.222   4.112  21.538  0.00  0.00    +0.000 HD
ATOM     17  H   UNL     1      48.513   2.983  20.305  0.00  0.00    +0.000 HD
ATOM     18  H   UNL     1      49.117   3.743  18.189  0.00  0.00    +0.000 HD
ENDBRANCH   2   5
BRANCH   1  19
ATOM     19  C   UNL     1      47.982   7.663  13.401  0.00  0.00    +0.000 C 
BRANCH  19  20
ATOM     20  C   UNL     1      46.900   6.754  12.834  0.00  0.00    +0.000 A 
ATOM     21  C   UNL     1      46.778   5.423  13.264  0.00  0.00    +0.000 A 
ATOM     22  C   UNL     1      45.848   4.560  12.665  0.00  0.00    +0.000 A 
ATOM     23  C   UNL     1      45.030   5.024  11.635  0.00  0.00    +0.000 A 
ATOM     24  C   UNL     1      45.159   6.338  11.196  0.00  0.00    +0.000 A 
ATOM     25  C   UNL     1      46.070   7.197  11.796  0.00  0.00    +0.000 A 
BRANCH  23  26
ATOM     26  O   UNL     1      44.136   4.132  11.107  0.00  0.00    +0.000 OA
BRANCH  26  27
ATOM     27  C   UNL     1      43.896   4.311   9.704  0.00  0.00    +0.000 C 
BRANCH  27  28
ATOM     28  C   UNL     1      44.940   3.583   8.903  0.00  0.00    +0.000 A 
ATOM     29  C   UNL     1      45.094   2.209   9.078  0.00  0.00    +0.000 A 
ATOM     30  C   UNL     1      46.028   1.539   8.300  0.00  0.00    +0.000 A 
ATOM     31  C   UNL     1      46.772   2.253   7.371  0.00  0.00    +0.000 A 
ATOM     32  C   UNL     1      46.549   3.614   7.250  0.00  0.00    +0.000 A 
ATOM     33  N   UNL     1      45.647   4.295   7.988  0.00  0.00    +0.000 NA
ENDBRANCH  27  28
ENDBRANCH  26  27
ENDBRANCH  23  26
ENDBRANCH  19  20
BRANCH  19  35
ATOM     34  C   UNL     1      49.647   8.118  11.514  0.00  0.00    +0.000 C 
ATOM     35  C   UNL     1      49.398   7.408  12.839  0.00  0.00    +0.000 C 
ENDBRANCH  19  35
ENDBRANCH   1  19
TORSDOF 7
ENDMDL
MODEL 3
REMARK VINA RESULT:    -8.356      1.688      2.099
REMARK INTER + INTRA:         -12.195
REMARK INTER:                 -10.641
REMARK INTRA:                  -1.554
REMARK UNBOUND:                -0.420
REMARK  Name = 
REMARK  8 active torsions:
REMARK  status: ('A' for Active; 'I' for Inactive)
REMARK    1  A    between atoms: C_1  and  C_2
REMARK    2  A    between atoms: C_2  and  C_3
REMARK    3  A    between atoms: C_3  and  N_4
REMARK    4  A    between atoms: C_3  and  C_18
REMARK    5  A    between atoms: C_5  and  C_7
REMARK    6  A    between atoms: C_21  and  O_22
REMARK    7  A    between atoms: O_22  and  C_23
REMARK    8  A    between atoms: C_23  and  C_24
REMARK                            x       y       z     vdW  Elec       q    Type
REMARK                         _______ _______ _______ _____ _____    ______ ____
ROOT
ATOM      1  N   UNL     1      48.307   7.697  14.227  0.00  0.00    +0.000 N 
ATOM      2  C   UNL     1      48.756   8.091  15.462  0.00  0.00    +0.000 C 
ATOM      3  O   UNL     1      48.196   8.971  16.110  0.00  0.00    +0.000 OA
ATOM      4  H   UNL     1      48.897   7.105  13.651  0.00  0.00    +0.000 HD
ENDROOT
BRANCH   2   5
ATOM      5  C   UNL     1      49.897   7.347  16.005  0.00  0.00    +0.000 A 
ATOM      6  C   UNL     1      51.157   7.932  16.020  0.00  0.00    +0.000 A 
ATOM      7  S   UNL     1      52.354   6.955  16.746  0.00  0.00    +0.000 S 
ATOM      8  C   UNL     1      51.247   5.689  17.000  0.00  0.00    +0.000 A 
ATOM      9  N   UNL     1      51.641   4.515  17.554  0.00  0.00    +0.000 NA
ATOM     10  C   UNL     1      50.719   3.601  17.636  0.00  0.00    +0.000 A 
ATOM     11  N   UNL     1      51.004   2.379  18.144  0.00  0.00    +0.000 N 
ATOM     12  N   UNL     1      49.428   3.810  17.228  0.00  0.00    +0.000 N 
ATOM     13  C   UNL     1      48.967   4.992  16.709  0.00  0.00    +0.000 A 
ATOM     14  O   UNL     1      47.781   5.144  16.418  0.00  0.00    +0.000 OA
ATOM     15  C   UNL     1      49.975   6.018  16.563  0.00  0.00    +0.000 A 
ATOM     16  H   UNL     1      51.885   2.350  18.647  0.00  0.00    +0.000 HD
ATOM     17  H   UNL     1      50.266   1.847  18.579  0.00  0.00    +0.000 HD
ATOM     18  H   UNL     1      48.750   3.066  17.299  0.00  0.00    +0.000 HD
ENDBRANCH   2   5
BRANCH   1  19
ATOM     19  C   UNL     1      47.139   8.281  13.588  0.00  0.00    +0.000 C 
BRANCH  19  20
ATOM     20  C   UNL     1      46.386   7.159  12.885  0.00  0.00    +0.000 A 
ATOM     21  C   UNL     1      45.336   7.442  11.997  0.00  0.00    +0.000 A 
ATOM     22  C   UNL     1      44.578   6.406  11.432  0.00  0.00    +0.000 A 
ATOM     23  C   UNL     1      44.868   5.078  11.748  0.00  0.00    +0.000 A 
ATOM     24  C   UNL     1      45.898   4.795  12.641  0.00  0.00    +0.000 A 
ATOM     25  C   UNL     1      46.658   5.819  13.191  0.00  0.00    +0.000 A 
BRANCH  23  26
ATOM     26  O   UNL     1      44.098   4.118  11.150  0.00  0.00    +0.000 OA
BRANCH  26  27
ATOM     27  C   UNL     1      43.879   4.337   9.749  0.00  0.00    +0.000 C 
BRANCH  27  28
ATOM     28  C   UNL     1      44.920   3.611   8.943  0.00  0.00    +0.000 A 
ATOM     29  C   UNL     1      45.078   2.237   9.117  0.00  0.00    +0.000 A 
ATOM     30  C   UNL     1      46.009   1.569   8.334  0.00  0.00    +0.000 A 
ATOM     31  C   UNL     1      46.748   2.285   7.402  0.00  0.00    +0.000 A 
ATOM     32  C   UNL     1      46.521   3.646   7.283  0.00  0.00    +0.000 A 
ATOM     33  N   UNL     1      45.622   4.324   8.025  0.00  0.00    +0.000 NA
ENDBRANCH  27  28
ENDBRANCH  26  27
ENDBRANCH  23  26
ENDBRANCH  19  20
BRANCH  19  35
ATOM     34  C   UNL     1      48.770   9.120  11.806  0.00  0.00    +0.000 C 
ATOM     35  C   UNL     1      47.559   9.450  12.669  0.00  0.00    +0.000 C 
ENDBRANCH  19  35
ENDBRANCH   1  19
TORSDOF 7
ENDMDL
MODEL 4
REMARK VINA RESULT:    -8.179      2.131      2.867
REMARK INTER + INTRA:         -11.946
REMARK INTER:                 -10.683
REMARK INTRA:                  -1.263
REMARK UNBOUND:                -0.420
REMARK  Name = 
REMARK  8 active torsions:
REMARK  status: ('A' for Active; 'I' for Inactive)
REMARK    1  A    between atoms: C_1  and  C_2
REMARK    2  A    between atoms: C_2  and  C_3
REMARK    3  A    between atoms: C_3  and  N_4
REMARK    4  A    between atoms: C_3  and  C_18
REMARK    5  A    between atoms: C_5  and  C_7
REMARK    6  A    between atoms: C_21  and  O_22
REMARK    7  A    between atoms: O_22  and  C_23
REMARK    8  A    between atoms: C_23  and  C_24
REMARK                            x       y       z     vdW  Elec       q    Type
REMARK                         _______ _______ _______ _____ _____    ______ ____
ROOT
ATOM      1  N   UNL     1      48.162   6.323  14.668  0.00  0.00    +0.000 N 
ATOM      2  C   UNL     1      48.644   6.761  15.874  0.00  0.00    +0.000 C 
ATOM      3  O   UNL     1      48.523   7.927  16.241  0.00  0.00    +0.000 OA
ATOM      4  H   UNL     1      48.442   5.409  14.325  0.00  0.00    +0.000 HD
ENDROOT
BRANCH   2   5
ATOM      5  C   UNL     1      49.244   5.743  16.742  0.00  0.00    +0.000 A 
ATOM      6  C   UNL     1      48.429   4.848  17.423  0.00  0.00    +0.000 A 
ATOM      7  S   UNL     1      49.294   3.693  18.333  0.00  0.00    +0.000 S 
ATOM      8  C   UNL     1      50.786   4.390  17.907  0.00  0.00    +0.000 A 
ATOM      9  N   UNL     1      51.953   3.900  18.394  0.00  0.00    +0.000 NA
ATOM     10  C   UNL     1      53.020   4.558  18.050  0.00  0.00    +0.000 A 
ATOM     11  N   UNL     1      54.240   4.180  18.501  0.00  0.00    +0.000 N 
ATOM     12  N   UNL     1      52.985   5.650  17.221  0.00  0.00    +0.000 N 
ATOM     13  C   UNL     1      51.839   6.154  16.662  0.00  0.00    +0.000 A 
ATOM     14  O   UNL     1      51.873   7.098  15.874  0.00  0.00    +0.000 OA
ATOM     15  C   UNL     1      50.627   5.473  17.058  0.00  0.00    +0.000 A 
ATOM     16  H   UNL     1      54.246   3.247  18.900  0.00  0.00    +0.000 HD
ATOM     17  H   UNL     1      55.054   4.395  17.946  0.00  0.00    +0.000 HD
ATOM     18  H   UNL     1      53.838   6.137  16.993  0.00  0.00    +0.000 HD
ENDBRANCH   2   5
BRANCH   1  19
ATOM     19  C   UNL     1      47.470   7.193  13.730  0.00  0.00    +0.000 C 
BRANCH  19  20
ATOM     20  C   UNL     1      46.549   6.322  12.884  0.00  0.00    +0.000 A 
ATOM     21  C   UNL     1      46.253   5.004  13.267  0.00  0.00    +0.000 A 
ATOM     22  C   UNL     1      45.489   4.172  12.435  0.00  0.00    +0.000 A 
ATOM     23  C   UNL     1      45.012   4.655  11.216  0.00  0.00    +0.000 A 
ATOM     24  C   UNL     1      45.318   5.956  10.827  0.00  0.00    +0.000 A 
ATOM     25  C   UNL     1      46.062   6.785  11.655  0.00  0.00    +0.000 A 
BRANCH  23  26
ATOM     26  O   UNL     1      44.262   3.794  10.461  0.00  0.00    +0.000 OA
BRANCH  26  27
ATOM     27  C   UNL     1      44.261   4.099   9.059  0.00  0.00    +0.000 C 
BRANCH  27  28
ATOM     28  C   UNL     1      45.358   3.342   8.363  0.00  0.00    +0.000 A 
ATOM     29  C   UNL     1      45.520   1.983   8.630  0.00  0.00    +0.000 A 
ATOM     30  C   UNL     1      46.504   1.283   7.947  0.00  0.00    +0.000 A 
ATOM     31  C   UNL     1      47.291   1.952   7.020  0.00  0.00    +0.000 A 
ATOM     32  C   UNL     1      47.057   3.300   6.804  0.00  0.00    +0.000 A 
ATOM     33  N   UNL     1      46.106   4.008   7.448  0.00  0.00    +0.000 NA
ENDBRANCH  27  28
ENDBRANCH  26  27
ENDBRANCH  23  26
ENDBRANCH  19  20
BRANCH  19  35
ATOM     34  C   UNL     1      49.601   7.183  12.316  0.00  0.00    +0.000 C 
ATOM     35  C   UNL     1      48.487   8.028  12.922  0.00  0.00    +0.000 C 
ENDBRANCH  19  35
ENDBRANCH   1  19
TORSDOF 7
ENDMDL
MODEL 5
REMARK VINA RESULT:    -7.814      2.965      4.191
REMARK INTER + INTRA:         -11.432
REMARK INTER:                 -10.146
REMARK INTRA:                  -1.285
REMARK UNBOUND:                -0.420
REMARK  Name = 
REMARK  8 active torsions:
REMARK  status: ('A' for Active; 'I' for Inactive)
REMARK    1  A    between atoms: C_1  and  C_2
REMARK    2  A    between atoms: C_2  and  C_3
REMARK    3  A    between atoms: C_3  and  N_4
REMARK    4  A    between atoms: C_3  and  C_18
REMARK    5  A    between atoms: C_5  and  C_7
REMARK    6  A    between atoms: C_21  and  O_22
REMARK    7  A    between atoms: O_22  and  C_23
REMARK    8  A    between atoms: C_23  and  C_24
REMARK                            x       y       z     vdW  Elec       q    Type
REMARK                         _______ _______ _______ _____ _____    ______ ____
ROOT
ATOM      1  N   UNL     1      47.867   6.104  15.753  0.00  0.00    +0.000 N 
ATOM      2  C   UNL     1      49.027   6.805  15.956  0.00  0.00    +0.000 C 
ATOM      3  O   UNL     1      50.134   6.292  15.818  0.00  0.00    +0.000 OA
ATOM      4  H   UNL     1      46.985   6.506  16.054  0.00  0.00    +0.000 HD
ENDROOT
BRANCH   2   5
ATOM      5  C   UNL     1      48.877   8.230  16.272  0.00  0.00    +0.000 A 
ATOM      6  C   UNL     1      49.402   9.186  15.412  0.00  0.00    +0.000 A 
ATOM      7  S   UNL     1      49.080  10.790  15.897  0.00  0.00    +0.000 S 
ATOM      8  C   UNL     1      48.292  10.265  17.310  0.00  0.00    +0.000 A 
ATOM      9  N   UNL     1      47.803  11.154  18.211  0.00  0.00    +0.000 NA
ATOM     10  C   UNL     1      47.281  10.631  19.281  0.00  0.00    +0.000 A 
ATOM     11  N   UNL     1      46.789  11.422  20.264  0.00  0.00    +0.000 N 
ATOM     12  N   UNL     1      47.192   9.278  19.479  0.00  0.00    +0.000 N 
ATOM     13  C   UNL     1      47.624   8.339  18.579  0.00  0.00    +0.000 A 
ATOM     14  O   UNL     1      47.460   7.136  18.781  0.00  0.00    +0.000 OA
ATOM     15  C   UNL     1      48.250   8.883  17.395  0.00  0.00    +0.000 A 
ATOM     16  H   UNL     1      46.656  12.384  19.974  0.00  0.00    +0.000 HD
ATOM     17  H   UNL     1      46.053  11.065  20.854  0.00  0.00    +0.000 HD
ATOM     18  H   UNL     1      46.791   8.919  20.333  0.00  0.00    +0.000 HD
ENDBRANCH   2   5
BRANCH   1  19
ATOM     19  C   UNL     1      47.849   4.705  15.357  0.00  0.00    +0.000 C 
BRANCH  19  20
ATOM     20  C   UNL     1      46.911   4.574  14.164  0.00  0.00    +0.000 A 
ATOM     21  C   UNL     1      46.243   5.695  13.646  0.00  0.00    +0.000 A 
ATOM     22  C   UNL     1      45.303   5.555  12.615  0.00  0.00    +0.000 A 
ATOM     23  C   UNL     1      45.027   4.292  12.090  0.00  0.00    +0.000 A 
ATOM     24  C   UNL     1      45.675   3.176  12.613  0.00  0.00    +0.000 A 
ATOM     25  C   UNL     1      46.616   3.315  13.624  0.00  0.00    +0.000 A 
BRANCH  23  26
ATOM     26  O   UNL     1      44.109   4.230  11.077  0.00  0.00    +0.000 OA
BRANCH  26  27
ATOM     27  C   UNL     1      44.517   4.910   9.881  0.00  0.00    +0.000 C 
BRANCH  27  28
ATOM     28  C   UNL     1      45.300   3.978   8.998  0.00  0.00    +0.000 A 
ATOM     29  C   UNL     1      45.163   2.601   9.171  0.00  0.00    +0.000 A 
ATOM     30  C   UNL     1      45.854   1.751   8.320  0.00  0.00    +0.000 A 
ATOM     31  C   UNL     1      46.654   2.293   7.324  0.00  0.00    +0.000 A 
ATOM     32  C   UNL     1      46.726   3.672   7.211  0.00  0.00    +0.000 A 
ATOM     33  N   UNL     1      46.065   4.526   8.019  0.00  0.00    +0.000 NA
ENDBRANCH  27  28
ENDBRANCH  26  27
ENDBRANCH  23  26
ENDBRANCH  19  20
BRANCH  19  35
ATOM     34  C   UNL     1      48.626   2.893  16.986  0.00  0.00    +0.000 C 
ATOM     35  C   UNL     1      47.486   3.811  16.563  0.00  0.00    +0.000 C 
ENDBRANCH  19  35
ENDBRANCH   1  19
TORSDOF 7
ENDMDL
MODEL 6
REMARK VINA RESULT:    -7.335      3.900      8.155
REMARK INTER + INTRA:         -10.756
REMARK INTER:                  -9.529
REMARK INTRA:                  -1.227
REMARK UNBOUND:                -0.420
REMARK  Name = 
REMARK  8 active torsions:
REMARK  status: ('A' for Active; 'I' for Inactive)
REMARK    1  A    between atoms: C_1  and  C_2
REMARK    2  A    between atoms: C_2  and  C_3
REMARK    3  A    between atoms: C_3  and  N_4
REMARK    4  A    between atoms: C_3  and  C_18
REMARK    5  A    between atoms: C_5  and  C_7
REMARK    6  A    between atoms: C_21  and  O_22
REMARK    7  A    between atoms: O_22  and  C_23
REMARK    8  A    between atoms: C_23  and  C_24
REMARK                            x       y       z     vdW  Elec       q    Type
REMARK                         _______ _______ _______ _____ _____    ______ ____
ROOT
ATOM      1  N   UNL     1      47.920   7.589  14.996  0.00  0.00    +0.000 N 
ATOM      2  C   UNL     1      48.050   7.274  13.668  0.00  0.00    +0.000 C 
ATOM      3  O   UNL     1      49.138   7.275  13.099  0.00  0.00    +0.000 OA
ATOM      4  H   UNL     1      46.995   7.755  15.378  0.00  0.00    +0.000 HD
ENDROOT
BRANCH   2   5
ATOM      5  C   UNL     1      46.825   6.857  12.977  0.00  0.00    +0.000 A 
ATOM      6  C   UNL     1      46.062   7.797  12.297  0.00  0.00    +0.000 A 
ATOM      7  S   UNL     1      44.711   7.130  11.497  0.00  0.00    +0.000 S 
ATOM      8  C   UNL     1      45.056   5.574  12.091  0.00  0.00    +0.000 A 
ATOM      9  N   UNL     1      44.246   4.522  11.811  0.00  0.00    +0.000 NA
ATOM     10  C   UNL     1      44.578   3.399  12.376  0.00  0.00    +0.000 A 
ATOM     11  N   UNL     1      43.826   2.287  12.194  0.00  0.00    +0.000 N 
ATOM     12  N   UNL     1      45.687   3.266  13.169  0.00  0.00    +0.000 N 
ATOM     13  C   UNL     1      46.565   4.283  13.441  0.00  0.00    +0.000 A 
ATOM     14  O   UNL     1      47.580   4.091  14.109  0.00  0.00    +0.000 OA
ATOM     15  C   UNL     1      46.204   5.559  12.866  0.00  0.00    +0.000 A 
ATOM     16  H   UNL     1      43.172   2.369  11.424  0.00  0.00    +0.000 HD
ATOM     17  H   UNL     1      44.267   1.383  12.264  0.00  0.00    +0.000 HD
ATOM     18  H   UNL     1      45.897   2.376  13.597  0.00  0.00    +0.000 HD
ENDBRANCH   2   5
BRANCH   1  19
ATOM     19  C   UNL     1      49.052   7.944  15.838  0.00  0.00    +0.000 C 
BRANCH  19  20
ATOM     20  C   UNL     1      49.665   6.651  16.360  0.00  0.00    +0.000 A 
ATOM     21  C   UNL     1      48.851   5.596  16.803  0.00  0.00    +0.000 A 
ATOM     22  C   UNL     1      49.417   4.449  17.378  0.00  0.00    +0.000 A 
ATOM     23  C   UNL     1      50.803   4.347  17.510  0.00  0.00    +0.000 A 
ATOM     24  C   UNL     1      51.611   5.398  17.087  0.00  0.00    +0.000 A 
ATOM     25  C   UNL     1      51.053   6.529  16.505  0.00  0.00    +0.000 A 
BRANCH  23  26
ATOM     26  O   UNL     1      51.287   3.195  18.068  0.00  0.00    +0.000 OA
BRANCH  26  27
ATOM     27  C   UNL     1      52.628   3.309  18.565  0.00  0.00    +0.000 C 
BRANCH  27  28
ATOM     28  C   UNL     1      53.468   2.170  18.055  0.00  0.00    +0.000 A 
ATOM     29  C   UNL     1      54.632   2.451  17.341  0.00  0.00    +0.000 A 
ATOM     30  C   UNL     1      55.423   1.393  16.916  0.00  0.00    +0.000 A 
ATOM     31  C   UNL     1      55.037   0.095  17.217  0.00  0.00    +0.000 A 
ATOM     32  C   UNL     1      53.873  -0.098  17.942  0.00  0.00    +0.000 A 
ATOM     33  N   UNL     1      53.083   0.908  18.373  0.00  0.00    +0.000 NA
ENDBRANCH  27  28
ENDBRANCH  26  27
ENDBRANCH  23  26
ENDBRANCH  19  20
BRANCH  19  35
ATOM     34  C   UNL     1      48.816  10.394  16.534  0.00  0.00    +0.000 C 
ATOM     35  C   UNL     1      48.612   8.938  16.935  0.00  0.00    +0.000 C 
ENDBRANCH  19  35
ENDBRANCH   1  19
TORSDOF 7
ENDMDL
MODEL 7
REMARK VINA RESULT:    -7.230      1.886      2.481
REMARK INTER + INTRA:         -10.608
REMARK INTER:                 -10.202
REMARK INTRA:                  -0.406
REMARK UNBOUND:                -0.420
REMARK  Name = 
REMARK  8 active torsions:
REMARK  status: ('A' for Active; 'I' for Inactive)
REMARK    1  A    between atoms: C_1  and  C_2
REMARK    2  A    between atoms: C_2  and  C_3
REMARK    3  A    between atoms: C_3  and  N_4
REMARK    4  A    between atoms: C_3  and  C_18
REMARK    5  A    between atoms: C_5  and  C_7
REMARK    6  A    between atoms: C_21  and  O_22
REMARK    7  A    between atoms: O_22  and  C_23
REMARK    8  A    between atoms: C_23  and  C_24
REMARK                            x       y       z     vdW  Elec       q    Type
REMARK                         _______ _______ _______ _____ _____    ______ ____
ROOT
ATOM      1  N   UNL     1      47.210   7.262  14.466  0.00  0.00    +0.000 N 
ATOM      2  C   UNL     1      48.409   6.664  14.755  0.00  0.00    +0.000 C 
ATOM      3  O   UNL     1      49.275   6.491  13.901  0.00  0.00    +0.000 OA
ATOM      4  H   UNL     1      46.459   7.220  15.146  0.00  0.00    +0.000 HD
ENDROOT
BRANCH   2   5
ATOM      5  C   UNL     1      48.637   6.312  16.160  0.00  0.00    +0.000 A 
ATOM      6  C   UNL     1      48.807   4.981  16.519  0.00  0.00    +0.000 A 
ATOM      7  S   UNL     1      49.127   4.758  18.181  0.00  0.00    +0.000 S 
ATOM      8  C   UNL     1      48.978   6.424  18.491  0.00  0.00    +0.000 A 
ATOM      9  N   UNL     1      49.096   6.915  19.750  0.00  0.00    +0.000 NA
ATOM     10  C   UNL     1      48.897   8.194  19.870  0.00  0.00    +0.000 A 
ATOM     11  N   UNL     1      48.959   8.791  21.084  0.00  0.00    +0.000 N 
ATOM     12  N   UNL     1      48.623   9.006  18.800  0.00  0.00    +0.000 N 
ATOM     13  C   UNL     1      48.543   8.569  17.503  0.00  0.00    +0.000 A 
ATOM     14  O   UNL     1      48.357   9.354  16.574  0.00  0.00    +0.000 OA
ATOM     15  C   UNL     1      48.716   7.144  17.337  0.00  0.00    +0.000 A 
ATOM     16  H   UNL     1      49.395   8.211  21.792  0.00  0.00    +0.000 HD
ATOM     17  H   UNL     1      49.214   9.765  21.136  0.00  0.00    +0.000 HD
ATOM     18  H   UNL     1      48.462   9.992  18.944  0.00  0.00    +0.000 HD
ENDBRANCH   2   5
BRANCH   1  19
ATOM     19  C   UNL     1      46.866   7.741  13.136  0.00  0.00    +0.000 C 
BRANCH  19  20
ATOM     20  C   UNL     1      46.214   6.588  12.384  0.00  0.00    +0.000 A 
ATOM     21  C   UNL     1      45.808   5.425  13.058  0.00  0.00    +0.000 A 
ATOM     22  C   UNL     1      45.304   4.326  12.349  0.00  0.00    +0.000 A 
ATOM     23  C   UNL     1      45.197   4.383  10.958  0.00  0.00    +0.000 A 
ATOM     24  C   UNL     1      45.613   5.528  10.286  0.00  0.00    +0.000 A 
ATOM     25  C   UNL     1      46.101   6.623  10.988  0.00  0.00    +0.000 A 
BRANCH  23  26
ATOM     26  O   UNL     1      44.684   3.280  10.332  0.00  0.00    +0.000 OA
BRANCH  26  27
ATOM     27  C   UNL     1      44.412   3.477   8.937  0.00  0.00    +0.000 C 
BRANCH  27  28
ATOM     28  C   UNL     1      45.504   2.863   8.106  0.00  0.00    +0.000 A 
ATOM     29  C   UNL     1      45.964   1.586   8.424  0.00  0.00    +0.000 A 
ATOM     30  C   UNL     1      46.939   1.010   7.622  0.00  0.00    +0.000 A 
ATOM     31  C   UNL     1      47.420   1.716   6.528  0.00  0.00    +0.000 A 
ATOM     32  C   UNL     1      46.901   2.975   6.274  0.00  0.00    +0.000 A 
ATOM     33  N   UNL     1      45.951   3.561   7.031  0.00  0.00    +0.000 NA
ENDBRANCH  27  28
ENDBRANCH  26  27
ENDBRANCH  23  26
ENDBRANCH  19  20
BRANCH  19  35
ATOM     34  C   UNL     1      48.091   9.865  12.409  0.00  0.00    +0.000 C 
ATOM     35  C   UNL     1      48.109   8.341  12.444  0.00  0.00    +0.000 C 
ENDBRANCH  19  35
ENDBRANCH   1  19
TORSDOF 7
ENDMDL
MODEL 8
REMARK VINA RESULT:    -6.674      2.429      3.395
REMARK INTER + INTRA:          -9.825
REMARK INTER:                  -8.619
REMARK INTRA:                  -1.206
REMARK UNBOUND:                -0.420
REMARK  Name = 
REMARK  8 active torsions:
REMARK  status: ('A' for Active; 'I' for Inactive)
REMARK    1  A    between atoms: C_1  and  C_2
REMARK    2  A    between atoms: C_2  and  C_3
REMARK    3  A    between atoms: C_3  and  N_4
REMARK    4  A    between atoms: C_3  and  C_18
REMARK    5  A    between atoms: C_5  and  C_7
REMARK    6  A    between atoms: C_21  and  O_22
REMARK    7  A    between atoms: O_22  and  C_23
REMARK    8  A    between atoms: C_23  and  C_24
REMARK                            x       y       z     vdW  Elec       q    Type
REMARK                         _______ _______ _______ _____ _____    ______ ____
ROOT
ATOM      1  N   UNL     1      50.594   7.985  13.559  0.00  0.00    +0.000 N 
ATOM      2  C   UNL     1      51.253   8.505  14.643  0.00  0.00    +0.000 C 
ATOM      3  O   UNL     1      51.085   9.663  15.015  0.00  0.00    +0.000 OA
ATOM      4  H   UNL     1      50.895   7.094  13.177  0.00  0.00    +0.000 HD
ENDROOT
BRANCH   2   5
ATOM      5  C   UNL     1      52.114   7.579  15.385  0.00  0.00    +0.000 A 
ATOM      6  C   UNL     1      53.495   7.686  15.281  0.00  0.00    +0.000 A 
ATOM      7  S   UNL     1      54.342   6.575  16.261  0.00  0.00    +0.000 S 
ATOM      8  C   UNL     1      52.895   5.863  16.803  0.00  0.00    +0.000 A 
ATOM      9  N   UNL     1      52.910   4.803  17.648  0.00  0.00    +0.000 NA
ATOM     10  C   UNL     1      51.744   4.305  17.938  0.00  0.00    +0.000 A 
ATOM     11  N   UNL     1      51.637   3.226  18.749  0.00  0.00    +0.000 N 
ATOM     12  N   UNL     1      50.573   4.832  17.460  0.00  0.00    +0.000 N 
ATOM     13  C   UNL     1      50.500   5.932  16.645  0.00  0.00    +0.000 A 
ATOM     14  O   UNL     1      49.416   6.399  16.296  0.00  0.00    +0.000 OA
ATOM     15  C   UNL     1      51.780   6.485  16.266  0.00  0.00    +0.000 A 
ATOM     16  H   UNL     1      52.488   3.026  19.263  0.00  0.00    +0.000 HD
ATOM     17  H   UNL     1      50.794   3.102  19.287  0.00  0.00    +0.000 HD
ATOM     18  H   UNL     1      49.692   4.403  17.702  0.00  0.00    +0.000 HD
ENDBRANCH   2   5
BRANCH   1  19
ATOM     19  C   UNL     1      49.645   8.752  12.768  0.00  0.00    +0.000 C 
BRANCH  19  20
ATOM     20  C   UNL     1      48.383   7.913  12.616  0.00  0.00    +0.000 A 
ATOM     21  C   UNL     1      47.190   8.485  12.146  0.00  0.00    +0.000 A 
ATOM     22  C   UNL     1      46.005   7.736  12.105  0.00  0.00    +0.000 A 
ATOM     23  C   UNL     1      46.007   6.406  12.529  0.00  0.00    +0.000 A 
ATOM     24  C   UNL     1      47.184   5.841  13.010  0.00  0.00    +0.000 A 
ATOM     25  C   UNL     1      48.361   6.578  13.039  0.00  0.00    +0.000 A 
BRANCH  23  26
ATOM     26  O   UNL     1      44.819   5.731  12.449  0.00  0.00    +0.000 OA
BRANCH  26  27
ATOM     27  C   UNL     1      44.966   4.310  12.319  0.00  0.00    +0.000 C 
BRANCH  27  28
ATOM     28  C   UNL     1      44.893   3.912  10.870  0.00  0.00    +0.000 A 
ATOM     29  C   UNL     1      45.278   4.830   9.893  0.00  0.00    +0.000 A 
ATOM     30  C   UNL     1      45.252   4.436   8.563  0.00  0.00    +0.000 A 
ATOM     31  C   UNL     1      44.851   3.146   8.246  0.00  0.00    +0.000 A 
ATOM     32  C   UNL     1      44.496   2.292   9.277  0.00  0.00    +0.000 A 
ATOM     33  N   UNL     1      44.514   2.641  10.580  0.00  0.00    +0.000 NA
ENDBRANCH  27  28
ENDBRANCH  26  27
ENDBRANCH  23  26
ENDBRANCH  19  20
BRANCH  19  35
ATOM     34  C   UNL     1      49.978  10.640  11.074  0.00  0.00    +0.000 C 
ATOM     35  C   UNL     1      50.291   9.193  11.436  0.00  0.00    +0.000 C 
ENDBRANCH  19  35
ENDBRANCH   1  19
TORSDOF 7
ENDMDL
