MODEL 1
REMARK VINA RESULT:    -7.595      0.000      0.000
REMARK INTER + INTRA:          -9.923
REMARK INTER:                  -9.593
REMARK INTRA:                  -0.330
REMARK UNBOUND:                -0.330
REMARK  Name = 
REMARK  5 active torsions:
REMARK  status: ('A' for Active; 'I' for Inactive)
REMARK    1  A    between atoms: N_1  and  C_2
REMARK    2  A    between atoms: C_2  and  C_3
REMARK    3  A    between atoms: C_6  and  C_7
REMARK    4  A    between atoms: C_7  and  O_8
REMARK    5  A    between atoms: O_8  and  C_9
REMARK                            x       y       z     vdW  Elec       q    Type
REMARK                         _______ _______ _______ _____ _____    ______ ____
ROOT
ATOM      1  C   UNL     1      46.059   4.377  13.126  0.00  0.00    +0.000 A 
ATOM      2  C   UNL     1      46.064   5.429  12.216  0.00  0.00    +0.000 A 
ATOM      3  N   UNL     1      45.505   5.344  10.983  0.00  0.00    +0.000 NA
ATOM      4  C   UNL     1      44.910   4.161  10.686  0.00  0.00    +0.000 A 
ATOM      5  C   UNL     1      44.874   3.121  11.609  0.00  0.00    +0.000 A 
ATOM      6  N   UNL     1      45.450   3.198  12.833  0.00  0.00    +0.000 NA
ENDROOT
BRANCH   1   7
ATOM      7  C   UNL     1      46.769   4.506  14.451  0.00  0.00    +0.000 C 
BRANCH   7   8
ATOM      8  N   UNL     1      47.554   3.321  14.804  0.00  0.00    +0.000 NA
ATOM      9  H   UNL     1      46.996   2.491  14.609  0.00  0.00    +0.000 HD
ATOM     10  H   UNL     1      47.697   3.325  15.816  0.00  0.00    +0.000 HD
ENDBRANCH   7   8
ENDBRANCH   1   7
BRANCH   4  11
ATOM     11  C   UNL     1      44.308   3.989   9.315  0.00  0.00    +0.000 C 
BRANCH  11  12
ATOM     12  O   UNL     1      45.292   4.275   8.319  0.00  0.00    +0.000 OA
BRANCH  12  13
ATOM     13  C   UNL     1      46.057   3.225   7.893  0.00  0.00    +0.000 A 
ATOM     14  C   UNL     1      47.114   3.567   7.053  0.00  0.00    +0.000 A 
ATOM     15  C   UNL     1      47.923   2.558   6.557  0.00  0.00    +0.000 A 
ATOM     16  N   UNL     1      47.749   1.252   6.840  0.00  0.00    +0.000 NA
ATOM     17  C   UNL     1      46.723   0.952   7.660  0.00  0.00    +0.000 A 
ATOM     18  F   UNL     1      46.523  -0.341   7.951  0.00  0.00    +0.000 F 
ATOM     19  C   UNL     1      45.860   1.885   8.209  0.00  0.00    +0.000 A 
ENDBRANCH  12  13
ENDBRANCH  11  12
ENDBRANCH   4  11
TORSDOF 5
ENDMDL
MODEL 2
REMARK VINA RESULT:    -7.096      1.314      1.674
REMARK INTER + INTRA:          -9.292
REMARK INTER:                  -8.928
REMARK INTRA:                  -0.365
REMARK UNBOUND:                -0.330
REMARK  Name = 
REMARK  5 active torsions:
REMARK  status: ('A' for Active; 'I' for Inactive)
REMARK    1  A    between atoms: N_1  and  C_2
REMARK    2  A    between atoms: C_2  and  C_3
REMARK    3  A    between atoms: C_6  and  C_7
REMARK    4  A    between atoms: C_7  and  O_8
REMARK    5  A    between atoms: O_8  and  C_9
REMARK                            x       y       z     vdW  Elec       q    Type
REMARK                         _______ _______ _______ _____ _____    ______ ____
ROOT
ATOM      1  C   UNL     1      46.121   4.466  13.261  0.00  0.00    +0.000 A 
ATOM      2  C   UNL     1      46.333   5.544  12.408  0.00  0.00    +0.000 A 
ATOM      3  N   UNL     1      45.864   5.585  11.136  0.00  0.00    +0.000 NA
ATOM      4  C   UNL     1      45.143   4.505  10.738  0.00  0.00    +0.000 A 
ATOM      5  C   UNL     1      44.902   3.444  11.603  0.00  0.00    +0.000 A 
ATOM      6  N   UNL     1      45.388   3.393  12.867  0.00  0.00    +0.000 NA
ENDROOT
BRANCH   1   7
ATOM      7  C   UNL     1      46.739   4.445  14.638  0.00  0.00    +0.000 C 
BRANCH   7   8
ATOM      8  N   UNL     1      47.587   3.274  14.872  0.00  0.00    +0.000 NA
ATOM      9  H   UNL     1      48.161   3.448  15.696  0.00  0.00    +0.000 HD
ATOM     10  H   UNL     1      48.243   3.196  14.091  0.00  0.00    +0.000 HD
ENDBRANCH   7   8
ENDBRANCH   1   7
BRANCH   4  11
ATOM     11  C   UNL     1      44.631   4.472   9.322  0.00  0.00    +0.000 C 
BRANCH  11  12
ATOM     12  O   UNL     1      44.470   3.116   8.900  0.00  0.00    +0.000 OA
BRANCH  12  13
ATOM     13  C   UNL     1      45.417   2.622   8.047  0.00  0.00    +0.000 A 
ATOM     14  C   UNL     1      45.953   1.389   8.411  0.00  0.00    +0.000 A 
ATOM     15  C   UNL     1      46.938   0.830   7.612  0.00  0.00    +0.000 A 
ATOM     16  N   UNL     1      47.415   1.412   6.494  0.00  0.00    +0.000 NA
ATOM     17  C   UNL     1      46.873   2.602   6.165  0.00  0.00    +0.000 A 
ATOM     18  F   UNL     1      47.336   3.207   5.062  0.00  0.00    +0.000 F 
ATOM     19  C   UNL     1      45.885   3.241   6.893  0.00  0.00    +0.000 A 
ENDBRANCH  12  13
ENDBRANCH  11  12
ENDBRANCH   4  11
TORSDOF 5
ENDMDL
MODEL 3
REMARK VINA RESULT:    -7.062      2.447      5.911
REMARK INTER + INTRA:          -9.250
REMARK INTER:                  -8.879
REMARK INTRA:                  -0.371
REMARK UNBOUND:                -0.330
REMARK  Name = 
REMARK  5 active torsions:
REMARK  status: ('A' for Active; 'I' for Inactive)
REMARK    1  A    between atoms: N_1  and  C_2
REMARK    2  A    between atoms: C_2  and  C_3
REMARK    3  A    between atoms: C_6  and  C_7
REMARK    4  A    between atoms: C_7  and  O_8
REMARK    5  A    between atoms: O_8  and  C_9
REMARK                            x       y       z     vdW  Elec       q    Type
REMARK                         _______ _______ _______ _____ _____    ______ ____
ROOT
ATOM      1  C   UNL     1      46.495   2.743   6.938  0.00  0.00    +0.000 A 
ATOM      2  C   UNL     1      46.360   1.643   7.778  0.00  0.00    +0.000 A 
ATOM      3  N   UNL     1      45.622   1.667   8.916  0.00  0.00    +0.000 NA
ATOM      4  C   UNL     1      44.993   2.840   9.187  0.00  0.00    +0.000 A 
ATOM      5  C   UNL     1      45.100   3.928   8.328  0.00  0.00    +0.000 A 
ATOM      6  N   UNL     1      45.854   3.911   7.201  0.00  0.00    +0.000 NA
ENDROOT
BRANCH   1   7
ATOM      7  C   UNL     1      47.396   2.678   5.730  0.00  0.00    +0.000 C 
BRANCH   7   8
ATOM      8  N   UNL     1      48.465   1.685   5.859  0.00  0.00    +0.000 NA
ATOM      9  H   UNL     1      49.344   2.113   5.572  0.00  0.00    +0.000 HD
ATOM     10  H   UNL     1      48.288   0.939   5.182  0.00  0.00    +0.000 HD
ENDBRANCH   7   8
ENDBRANCH   1   7
BRANCH   4  11
ATOM     11  C   UNL     1      44.192   2.943  10.459  0.00  0.00    +0.000 C 
BRANCH  11  12
ATOM     12  O   UNL     1      44.318   4.260  11.000  0.00  0.00    +0.000 OA
BRANCH  12  13
ATOM     13  C   UNL     1      45.341   4.466  11.883  0.00  0.00    +0.000 A 
ATOM     14  C   UNL     1      45.929   5.727  11.821  0.00  0.00    +0.000 A 
ATOM     15  C   UNL     1      46.990   6.009  12.665  0.00  0.00    +0.000 A 
ATOM     16  N   UNL     1      47.496   5.128  13.551  0.00  0.00    +0.000 NA
ATOM     17  C   UNL     1      46.904   3.918  13.592  0.00  0.00    +0.000 A 
ATOM     18  F   UNL     1      47.393   3.020  14.459  0.00  0.00    +0.000 F 
ATOM     19  C   UNL     1      45.837   3.540  12.794  0.00  0.00    +0.000 A 
ENDBRANCH  12  13
ENDBRANCH  11  12
ENDBRANCH   4  11
TORSDOF 5
ENDMDL
MODEL 4
REMARK VINA RESULT:    -6.818      2.803      5.979
REMARK INTER + INTRA:          -8.942
REMARK INTER:                  -8.641
REMARK INTRA:                  -0.300
REMARK UNBOUND:                -0.330
REMARK  Name = 
REMARK  5 active torsions:
REMARK  status: ('A' for Active; 'I' for Inactive)
REMARK    1  A    between atoms: N_1  and  C_2
REMARK    2  A    between atoms: C_2  and  C_3
REMARK    3  A    between atoms: C_6  and  C_7
REMARK    4  A    between atoms: C_7  and  O_8
REMARK    5  A    between atoms: O_8  and  C_9
REMARK                            x       y       z     vdW  Elec       q    Type
REMARK                         _______ _______ _______ _____ _____    ______ ____
ROOT
ATOM      1  C   UNL     1      46.660   2.166   7.451  0.00  0.00    +0.000 A 
ATOM      2  C   UNL     1      46.512   3.537   7.265  0.00  0.00    +0.000 A 
ATOM      3  N   UNL     1      45.670   4.298   8.007  0.00  0.00    +0.000 NA
ATOM      4  C   UNL     1      44.980   3.641   8.976  0.00  0.00    +0.000 A 
ATOM      5  C   UNL     1      45.156   2.277   9.185  0.00  0.00    +0.000 A 
ATOM      6  N   UNL     1      45.982   1.513   8.429  0.00  0.00    +0.000 NA
ENDROOT
BRANCH   1   7
ATOM      7  C   UNL     1      47.552   1.361   6.539  0.00  0.00    +0.000 C 
BRANCH   7   8
ATOM      8  N   UNL     1      48.590   2.166   5.889  0.00  0.00    +0.000 NA
ATOM      9  H   UNL     1      48.274   3.133   5.848  0.00  0.00    +0.000 HD
ATOM     10  H   UNL     1      48.667   1.859   4.916  0.00  0.00    +0.000 HD
ENDBRANCH   7   8
ENDBRANCH   1   7
BRANCH   4  11
ATOM     11  C   UNL     1      43.997   4.423   9.807  0.00  0.00    +0.000 C 
BRANCH  11  12
ATOM     12  O   UNL     1      44.200   4.135  11.192  0.00  0.00    +0.000 OA
BRANCH  12  13
ATOM     13  C   UNL     1      45.231   4.788  11.810  0.00  0.00    +0.000 A 
ATOM     14  C   UNL     1      45.706   4.177  12.968  0.00  0.00    +0.000 A 
ATOM     15  C   UNL     1      46.733   4.788  13.668  0.00  0.00    +0.000 A 
ATOM     16  N   UNL     1      47.306   5.949  13.295  0.00  0.00    +0.000 NA
ATOM     17  C   UNL     1      46.829   6.514  12.168  0.00  0.00    +0.000 A 
ATOM     18  F   UNL     1      47.377   7.674  11.779  0.00  0.00    +0.000 F 
ATOM     19  C   UNL     1      45.810   5.983  11.397  0.00  0.00    +0.000 A 
ENDBRANCH  12  13
ENDBRANCH  11  12
ENDBRANCH   4  11
TORSDOF 5
ENDMDL
MODEL 5
REMARK VINA RESULT:    -6.684      1.959      2.521
REMARK INTER + INTRA:          -8.772
REMARK INTER:                  -8.500
REMARK INTRA:                  -0.272
REMARK UNBOUND:                -0.330
REMARK  Name = 
REMARK  5 active torsions:
REMARK  status: ('A' for Active; 'I' for Inactive)
REMARK    1  A    between atoms: N_1  and  C_2
REMARK    2  A    between atoms: C_2  and  C_3
REMARK    3  A    between atoms: C_6  and  C_7
REMARK    4  A    between atoms: C_7  and  O_8
REMARK    5  A    between atoms: O_8  and  C_9
REMARK                            x       y       z     vdW  Elec       q    Type
REMARK                         _______ _______ _______ _____ _____    ______ ____
ROOT
ATOM      1  C   UNL     1      45.299   6.980  12.165  0.00  0.00    +0.000 A 
ATOM      2  C   UNL     1      44.168   6.208  12.409  0.00  0.00    +0.000 A 
ATOM      3  N   UNL     1      43.848   5.112  11.677  0.00  0.00    +0.000 NA
ATOM      4  C   UNL     1      44.719   4.789  10.687  0.00  0.00    +0.000 A 
ATOM      5  C   UNL     1      45.868   5.541  10.467  0.00  0.00    +0.000 A 
ATOM      6  N   UNL     1      46.178   6.648  11.184  0.00  0.00    +0.000 NA
ENDROOT
BRANCH   1   7
ATOM      7  C   UNL     1      45.557   8.235  12.963  0.00  0.00    +0.000 C 
BRANCH   7   8
ATOM      8  N   UNL     1      44.691   9.352  12.578  0.00  0.00    +0.000 NA
ATOM      9  H   UNL     1      44.990   9.697  11.667  0.00  0.00    +0.000 HD
ATOM     10  H   UNL     1      44.856  10.121  13.231  0.00  0.00    +0.000 HD
ENDBRANCH   7   8
ENDBRANCH   1   7
BRANCH   4  11
ATOM     11  C   UNL     1      44.397   3.607   9.811  0.00  0.00    +0.000 C 
BRANCH  11  12
ATOM     12  O   UNL     1      44.897   3.835   8.491  0.00  0.00    +0.000 OA
BRANCH  12  13
ATOM     13  C   UNL     1      45.817   2.940   8.019  0.00  0.00    +0.000 A 
ATOM     14  C   UNL     1      46.847   3.495   7.264  0.00  0.00    +0.000 A 
ATOM     15  C   UNL     1      47.807   2.651   6.728  0.00  0.00    +0.000 A 
ATOM     16  N   UNL     1      47.804   1.314   6.892  0.00  0.00    +0.000 NA
ATOM     17  C   UNL     1      46.798   0.807   7.632  0.00  0.00    +0.000 A 
ATOM     18  F   UNL     1      46.768  -0.522   7.804  0.00  0.00    +0.000 F 
ATOM     19  C   UNL     1      45.794   1.563   8.213  0.00  0.00    +0.000 A 
ENDBRANCH  12  13
ENDBRANCH  11  12
ENDBRANCH   4  11
TORSDOF 5
ENDMDL
MODEL 6
REMARK VINA RESULT:    -5.613      3.698      5.775
REMARK INTER + INTRA:          -7.420
REMARK INTER:                  -7.185
REMARK INTRA:                  -0.235
REMARK UNBOUND:                -0.330
REMARK  Name = 
REMARK  5 active torsions:
REMARK  status: ('A' for Active; 'I' for Inactive)
REMARK    1  A    between atoms: N_1  and  C_2
REMARK    2  A    between atoms: C_2  and  C_3
REMARK    3  A    between atoms: C_6  and  C_7
REMARK    4  A    between atoms: C_7  and  O_8
REMARK    5  A    between atoms: O_8  and  C_9
REMARK                            x       y       z     vdW  Elec       q    Type
REMARK                         _______ _______ _______ _____ _____    ______ ____
ROOT
ATOM      1  C   UNL     1      48.307   4.581  18.100  0.00  0.00    +0.000 A 
ATOM      2  C   UNL     1      47.617   3.451  17.673  0.00  0.00    +0.000 A 
ATOM      3  N   UNL     1      47.171   3.292  16.402  0.00  0.00    +0.000 NA
ATOM      4  C   UNL     1      47.458   4.305  15.545  0.00  0.00    +0.000 A 
ATOM      5  C   UNL     1      48.179   5.418  15.964  0.00  0.00    +0.000 A 
ATOM      6  N   UNL     1      48.607   5.587  17.238  0.00  0.00    +0.000 NA
ENDROOT
BRANCH   1   7
ATOM      7  C   UNL     1      48.705   4.734  19.547  0.00  0.00    +0.000 C 
BRANCH   7   8
ATOM      8  N   UNL     1      48.337   3.582  20.373  0.00  0.00    +0.000 NA
ATOM      9  H   UNL     1      47.540   3.839  20.953  0.00  0.00    +0.000 HD
ATOM     10  H   UNL     1      49.104   3.400  21.024  0.00  0.00    +0.000 HD
ENDBRANCH   7   8
ENDBRANCH   1   7
BRANCH   4  11
ATOM     11  C   UNL     1      46.953   4.207  14.129  0.00  0.00    +0.000 C 
BRANCH  11  12
ATOM     12  O   UNL     1      45.688   4.865  14.023  0.00  0.00    +0.000 OA
BRANCH  12  13
ATOM     13  C   UNL     1      44.892   4.498  12.974  0.00  0.00    +0.000 A 
ATOM     14  C   UNL     1      43.674   5.169  12.895  0.00  0.00    +0.000 A 
ATOM     15  C   UNL     1      42.797   4.838  11.875  0.00  0.00    +0.000 A 
ATOM     16  N   UNL     1      43.052   3.897  10.945  0.00  0.00    +0.000 NA
ATOM     17  C   UNL     1      44.240   3.269  11.043  0.00  0.00    +0.000 A 
ATOM     18  F   UNL     1      44.516   2.323  10.135  0.00  0.00    +0.000 F 
ATOM     19  C   UNL     1      45.185   3.528  12.021  0.00  0.00    +0.000 A 
ENDBRANCH  12  13
ENDBRANCH  11  12
ENDBRANCH   4  11
TORSDOF 5
ENDMDL
MODEL 7
REMARK VINA RESULT:    -5.504      4.511      6.720
REMARK INTER + INTRA:          -7.282
REMARK INTER:                  -6.982
REMARK INTRA:                  -0.300
REMARK UNBOUND:                -0.330
REMARK  Name = 
REMARK  5 active torsions:
REMARK  status: ('A' for Active; 'I' for Inactive)
REMARK    1  A    between atoms: N_1  and  C_2
REMARK    2  A    between atoms: C_2  and  C_3
REMARK    3  A    between atoms: C_6  and  C_7
REMARK    4  A    between atoms: C_7  and  O_8
REMARK    5  A    between atoms: O_8  and  C_9
REMARK                            x       y       z     vdW  Elec       q    Type
REMARK                         _______ _______ _______ _____ _____    ______ ____
ROOT
ATOM      1  C   UNL     1      50.683   2.510  17.313  0.00  0.00    +0.000 A 
ATOM      2  C   UNL     1      50.424   3.854  17.565  0.00  0.00    +0.000 A 
ATOM      3  N   UNL     1      49.295   4.480  17.150  0.00  0.00    +0.000 NA
ATOM      4  C   UNL     1      48.403   3.706  16.479  0.00  0.00    +0.000 A 
ATOM      5  C   UNL     1      48.647   2.355  16.258  0.00  0.00    +0.000 A 
ATOM      6  N   UNL     1      49.784   1.733  16.655  0.00  0.00    +0.000 NA
ENDROOT
BRANCH   1   7
ATOM      7  C   UNL     1      51.994   1.892  17.731  0.00  0.00    +0.000 C 
BRANCH   7   8
ATOM      8  N   UNL     1      51.883   0.468  18.057  0.00  0.00    +0.000 NA
ATOM      9  H   UNL     1      52.230   0.323  19.004  0.00  0.00    +0.000 HD
ATOM     10  H   UNL     1      52.522  -0.048  17.447  0.00  0.00    +0.000 HD
ENDBRANCH   7   8
ENDBRANCH   1   7
BRANCH   4  11
ATOM     11  C   UNL     1      47.149   4.354  15.954  0.00  0.00    +0.000 C 
BRANCH  11  12
ATOM     12  O   UNL     1      46.737   3.701  14.752  0.00  0.00    +0.000 OA
BRANCH  12  13
ATOM     13  C   UNL     1      46.476   4.504  13.675  0.00  0.00    +0.000 A 
ATOM     14  C   UNL     1      45.375   4.125  12.911  0.00  0.00    +0.000 A 
ATOM     15  C   UNL     1      45.057   4.871  11.787  0.00  0.00    +0.000 A 
ATOM     16  N   UNL     1      45.755   5.951  11.385  0.00  0.00    +0.000 NA
ATOM     17  C   UNL     1      46.811   6.297  12.148  0.00  0.00    +0.000 A 
ATOM     18  F   UNL     1      47.527   7.363  11.764  0.00  0.00    +0.000 F 
ATOM     19  C   UNL     1      47.208   5.620  13.288  0.00  0.00    +0.000 A 
ENDBRANCH  12  13
ENDBRANCH  11  12
ENDBRANCH   4  11
TORSDOF 5
ENDMDL
MODEL 8
REMARK VINA RESULT:    -5.484      4.020      7.577
REMARK INTER + INTRA:          -7.256
REMARK INTER:                  -7.003
REMARK INTRA:                  -0.253
REMARK UNBOUND:                -0.330
REMARK  Name = 
REMARK  5 active torsions:
REMARK  status: ('A' for Active; 'I' for Inactive)
REMARK    1  A    between atoms: N_1  and  C_2
REMARK    2  A    between atoms: C_2  and  C_3
REMARK    3  A    between atoms: C_6  and  C_7
REMARK    4  A    between atoms: C_7  and  O_8
REMARK    5  A    between atoms: O_8  and  C_9
REMARK                            x       y       z     vdW  Elec       q    Type
REMARK                         _______ _______ _______ _____ _____    ______ ____
ROOT
ATOM      1  C   UNL     1      44.787   4.343  10.810  0.00  0.00    +0.000 A 
ATOM      2  C   UNL     1      44.738   3.364  11.796  0.00  0.00    +0.000 A 
ATOM      3  N   UNL     1      45.408   3.462  12.972  0.00  0.00    +0.000 NA
ATOM      4  C   UNL     1      46.127   4.601  13.147  0.00  0.00    +0.000 A 
ATOM      5  C   UNL     1      46.147   5.596  12.175  0.00  0.00    +0.000 A 
ATOM      6  N   UNL     1      45.495   5.488  10.992  0.00  0.00    +0.000 NA
ENDROOT
BRANCH   1   7
ATOM      7  C   UNL     1      44.085   4.137   9.490  0.00  0.00    +0.000 C 
BRANCH   7   8
ATOM      8  N   UNL     1      44.194   2.766   8.986  0.00  0.00    +0.000 NA
ATOM      9  H   UNL     1      45.178   2.555   8.827  0.00  0.00    +0.000 HD
ATOM     10  H   UNL     1      43.752   2.732   8.064  0.00  0.00    +0.000 HD
ENDBRANCH   7   8
ENDBRANCH   1   7
BRANCH   4  11
ATOM     11  C   UNL     1      46.928   4.752  14.414  0.00  0.00    +0.000 C 
BRANCH  11  12
ATOM     12  O   UNL     1      46.948   3.510  15.120  0.00  0.00    +0.000 OA
BRANCH  12  13
ATOM     13  C   UNL     1      47.742   3.449  16.232  0.00  0.00    +0.000 A 
ATOM     14  C   UNL     1      47.435   4.374  17.227  0.00  0.00    +0.000 A 
ATOM     15  C   UNL     1      48.208   4.396  18.377  0.00  0.00    +0.000 A 
ATOM     16  N   UNL     1      49.249   3.569  18.594  0.00  0.00    +0.000 NA
ATOM     17  C   UNL     1      49.518   2.680  17.617  0.00  0.00    +0.000 A 
ATOM     18  F   UNL     1      50.555   1.851  17.804  0.00  0.00    +0.000 F 
ATOM     19  C   UNL     1      48.806   2.577  16.434  0.00  0.00    +0.000 A 
ENDBRANCH  12  13
ENDBRANCH  11  12
ENDBRANCH   4  11
TORSDOF 5
ENDMDL
MODEL 9
REMARK VINA RESULT:    -4.824      4.075      6.300
REMARK INTER + INTRA:          -6.423
REMARK INTER:                  -6.184
REMARK INTRA:                  -0.238
REMARK UNBOUND:                -0.330
REMARK  Name = 
REMARK  5 active torsions:
REMARK  status: ('A' for Active; 'I' for Inactive)
REMARK    1  A    between atoms: N_1  and  C_2
REMARK    2  A    between atoms: C_2  and  C_3
REMARK    3  A    between atoms: C_6  and  C_7
REMARK    4  A    between atoms: C_7  and  O_8
REMARK    5  A    between atoms: O_8  and  C_9
REMARK                            x       y       z     vdW  Elec       q    Type
REMARK                         _______ _______ _______ _____ _____    ______ ____
ROOT
ATOM      1  C   UNL     1      50.627   3.194  17.500  0.00  0.00    +0.000 A 
ATOM      2  C   UNL     1      50.242   4.517  17.303  0.00  0.00    +0.000 A 
ATOM      3  N   UNL     1      49.095   4.867  16.670  0.00  0.00    +0.000 NA
ATOM      4  C   UNL     1      48.315   3.837  16.250  0.00  0.00    +0.000 A 
ATOM      5  C   UNL     1      48.683   2.516  16.480  0.00  0.00    +0.000 A 
ATOM      6  N   UNL     1      49.839   2.165  17.093  0.00  0.00    +0.000 NA
ENDROOT
BRANCH   1   7
ATOM      7  C   UNL     1      51.955   2.870  18.139  0.00  0.00    +0.000 C 
BRANCH   7   8
ATOM      8  N   UNL     1      52.262   1.438  18.139  0.00  0.00    +0.000 NA
ATOM      9  H   UNL     1      52.841   1.230  17.327  0.00  0.00    +0.000 HD
ATOM     10  H   UNL     1      51.388   0.927  17.992  0.00  0.00    +0.000 HD
ENDBRANCH   7   8
ENDBRANCH   1   7
BRANCH   4  11
ATOM     11  C   UNL     1      47.047   4.161  15.503  0.00  0.00    +0.000 C 
BRANCH  11  12
ATOM     12  O   UNL     1      47.225   3.885  14.112  0.00  0.00    +0.000 OA
BRANCH  12  13
ATOM     13  C   UNL     1      46.173   4.176  13.288  0.00  0.00    +0.000 A 
ATOM     14  C   UNL     1      45.796   5.517  13.264  0.00  0.00    +0.000 A 
ATOM     15  C   UNL     1      44.721   5.891  12.474  0.00  0.00    +0.000 A 
ATOM     16  N   UNL     1      44.010   5.029  11.721  0.00  0.00    +0.000 NA
ATOM     17  C   UNL     1      44.402   3.740  11.761  0.00  0.00    +0.000 A 
ATOM     18  F   UNL     1      43.706   2.860  11.027  0.00  0.00    +0.000 F 
ATOM     19  C   UNL     1      45.462   3.266  12.514  0.00  0.00    +0.000 A 
ENDBRANCH  12  13
ENDBRANCH  11  12
ENDBRANCH   4  11
TORSDOF 5
ENDMDL
