MODEL 1
REMARK VINA RESULT:    -8.364      0.000      0.000
REMARK INTER + INTRA:         -11.389
REMARK INTER:                 -10.809
REMARK INTRA:                  -0.580
REMARK UNBOUND:                -0.580
REMARK  Name = 
REMARK  6 active torsions:
REMARK  status: ('A' for Active; 'I' for Inactive)
REMARK    1  A    between atoms: C_1  and  C_2
REMARK    2  A    between atoms: C_2  and  C_3
REMARK    3  A    between atoms: C_7  and  C_8
REMARK    4  A    between atoms: C_8  and  C_9
REMARK    5  A    between atoms: C_9  and  N_10
REMARK    6  A    between atoms: C_14  and  C_15
REMARK                            x       y       z     vdW  Elec       q    Type
REMARK                         _______ _______ _______ _____ _____    ______ ____
ROOT
ATOM      1  C   UNL     1      43.301   4.273  11.163  0.00  0.00    +0.000 C 
ENDROOT
BRANCH   1   2
ATOM      2  N   UNL     1      43.775   4.796   9.888  0.00  0.00    +0.000 N 
ATOM      3  C   UNL     1      44.698   4.033   9.179  0.00  0.00    +0.000 A 
ATOM      4  C   UNL     1      44.738   2.630   9.208  0.00  0.00    +0.000 A 
ATOM      5  N   UNL     1      45.603   1.860   8.496  0.00  0.00    +0.000 NA
ATOM      6  C   UNL     1      46.441   2.567   7.699  0.00  0.00    +0.000 A 
ATOM      7  C   UNL     1      46.417   3.953   7.643  0.00  0.00    +0.000 A 
ATOM      8  N   UNL     1      45.554   4.706   8.386  0.00  0.00    +0.000 NA
ATOM      9  H   UNL     1      44.084   5.766   9.868  0.00  0.00    +0.000 HD
BRANCH   6  10
ATOM     10  C   UNL     1      47.394   1.792   6.857  0.00  0.00    +0.000 C 
ATOM     11  N   UNL     1      48.547   2.439   6.491  0.00  0.00    +0.000 N 
ATOM     12  O   UNL     1      47.168   0.641   6.514  0.00  0.00    +0.000 OA
ATOM     13  H   UNL     1      48.723   3.386   6.805  0.00  0.00    +0.000 HD
ATOM     14  H   UNL     1      49.236   1.948   5.945  0.00  0.00    +0.000 HD
ENDBRANCH   6  10
ENDBRANCH   1   2
BRANCH   1  15
ATOM     15  C   UNL     1      43.447   5.284  12.308  0.00  0.00    +0.000 C 
BRANCH  15  20
ATOM     16  C   UNL     1      46.896   6.822  12.940  0.00  0.00    +0.000 A 
ATOM     17  C   UNL     1      47.496   5.783  13.678  0.00  0.00    +0.000 A 
ATOM     18  C   UNL     1      46.831   4.579  13.913  0.00  0.00    +0.000 A 
ATOM     19  C   UNL     1      45.536   4.393  13.439  0.00  0.00    +0.000 A 
ATOM     20  C   UNL     1      44.907   5.402  12.701  0.00  0.00    +0.000 A 
ATOM     21  C   UNL     1      45.609   6.591  12.428  0.00  0.00    +0.000 A 
BRANCH  16  23
ATOM     22  C   UNL     1      46.551   9.256  12.524  0.00  0.00    +0.000 C 
ATOM     23  C   UNL     1      47.613   8.179  12.822  0.00  0.00    +0.000 C 
ATOM     24  C   UNL     1      48.420   8.496  14.086  0.00  0.00    +0.000 C 
ATOM     25  C   UNL     1      49.844   8.068  13.762  0.00  0.00    +0.000 C 
ATOM     26  O   UNL     1      49.899   7.732  12.371  0.00  0.00    +0.000 OA
ATOM     27  C   UNL     1      48.723   8.273  11.763  0.00  0.00    +0.000 C 
ENDBRANCH  16  23
ENDBRANCH  15  20
ENDBRANCH   1  15
TORSDOF 5
ENDMDL
MODEL 2
REMARK VINA RESULT:    -7.799      2.730      3.738
REMARK INTER + INTRA:         -10.659
REMARK INTER:                 -10.157
REMARK INTRA:                  -0.501
REMARK UNBOUND:                -0.580
REMARK  Name = 
REMARK  6 active torsions:
REMARK  status: ('A' for Active; 'I' for Inactive)
REMARK    1  A    between atoms: C_1  and  C_2
REMARK    2  A    between atoms: C_2  and  C_3
REMARK    3  A    between atoms: C_7  and  C_8
REMARK    4  A    between atoms: C_8  and  C_9
REMARK    5  A    between atoms: C_9  and  N_10
REMARK    6  A    between atoms: C_14  and  C_15
REMARK                            x       y       z     vdW  Elec       q    Type
REMARK                         _______ _______ _______ _____ _____    ______ ____
ROOT
ATOM      1  C   UNL     1      43.365   4.562  10.935  0.00  0.00    +0.000 C 
ENDROOT
BRANCH   1   2
ATOM      2  N   UNL     1      43.828   4.872   9.589  0.00  0.00    +0.000 N 
ATOM      3  C   UNL     1      44.742   4.003   9.002  0.00  0.00    +0.000 A 
ATOM      4  C   UNL     1      44.778   2.622   9.253  0.00  0.00    +0.000 A 
ATOM      5  N   UNL     1      45.634   1.744   8.665  0.00  0.00    +0.000 NA
ATOM      6  C   UNL     1      46.466   2.312   7.758  0.00  0.00    +0.000 A 
ATOM      7  C   UNL     1      46.446   3.671   7.483  0.00  0.00    +0.000 A 
ATOM      8  N   UNL     1      45.592   4.537   8.104  0.00  0.00    +0.000 NA
ATOM      9  H   UNL     1      44.139   5.826   9.412  0.00  0.00    +0.000 HD
BRANCH   6  10
ATOM     10  C   UNL     1      47.408   1.409   7.042  0.00  0.00    +0.000 C 
ATOM     11  N   UNL     1      48.426   2.016   6.351  0.00  0.00    +0.000 N 
ATOM     12  O   UNL     1      47.289   0.193   7.070  0.00  0.00    +0.000 OA
ATOM     13  H   UNL     1      48.518   3.025   6.359  0.00  0.00    +0.000 HD
ATOM     14  H   UNL     1      49.106   1.448   5.873  0.00  0.00    +0.000 HD
ENDBRANCH   6  10
ENDBRANCH   1   2
BRANCH   1  15
ATOM     15  C   UNL     1      42.808   5.788  11.669  0.00  0.00    +0.000 C 
BRANCH  15  20
ATOM     16  C   UNL     1      44.578   9.168  11.351  0.00  0.00    +0.000 A 
ATOM     17  C   UNL     1      45.687   8.944  12.192  0.00  0.00    +0.000 A 
ATOM     18  C   UNL     1      45.900   7.707  12.800  0.00  0.00    +0.000 A 
ATOM     19  C   UNL     1      44.996   6.667  12.604  0.00  0.00    +0.000 A 
ATOM     20  C   UNL     1      43.885   6.851  11.775  0.00  0.00    +0.000 A 
ATOM     21  C   UNL     1      43.709   8.088  11.127  0.00  0.00    +0.000 A 
BRANCH  16  23
ATOM     22  C   UNL     1      45.662  11.320  10.710  0.00  0.00    +0.000 C 
ATOM     23  C   UNL     1      44.311  10.584  10.812  0.00  0.00    +0.000 C 
ATOM     24  C   UNL     1      43.574  10.541   9.468  0.00  0.00    +0.000 C 
ATOM     25  C   UNL     1      42.105  10.734   9.818  0.00  0.00    +0.000 C 
ATOM     26  O   UNL     1      42.022  11.071  11.208  0.00  0.00    +0.000 OA
ATOM     27  C   UNL     1      43.336  11.451  11.625  0.00  0.00    +0.000 C 
ENDBRANCH  16  23
ENDBRANCH  15  20
ENDBRANCH   1  15
TORSDOF 5
ENDMDL
MODEL 3
REMARK VINA RESULT:    -7.274      1.394      2.369
REMARK INTER + INTRA:          -9.981
REMARK INTER:                  -9.221
REMARK INTRA:                  -0.760
REMARK UNBOUND:                -0.580
REMARK  Name = 
REMARK  6 active torsions:
REMARK  status: ('A' for Active; 'I' for Inactive)
REMARK    1  A    between atoms: C_1  and  C_2
REMARK    2  A    between atoms: C_2  and  C_3
REMARK    3  A    between atoms: C_7  and  C_8
REMARK    4  A    between atoms: C_8  and  C_9
REMARK    5  A    between atoms: C_9  and  N_10
REMARK    6  A    between atoms: C_14  and  C_15
REMARK                            x       y       z     vdW  Elec       q    Type
REMARK                         _______ _______ _______ _____ _____    ______ ____
ROOT
ATOM      1  C   UNL     1      43.554   5.105  10.632  0.00  0.00    +0.000 C 
ENDROOT
BRANCH   1   2
ATOM      2  N   UNL     1      44.292   3.848  10.667  0.00  0.00    +0.000 N 
ATOM      3  C   UNL     1      45.038   3.505   9.543  0.00  0.00    +0.000 A 
ATOM      4  C   UNL     1      45.656   4.442   8.700  0.00  0.00    +0.000 A 
ATOM      5  N   UNL     1      46.422   4.133   7.619  0.00  0.00    +0.000 NA
ATOM      6  C   UNL     1      46.580   2.801   7.420  0.00  0.00    +0.000 A 
ATOM      7  C   UNL     1      45.990   1.854   8.243  0.00  0.00    +0.000 A 
ATOM      8  N   UNL     1      45.205   2.189   9.309  0.00  0.00    +0.000 NA
ATOM      9  H   UNL     1      43.787   3.020  10.977  0.00  0.00    +0.000 HD
BRANCH   6  10
ATOM     10  C   UNL     1      47.439   2.383   6.278  0.00  0.00    +0.000 C 
ATOM     11  N   UNL     1      47.297   3.099   5.117  0.00  0.00    +0.000 N 
ATOM     12  O   UNL     1      48.231   1.457   6.368  0.00  0.00    +0.000 OA
ATOM     13  H   UNL     1      46.649   3.876   5.071  0.00  0.00    +0.000 HD
ATOM     14  H   UNL     1      47.875   2.873   4.324  0.00  0.00    +0.000 HD
ENDBRANCH   6  10
ENDBRANCH   1   2
BRANCH   1  15
ATOM     15  C   UNL     1      43.459   5.775  12.008  0.00  0.00    +0.000 C 
BRANCH  15  20
ATOM     16  C   UNL     1      46.692   7.788  12.407  0.00  0.00    +0.000 A 
ATOM     17  C   UNL     1      46.271   9.031  11.894  0.00  0.00    +0.000 A 
ATOM     18  C   UNL     1      44.953   9.242  11.488  0.00  0.00    +0.000 A 
ATOM     19  C   UNL     1      44.026   8.207  11.559  0.00  0.00    +0.000 A 
ATOM     20  C   UNL     1      44.406   6.958  12.064  0.00  0.00    +0.000 A 
ATOM     21  C   UNL     1      45.725   6.775  12.518  0.00  0.00    +0.000 A 
BRANCH  16  23
ATOM     22  C   UNL     1      48.995   7.964  11.470  0.00  0.00    +0.000 C 
ATOM     23  C   UNL     1      48.182   7.561  12.716  0.00  0.00    +0.000 C 
ATOM     24  C   UNL     1      48.618   8.334  13.966  0.00  0.00    +0.000 C 
ATOM     25  C   UNL     1      48.550   7.321  15.100  0.00  0.00    +0.000 C 
ATOM     26  O   UNL     1      48.304   6.032  14.527  0.00  0.00    +0.000 OA
ATOM     27  C   UNL     1      48.584   6.136  13.129  0.00  0.00    +0.000 C 
ENDBRANCH  16  23
ENDBRANCH  15  20
ENDBRANCH   1  15
TORSDOF 5
ENDMDL
MODEL 4
REMARK VINA RESULT:    -6.930      4.516      7.484
REMARK INTER + INTRA:          -9.536
REMARK INTER:                  -8.786
REMARK INTRA:                  -0.750
REMARK UNBOUND:                -0.580
REMARK  Name = 
REMARK  6 active torsions:
REMARK  status: ('A' for Active; 'I' for Inactive)
REMARK    1  A    between atoms: C_1  and  C_2
REMARK    2  A    between atoms: C_2  and  C_3
REMARK    3  A    between atoms: C_7  and  C_8
REMARK    4  A    between atoms: C_8  and  C_9
REMARK    5  A    between atoms: C_9  and  N_10
REMARK    6  A    between atoms: C_14  and  C_15
REMARK                            x       y       z     vdW  Elec       q    Type
REMARK                         _______ _______ _______ _____ _____    ______ ____
ROOT
ATOM      1  C   UNL     1      49.245   8.220  13.682  0.00  0.00    +0.000 C 
ENDROOT
BRANCH   1   2
ATOM      2  N   UNL     1      50.085   7.315  14.457  0.00  0.00    +0.000 N 
ATOM      3  C   UNL     1      49.451   6.392  15.283  0.00  0.00    +0.000 A 
ATOM      4  C   UNL     1      48.201   5.819  14.998  0.00  0.00    +0.000 A 
ATOM      5  N   UNL     1      47.577   4.887  15.767  0.00  0.00    +0.000 NA
ATOM      6  C   UNL     1      48.287   4.510  16.859  0.00  0.00    +0.000 A 
ATOM      7  C   UNL     1      49.528   5.052  17.159  0.00  0.00    +0.000 A 
ATOM      8  N   UNL     1      50.124   6.005  16.383  0.00  0.00    +0.000 NA
ATOM      9  H   UNL     1      50.858   7.727  14.977  0.00  0.00    +0.000 HD
BRANCH   6  10
ATOM     10  C   UNL     1      47.687   3.463  17.731  0.00  0.00    +0.000 C 
ATOM     11  N   UNL     1      48.375   3.162  18.879  0.00  0.00    +0.000 N 
ATOM     12  O   UNL     1      46.638   2.906  17.447  0.00  0.00    +0.000 OA
ATOM     13  H   UNL     1      49.232   3.652  19.106  0.00  0.00    +0.000 HD
ATOM     14  H   UNL     1      47.996   2.480  19.517  0.00  0.00    +0.000 HD
ENDBRANCH   6  10
ENDBRANCH   1   2
BRANCH   1  15
ATOM     15  C   UNL     1      49.011   7.730  12.247  0.00  0.00    +0.000 C 
BRANCH  15  20
ATOM     16  C   UNL     1      45.519   6.473  11.307  0.00  0.00    +0.000 A 
ATOM     17  C   UNL     1      44.750   7.599  11.659  0.00  0.00    +0.000 A 
ATOM     18  C   UNL     1      45.347   8.770  12.129  0.00  0.00    +0.000 A 
ATOM     19  C   UNL     1      46.728   8.836  12.284  0.00  0.00    +0.000 A 
ATOM     20  C   UNL     1      47.526   7.738  11.943  0.00  0.00    +0.000 A 
ATOM     21  C   UNL     1      46.915   6.582  11.422  0.00  0.00    +0.000 A 
BRANCH  16  23
ATOM     22  C   UNL     1      45.287   4.756   9.514  0.00  0.00    +0.000 C 
ATOM     23  C   UNL     1      44.811   5.162  10.923  0.00  0.00    +0.000 C 
ATOM     24  C   UNL     1      45.069   4.062  11.960  0.00  0.00    +0.000 C 
ATOM     25  C   UNL     1      43.852   4.088  12.873  0.00  0.00    +0.000 C 
ATOM     26  O   UNL     1      42.884   4.972  12.295  0.00  0.00    +0.000 OA
ATOM     27  C   UNL     1      43.274   5.188  10.936  0.00  0.00    +0.000 C 
ENDBRANCH  16  23
ENDBRANCH  15  20
ENDBRANCH   1  15
TORSDOF 5
ENDMDL
MODEL 5
REMARK VINA RESULT:    -6.857      3.846      6.080
REMARK INTER + INTRA:          -9.441
REMARK INTER:                  -8.469
REMARK INTRA:                  -0.972
REMARK UNBOUND:                -0.580
REMARK  Name = 
REMARK  6 active torsions:
REMARK  status: ('A' for Active; 'I' for Inactive)
REMARK    1  A    between atoms: C_1  and  C_2
REMARK    2  A    between atoms: C_2  and  C_3
REMARK    3  A    between atoms: C_7  and  C_8
REMARK    4  A    between atoms: C_8  and  C_9
REMARK    5  A    between atoms: C_9  and  N_10
REMARK    6  A    between atoms: C_14  and  C_15
REMARK                            x       y       z     vdW  Elec       q    Type
REMARK                         _______ _______ _______ _____ _____    ______ ____
ROOT
ATOM      1  C   UNL     1      48.941   7.045  13.261  0.00  0.00    +0.000 C 
ENDROOT
BRANCH   1   2
ATOM      2  N   UNL     1      47.664   7.261  12.593  0.00  0.00    +0.000 N 
ATOM      3  C   UNL     1      46.820   6.165  12.442  0.00  0.00    +0.000 A 
ATOM      4  C   UNL     1      46.749   5.102  13.356  0.00  0.00    +0.000 A 
ATOM      5  N   UNL     1      45.907   4.039  13.254  0.00  0.00    +0.000 NA
ATOM      6  C   UNL     1      45.082   4.093  12.179  0.00  0.00    +0.000 A 
ATOM      7  C   UNL     1      45.123   5.136  11.265  0.00  0.00    +0.000 A 
ATOM      8  N   UNL     1      45.995   6.181  11.377  0.00  0.00    +0.000 NA
ATOM      9  H   UNL     1      47.680   7.772  11.712  0.00  0.00    +0.000 HD
BRANCH   6  10
ATOM     10  C   UNL     1      44.102   2.984  12.018  0.00  0.00    +0.000 C 
ATOM     11  N   UNL     1      44.021   2.420  10.770  0.00  0.00    +0.000 N 
ATOM     12  O   UNL     1      43.411   2.591  12.946  0.00  0.00    +0.000 OA
ATOM     13  H   UNL     1      44.620   2.748  10.022  0.00  0.00    +0.000 HD
ATOM     14  H   UNL     1      43.393   1.648  10.617  0.00  0.00    +0.000 HD
ENDBRANCH   6  10
ENDBRANCH   1   2
BRANCH   1  15
ATOM     15  C   UNL     1      49.078   7.859  14.555  0.00  0.00    +0.000 C 
BRANCH  15  20
ATOM     16  C   UNL     1      49.782   5.095  17.110  0.00  0.00    +0.000 A 
ATOM     17  C   UNL     1      51.164   5.287  17.304  0.00  0.00    +0.000 A 
ATOM     18  C   UNL     1      51.849   6.329  16.676  0.00  0.00    +0.000 A 
ATOM     19  C   UNL     1      51.175   7.190  15.817  0.00  0.00    +0.000 A 
ATOM     20  C   UNL     1      49.802   7.033  15.601  0.00  0.00    +0.000 A 
ATOM     21  C   UNL     1      49.114   6.010  16.280  0.00  0.00    +0.000 A 
BRANCH  16  23
ATOM     22  C   UNL     1      48.915   4.101  19.225  0.00  0.00    +0.000 C 
ATOM     23  C   UNL     1      49.098   3.857  17.714  0.00  0.00    +0.000 C 
ATOM     24  C   UNL     1      47.768   3.555  17.012  0.00  0.00    +0.000 C 
ATOM     25  C   UNL     1      48.099   2.484  15.983  0.00  0.00    +0.000 C 
ATOM     26  O   UNL     1      49.446   2.053  16.211  0.00  0.00    +0.000 OA
ATOM     27  C   UNL     1      49.817   2.514  17.513  0.00  0.00    +0.000 C 
ENDBRANCH  16  23
ENDBRANCH  15  20
ENDBRANCH   1  15
TORSDOF 5
ENDMDL
MODEL 6
REMARK VINA RESULT:    -6.221      4.081      6.310
REMARK INTER + INTRA:          -8.620
REMARK INTER:                  -7.794
REMARK INTRA:                  -0.826
REMARK UNBOUND:                -0.580
REMARK  Name = 
REMARK  6 active torsions:
REMARK  status: ('A' for Active; 'I' for Inactive)
REMARK    1  A    between atoms: C_1  and  C_2
REMARK    2  A    between atoms: C_2  and  C_3
REMARK    3  A    between atoms: C_7  and  C_8
REMARK    4  A    between atoms: C_8  and  C_9
REMARK    5  A    between atoms: C_9  and  N_10
REMARK    6  A    between atoms: C_14  and  C_15
REMARK                            x       y       z     vdW  Elec       q    Type
REMARK                         _______ _______ _______ _____ _____    ______ ____
ROOT
ATOM      1  C   UNL     1      48.947   7.150  13.421  0.00  0.00    +0.000 C 
ENDROOT
BRANCH   1   2
ATOM      2  N   UNL     1      47.597   7.567  13.063  0.00  0.00    +0.000 N 
ATOM      3  C   UNL     1      46.669   6.572  12.771  0.00  0.00    +0.000 A 
ATOM      4  C   UNL     1      46.675   5.299  13.364  0.00  0.00    +0.000 A 
ATOM      5  N   UNL     1      45.759   4.323  13.126  0.00  0.00    +0.000 NA
ATOM      6  C   UNL     1      44.779   4.687  12.262  0.00  0.00    +0.000 A 
ATOM      7  C   UNL     1      44.743   5.940  11.669  0.00  0.00    +0.000 A 
ATOM      8  N   UNL     1      45.688   6.897  11.906  0.00  0.00    +0.000 NA
ATOM      9  H   UNL     1      47.506   8.300  12.362  0.00  0.00    +0.000 HD
BRANCH   6  10
ATOM     10  C   UNL     1      43.715   3.685  11.980  0.00  0.00    +0.000 C 
ATOM     11  N   UNL     1      43.890   2.441  12.533  0.00  0.00    +0.000 N 
ATOM     12  O   UNL     1      42.736   3.952  11.299  0.00  0.00    +0.000 OA
ATOM     13  H   UNL     1      44.698   2.248  13.111  0.00  0.00    +0.000 HD
ATOM     14  H   UNL     1      43.184   1.736  12.394  0.00  0.00    +0.000 HD
ENDBRANCH   6  10
ENDBRANCH   1   2
BRANCH   1  15
ATOM     15  C   UNL     1      49.580   8.047  14.492  0.00  0.00    +0.000 C 
BRANCH  15  20
ATOM     16  C   UNL     1      49.744   5.455  17.306  0.00  0.00    +0.000 A 
ATOM     17  C   UNL     1      51.139   5.359  17.469  0.00  0.00    +0.000 A 
ATOM     18  C   UNL     1      52.015   6.161  16.736  0.00  0.00    +0.000 A 
ATOM     19  C   UNL     1      51.518   7.062  15.800  0.00  0.00    +0.000 A 
ATOM     20  C   UNL     1      50.138   7.188  15.610  0.00  0.00    +0.000 A 
ATOM     21  C   UNL     1      49.265   6.409  16.393  0.00  0.00    +0.000 A 
BRANCH  16  23
ATOM     22  C   UNL     1      49.176   3.039  17.547  0.00  0.00    +0.000 C 
ATOM     23  C   UNL     1      48.825   4.459  18.035  0.00  0.00    +0.000 C 
ATOM     24  C   UNL     1      48.951   4.595  19.558  0.00  0.00    +0.000 C 
ATOM     25  C   UNL     1      47.790   5.488  19.971  0.00  0.00    +0.000 C 
ATOM     26  O   UNL     1      46.949   5.678  18.828  0.00  0.00    +0.000 OA
ATOM     27  C   UNL     1      47.313   4.679  17.871  0.00  0.00    +0.000 C 
ENDBRANCH  16  23
ENDBRANCH  15  20
ENDBRANCH   1  15
TORSDOF 5
ENDMDL
MODEL 7
REMARK VINA RESULT:    -5.849      4.700      6.294
REMARK INTER + INTRA:          -8.138
REMARK INTER:                  -7.470
REMARK INTRA:                  -0.668
REMARK UNBOUND:                -0.580
REMARK  Name = 
REMARK  6 active torsions:
REMARK  status: ('A' for Active; 'I' for Inactive)
REMARK    1  A    between atoms: C_1  and  C_2
REMARK    2  A    between atoms: C_2  and  C_3
REMARK    3  A    between atoms: C_7  and  C_8
REMARK    4  A    between atoms: C_8  and  C_9
REMARK    5  A    between atoms: C_9  and  N_10
REMARK    6  A    between atoms: C_14  and  C_15
REMARK                            x       y       z     vdW  Elec       q    Type
REMARK                         _______ _______ _______ _____ _____    ______ ____
ROOT
ATOM      1  C   UNL     1      48.255   6.715  14.161  0.00  0.00    +0.000 C 
ENDROOT
BRANCH   1   2
ATOM      2  N   UNL     1      46.901   6.975  13.688  0.00  0.00    +0.000 N 
ATOM      3  C   UNL     1      46.227   5.936  13.054  0.00  0.00    +0.000 A 
ATOM      4  C   UNL     1      46.412   4.580  13.367  0.00  0.00    +0.000 A 
ATOM      5  N   UNL     1      45.738   3.548  12.792  0.00  0.00    +0.000 NA
ATOM      6  C   UNL     1      44.815   3.935  11.878  0.00  0.00    +0.000 A 
ATOM      7  C   UNL     1      44.605   5.268  11.556  0.00  0.00    +0.000 A 
ATOM      8  N   UNL     1      45.310   6.286  12.131  0.00  0.00    +0.000 NA
ATOM      9  H   UNL     1      46.752   7.826  13.147  0.00  0.00    +0.000 HD
BRANCH   6  10
ATOM     10  C   UNL     1      44.009   2.864  11.231  0.00  0.00    +0.000 C 
ATOM     11  N   UNL     1      44.490   2.373  10.044  0.00  0.00    +0.000 N 
ATOM     12  O   UNL     1      42.977   2.438  11.730  0.00  0.00    +0.000 OA
ATOM     13  H   UNL     1      45.359   2.725   9.660  0.00  0.00    +0.000 HD
ATOM     14  H   UNL     1      43.996   1.628   9.581  0.00  0.00    +0.000 HD
ENDBRANCH   6  10
ENDBRANCH   1   2
BRANCH   1  15
ATOM     15  C   UNL     1      48.446   7.080  15.639  0.00  0.00    +0.000 C 
BRANCH  15  20
ATOM     16  C   UNL     1      50.868   5.013  17.765  0.00  0.00    +0.000 A 
ATOM     17  C   UNL     1      50.069   3.880  18.015  0.00  0.00    +0.000 A 
ATOM     18  C   UNL     1      48.797   3.748  17.456  0.00  0.00    +0.000 A 
ATOM     19  C   UNL     1      48.280   4.760  16.653  0.00  0.00    +0.000 A 
ATOM     20  C   UNL     1      49.044   5.900  16.381  0.00  0.00    +0.000 A 
ATOM     21  C   UNL     1      50.345   5.996  16.910  0.00  0.00    +0.000 A 
BRANCH  16  23
ATOM     22  C   UNL     1      53.345   5.026  17.483  0.00  0.00    +0.000 C 
ATOM     23  C   UNL     1      52.205   5.176  18.510  0.00  0.00    +0.000 C 
ATOM     24  C   UNL     1      52.270   6.514  19.255  0.00  0.00    +0.000 C 
ATOM     25  C   UNL     1      51.870   6.187  20.687  0.00  0.00    +0.000 C 
ATOM     26  O   UNL     1      51.788   4.763  20.809  0.00  0.00    +0.000 OA
ATOM     27  C   UNL     1      52.459   4.207  19.675  0.00  0.00    +0.000 C 
ENDBRANCH  16  23
ENDBRANCH  15  20
ENDBRANCH   1  15
TORSDOF 5
ENDMDL
MODEL 8
REMARK VINA RESULT:    -5.532      3.451      5.101
REMARK INTER + INTRA:          -7.730
REMARK INTER:                  -7.040
REMARK INTRA:                  -0.690
REMARK UNBOUND:                -0.580
REMARK  Name = 
REMARK  6 active torsions:
REMARK  status: ('A' for Active; 'I' for Inactive)
REMARK    1  A    between atoms: C_1  and  C_2
REMARK    2  A    between atoms: C_2  and  C_3
REMARK    3  A    between atoms: C_7  and  C_8
REMARK    4  A    between atoms: C_8  and  C_9
REMARK    5  A    between atoms: C_9  and  N_10
REMARK    6  A    between atoms: C_14  and  C_15
REMARK                            x       y       z     vdW  Elec       q    Type
REMARK                         _______ _______ _______ _____ _____    ______ ____
ROOT
ATOM      1  C   UNL     1      47.587   4.227  15.404  0.00  0.00    +0.000 C 
ENDROOT
BRANCH   1   2
ATOM      2  N   UNL     1      46.625   5.116  14.764  0.00  0.00    +0.000 N 
ATOM      3  C   UNL     1      46.088   4.717  13.545  0.00  0.00    +0.000 A 
ATOM      4  C   UNL     1      45.866   3.377  13.189  0.00  0.00    +0.000 A 
ATOM      5  N   UNL     1      45.308   2.962  12.021  0.00  0.00    +0.000 NA
ATOM      6  C   UNL     1      44.936   3.974  11.199  0.00  0.00    +0.000 A 
ATOM      7  C   UNL     1      45.133   5.307  11.529  0.00  0.00    +0.000 A 
ATOM      8  N   UNL     1      45.718   5.699  12.698  0.00  0.00    +0.000 NA
ATOM      9  H   UNL     1      46.876   6.101  14.693  0.00  0.00    +0.000 HD
BRANCH   6  10
ATOM     10  C   UNL     1      44.280   3.600   9.915  0.00  0.00    +0.000 C 
ATOM     11  N   UNL     1      43.983   4.632   9.062  0.00  0.00    +0.000 N 
ATOM     12  O   UNL     1      44.025   2.440   9.632  0.00  0.00    +0.000 OA
ATOM     13  H   UNL     1      44.223   5.585   9.309  0.00  0.00    +0.000 HD
ATOM     14  H   UNL     1      43.564   4.429   8.169  0.00  0.00    +0.000 HD
ENDBRANCH   6  10
ENDBRANCH   1   2
BRANCH   1  15
ATOM     15  C   UNL     1      47.331   4.061  16.908  0.00  0.00    +0.000 C 
BRANCH  15  20
ATOM     16  C   UNL     1      49.348   7.220  17.690  0.00  0.00    +0.000 A 
ATOM     17  C   UNL     1      48.622   7.707  18.795  0.00  0.00    +0.000 A 
ATOM     18  C   UNL     1      47.542   7.000  19.324  0.00  0.00    +0.000 A 
ATOM     19  C   UNL     1      47.142   5.799  18.746  0.00  0.00    +0.000 A 
ATOM     20  C   UNL     1      47.839   5.282  17.648  0.00  0.00    +0.000 A 
ATOM     21  C   UNL     1      48.958   5.980  17.157  0.00  0.00    +0.000 A 
BRANCH  16  23
ATOM     22  C   UNL     1      51.722   7.950  17.907  0.00  0.00    +0.000 C 
ATOM     23  C   UNL     1      50.444   8.096  17.058  0.00  0.00    +0.000 C 
ATOM     24  C   UNL     1      50.680   7.723  15.589  0.00  0.00    +0.000 C 
ATOM     25  C   UNL     1      49.856   8.724  14.791  0.00  0.00    +0.000 C 
ATOM     26  O   UNL     1      49.360   9.713  15.700  0.00  0.00    +0.000 OA
ATOM     27  C   UNL     1      50.119   9.591  16.906  0.00  0.00    +0.000 C 
ENDBRANCH  16  23
ENDBRANCH  15  20
ENDBRANCH   1  15
TORSDOF 5
ENDMDL
MODEL 9
REMARK VINA RESULT:    -5.416      4.052      5.069
REMARK INTER + INTRA:          -7.579
REMARK INTER:                  -6.952
REMARK INTRA:                  -0.627
REMARK UNBOUND:                -0.580
REMARK  Name = 
REMARK  6 active torsions:
REMARK  status: ('A' for Active; 'I' for Inactive)
REMARK    1  A    between atoms: C_1  and  C_2
REMARK    2  A    between atoms: C_2  and  C_3
REMARK    3  A    between atoms: C_7  and  C_8
REMARK    4  A    between atoms: C_8  and  C_9
REMARK    5  A    between atoms: C_9  and  N_10
REMARK    6  A    between atoms: C_14  and  C_15
REMARK                            x       y       z     vdW  Elec       q    Type
REMARK                         _______ _______ _______ _____ _____    ______ ____
ROOT
ATOM      1  C   UNL     1      46.065   4.988  14.452  0.00  0.00    +0.000 C 
ENDROOT
BRANCH   1   2
ATOM      2  N   UNL     1      45.596   5.832  13.360  0.00  0.00    +0.000 N 
ATOM      3  C   UNL     1      45.528   5.267  12.090  0.00  0.00    +0.000 A 
ATOM      4  C   UNL     1      45.246   3.912  11.852  0.00  0.00    +0.000 A 
ATOM      5  N   UNL     1      45.135   3.343  10.622  0.00  0.00    +0.000 NA
ATOM      6  C   UNL     1      45.291   4.216   9.596  0.00  0.00    +0.000 A 
ATOM      7  C   UNL     1      45.561   5.561   9.802  0.00  0.00    +0.000 A 
ATOM      8  N   UNL     1      45.691   6.105  11.048  0.00  0.00    +0.000 NA
ATOM      9  H   UNL     1      46.015   6.757  13.273  0.00  0.00    +0.000 HD
BRANCH   6  10
ATOM     10  C   UNL     1      45.145   3.676   8.217  0.00  0.00    +0.000 C 
ATOM     11  N   UNL     1      44.234   2.663   8.054  0.00  0.00    +0.000 N 
ATOM     12  O   UNL     1      45.794   4.112   7.277  0.00  0.00    +0.000 OA
ATOM     13  H   UNL     1      43.692   2.332   8.843  0.00  0.00    +0.000 HD
ATOM     14  H   UNL     1      44.078   2.282   7.135  0.00  0.00    +0.000 HD
ENDBRANCH   6  10
ENDBRANCH   1   2
BRANCH   1  15
ATOM     15  C   UNL     1      47.584   5.069  14.654  0.00  0.00    +0.000 C 
BRANCH  15  20
ATOM     16  C   UNL     1      48.510   5.124  18.369  0.00  0.00    +0.000 A 
ATOM     17  C   UNL     1      48.305   3.768  18.692  0.00  0.00    +0.000 A 
ATOM     18  C   UNL     1      47.940   2.835  17.721  0.00  0.00    +0.000 A 
ATOM     19  C   UNL     1      47.744   3.239  16.404  0.00  0.00    +0.000 A 
ATOM     20  C   UNL     1      47.940   4.577  16.043  0.00  0.00    +0.000 A 
ATOM     21  C   UNL     1      48.358   5.496  17.023  0.00  0.00    +0.000 A 
BRANCH  16  23
ATOM     22  C   UNL     1      47.444   6.426  20.208  0.00  0.00    +0.000 C 
ATOM     23  C   UNL     1      48.780   6.138  19.494  0.00  0.00    +0.000 C 
ATOM     24  C   UNL     1      49.855   5.627  20.461  0.00  0.00    +0.000 C 
ATOM     25  C   UNL     1      51.149   6.276  19.991  0.00  0.00    +0.000 C 
ATOM     26  O   UNL     1      50.820   7.237  18.981  0.00  0.00    +0.000 OA
ATOM     27  C   UNL     1      49.412   7.474  19.071  0.00  0.00    +0.000 C 
ENDBRANCH  16  23
ENDBRANCH  15  20
ENDBRANCH   1  15
TORSDOF 5
ENDMDL
