MODEL 1
REMARK VINA RESULT:    -7.777      0.000      0.000
REMARK INTER + INTRA:         -11.570
REMARK INTER:                 -10.504
REMARK INTRA:                  -1.065
REMARK UNBOUND:                -1.065
REMARK  Name = 
REMARK  7 active torsions:
REMARK  status: ('A' for Active; 'I' for Inactive)
REMARK    1  A    between atoms: C_1  and  N_2
REMARK    2  A    between atoms: N_2  and  C_3
REMARK    3  A    between atoms: C_3  and  C_4
REMARK    4  A    between atoms: C_7  and  C_8
REMARK    5  A    between atoms: C_8  and  N_9
REMARK    6  A    between atoms: C_10  and  C_12
REMARK    7  A    between atoms: C_19  and  C_21
REMARK                            x       y       z     vdW  Elec       q    Type
REMARK                         _______ _______ _______ _____ _____    ______ ____
ROOT
ATOM      1  C   UNL     1      46.424   6.209  13.202  0.00  0.00    +0.000 A 
ATOM      2  N   UNL     1      46.539   4.933  13.617  0.00  0.00    +0.000 NA
ATOM      3  C   UNL     1      45.842   4.010  12.924  0.00  0.00    +0.000 A 
ATOM      4  C   UNL     1      45.040   4.302  11.840  0.00  0.00    +0.000 A 
ATOM      5  C   UNL     1      44.961   5.641  11.522  0.00  0.00    +0.000 A 
ATOM      6  N   UNL     1      45.639   6.604  12.174  0.00  0.00    +0.000 NA
ENDROOT
BRANCH   1   7
ATOM      7  C   UNL     1      47.214   7.288  13.918  0.00  0.00    +0.000 C 
BRANCH   7   9
ATOM      8  C   UNL     1      49.436   7.497  12.772  0.00  0.00    +0.000 C 
ATOM      9  N   UNL     1      48.676   7.140  13.967  0.00  0.00    +0.000 N 
ATOM     10  C   UNL     1      49.419   7.021  15.151  0.00  0.00    +0.000 C 
ATOM     11  O   UNL     1      50.636   6.834  15.106  0.00  0.00    +0.000 OA
BRANCH  10  12
ATOM     12  C   UNL     1      48.810   7.261  16.473  0.00  0.00    +0.000 A 
ATOM     13  C   UNL     1      48.555   8.490  17.059  0.00  0.00    +0.000 A 
ATOM     14  S   UNL     1      48.269   8.400  18.746  0.00  0.00    +0.000 S 
ATOM     15  C   UNL     1      48.497   6.717  18.743  0.00  0.00    +0.000 A 
ATOM     16  N   UNL     1      48.557   6.005  19.899  0.00  0.00    +0.000 NA
ATOM     17  C   UNL     1      48.731   4.736  19.727  0.00  0.00    +0.000 A 
ATOM     18  N   UNL     1      48.790   4.110  18.506  0.00  0.00    +0.000 N 
ATOM     19  C   UNL     1      48.627   4.781  17.313  0.00  0.00    +0.000 A 
ATOM     20  O   UNL     1      48.412   4.182  16.265  0.00  0.00    +0.000 OA
ATOM     21  C   UNL     1      48.610   6.224  17.459  0.00  0.00    +0.000 A 
ATOM     22  H   UNL     1      48.797   3.104  18.443  0.00  0.00    +0.000 HD
ENDBRANCH  10  12
ENDBRANCH   7   9
ENDBRANCH   1   7
BRANCH   4  23
ATOM     23  C   UNL     1      44.318   3.258  11.061  0.00  0.00    +0.000 C 
BRANCH  23  24
ATOM     24  N   UNL     1      45.155   2.627  10.070  0.00  0.00    +0.000 N 
ATOM     25  C   UNL     1      45.179   3.104   8.779  0.00  0.00    +0.000 C 
ATOM     26  O   UNL     1      44.463   4.031   8.415  0.00  0.00    +0.000 OA
ATOM     27  H   UNL     1      45.807   1.910  10.350  0.00  0.00    +0.000 HD
BRANCH  25  28
ATOM     28  C   UNL     1      46.101   2.448   7.893  0.00  0.00    +0.000 A 
ATOM     29  C   UNL     1      46.870   2.880   6.831  0.00  0.00    +0.000 A 
ATOM     30  C   UNL     1      47.553   1.733   6.384  0.00  0.00    +0.000 A 
ATOM     31  N   UNL     1      47.249   0.649   7.097  0.00  0.00    +0.000 NA
ATOM     32  N   UNL     1      46.374   1.112   8.010  0.00  0.00    +0.000 N 
ATOM     33  H   UNL     1      45.983   0.463   8.689  0.00  0.00    +0.000 HD
ENDBRANCH  25  28
ENDBRANCH  23  24
ENDBRANCH   4  23
TORSDOF 6
ENDMDL
MODEL 2
REMARK VINA RESULT:    -7.688      3.451      8.016
REMARK INTER + INTRA:         -11.450
REMARK INTER:                 -10.910
REMARK INTRA:                  -0.540
REMARK UNBOUND:                -1.065
REMARK  Name = 
REMARK  7 active torsions:
REMARK  status: ('A' for Active; 'I' for Inactive)
REMARK    1  A    between atoms: C_1  and  N_2
REMARK    2  A    between atoms: N_2  and  C_3
REMARK    3  A    between atoms: C_3  and  C_4
REMARK    4  A    between atoms: C_7  and  C_8
REMARK    5  A    between atoms: C_8  and  N_9
REMARK    6  A    between atoms: C_10  and  C_12
REMARK    7  A    between atoms: C_19  and  C_21
REMARK                            x       y       z     vdW  Elec       q    Type
REMARK                         _______ _______ _______ _____ _____    ______ ____
ROOT
ATOM      1  C   UNL     1      47.895   6.118  13.806  0.00  0.00    +0.000 A 
ATOM      2  N   UNL     1      47.444   4.859  13.644  0.00  0.00    +0.000 NA
ATOM      3  C   UNL     1      47.436   4.076  14.742  0.00  0.00    +0.000 A 
ATOM      4  C   UNL     1      47.853   4.493  15.989  0.00  0.00    +0.000 A 
ATOM      5  C   UNL     1      48.330   5.785  16.039  0.00  0.00    +0.000 A 
ATOM      6  N   UNL     1      48.357   6.612  14.977  0.00  0.00    +0.000 NA
ENDROOT
BRANCH   1   7
ATOM      7  C   UNL     1      47.892   7.057  12.616  0.00  0.00    +0.000 C 
BRANCH   7   9
ATOM      8  C   UNL     1      46.758   9.292  12.508  0.00  0.00    +0.000 C 
ATOM      9  N   UNL     1      46.673   7.841  12.370  0.00  0.00    +0.000 N 
ATOM     10  C   UNL     1      45.546   7.357  11.690  0.00  0.00    +0.000 C 
ATOM     11  O   UNL     1      44.536   8.055  11.582  0.00  0.00    +0.000 OA
BRANCH  10  12
ATOM     12  C   UNL     1      45.575   6.076  10.958  0.00  0.00    +0.000 A 
ATOM     13  C   UNL     1      46.089   5.856   9.691  0.00  0.00    +0.000 A 
ATOM     14  S   UNL     1      45.562   4.388   8.982  0.00  0.00    +0.000 S 
ATOM     15  C   UNL     1      44.616   4.016  10.343  0.00  0.00    +0.000 A 
ATOM     16  N   UNL     1      43.757   2.962  10.346  0.00  0.00    +0.000 NA
ATOM     17  C   UNL     1      43.115   2.811  11.457  0.00  0.00    +0.000 A 
ATOM     18  N   UNL     1      43.298   3.579  12.581  0.00  0.00    +0.000 N 
ATOM     19  C   UNL     1      44.234   4.587  12.653  0.00  0.00    +0.000 A 
ATOM     20  O   UNL     1      44.571   5.073  13.727  0.00  0.00    +0.000 OA
ATOM     21  C   UNL     1      44.844   4.902  11.375  0.00  0.00    +0.000 A 
ATOM     22  H   UNL     1      42.860   3.327  13.454  0.00  0.00    +0.000 HD
ENDBRANCH  10  12
ENDBRANCH   7   9
ENDBRANCH   1   7
BRANCH   4  23
ATOM     23  C   UNL     1      47.788   3.625  17.198  0.00  0.00    +0.000 C 
BRANCH  23  24
ATOM     24  N   UNL     1      49.093   3.223  17.664  0.00  0.00    +0.000 N 
ATOM     25  C   UNL     1      49.783   2.224  17.015  0.00  0.00    +0.000 C 
ATOM     26  O   UNL     1      49.301   1.612  16.067  0.00  0.00    +0.000 OA
ATOM     27  H   UNL     1      49.547   3.751  18.394  0.00  0.00    +0.000 HD
BRANCH  25  28
ATOM     28  C   UNL     1      51.101   1.955  17.517  0.00  0.00    +0.000 A 
ATOM     29  C   UNL     1      52.189   2.753  17.812  0.00  0.00    +0.000 A 
ATOM     30  C   UNL     1      53.183   1.865  18.263  0.00  0.00    +0.000 A 
ATOM     31  N   UNL     1      52.772   0.597  18.259  0.00  0.00    +0.000 NA
ATOM     32  N   UNL     1      51.506   0.680  17.810  0.00  0.00    +0.000 N 
ATOM     33  H   UNL     1      50.961  -0.174  17.714  0.00  0.00    +0.000 HD
ENDBRANCH  25  28
ENDBRANCH  23  24
ENDBRANCH   4  23
TORSDOF 6
ENDMDL
MODEL 3
REMARK VINA RESULT:    -7.409      2.238      3.573
REMARK INTER + INTRA:         -11.074
REMARK INTER:                  -9.900
REMARK INTRA:                  -1.174
REMARK UNBOUND:                -1.065
REMARK  Name = 
REMARK  7 active torsions:
REMARK  status: ('A' for Active; 'I' for Inactive)
REMARK    1  A    between atoms: C_1  and  N_2
REMARK    2  A    between atoms: N_2  and  C_3
REMARK    3  A    between atoms: C_3  and  C_4
REMARK    4  A    between atoms: C_7  and  C_8
REMARK    5  A    between atoms: C_8  and  N_9
REMARK    6  A    between atoms: C_10  and  C_12
REMARK    7  A    between atoms: C_19  and  C_21
REMARK                            x       y       z     vdW  Elec       q    Type
REMARK                         _______ _______ _______ _____ _____    ______ ____
ROOT
ATOM      1  C   UNL     1      48.688   7.048  14.869  0.00  0.00    +0.000 A 
ATOM      2  N   UNL     1      48.282   8.173  14.249  0.00  0.00    +0.000 NA
ATOM      3  C   UNL     1      47.299   8.036  13.337  0.00  0.00    +0.000 A 
ATOM      4  C   UNL     1      46.704   6.833  13.018  0.00  0.00    +0.000 A 
ATOM      5  C   UNL     1      47.218   5.739  13.681  0.00  0.00    +0.000 A 
ATOM      6  N   UNL     1      48.194   5.817  14.605  0.00  0.00    +0.000 NA
ENDROOT
BRANCH   1   7
ATOM      7  C   UNL     1      49.764   7.144  15.933  0.00  0.00    +0.000 C 
BRANCH   7   9
ATOM      8  C   UNL     1      48.343   8.538  17.460  0.00  0.00    +0.000 C 
ATOM      9  N   UNL     1      49.342   7.485  17.299  0.00  0.00    +0.000 N 
ATOM     10  C   UNL     1      49.551   6.666  18.419  0.00  0.00    +0.000 C 
ATOM     11  O   UNL     1      49.227   7.052  19.543  0.00  0.00    +0.000 OA
BRANCH  10  12
ATOM     12  C   UNL     1      50.022   5.274  18.281  0.00  0.00    +0.000 A 
ATOM     13  C   UNL     1      51.323   4.819  18.423  0.00  0.00    +0.000 A 
ATOM     14  S   UNL     1      51.580   3.259  17.764  0.00  0.00    +0.000 S 
ATOM     15  C   UNL     1      49.964   3.156  17.253  0.00  0.00    +0.000 A 
ATOM     16  N   UNL     1      49.530   2.138  16.464  0.00  0.00    +0.000 NA
ATOM     17  C   UNL     1      48.274   2.201  16.167  0.00  0.00    +0.000 A 
ATOM     18  N   UNL     1      47.403   3.154  16.636  0.00  0.00    +0.000 N 
ATOM     19  C   UNL     1      47.780   4.140  17.521  0.00  0.00    +0.000 A 
ATOM     20  O   UNL     1      46.949   4.804  18.132  0.00  0.00    +0.000 OA
ATOM     21  C   UNL     1      49.212   4.209  17.736  0.00  0.00    +0.000 A 
ATOM     22  H   UNL     1      46.412   3.072  16.470  0.00  0.00    +0.000 HD
ENDBRANCH  10  12
ENDBRANCH   7   9
ENDBRANCH   1   7
BRANCH   4  23
ATOM     23  C   UNL     1      45.585   6.714  12.042  0.00  0.00    +0.000 C 
BRANCH  23  24
ATOM     24  N   UNL     1      45.784   5.642  11.098  0.00  0.00    +0.000 N 
ATOM     25  C   UNL     1      44.719   4.867  10.696  0.00  0.00    +0.000 C 
ATOM     26  O   UNL     1      43.593   5.021  11.157  0.00  0.00    +0.000 OA
ATOM     27  H   UNL     1      46.679   5.533  10.646  0.00  0.00    +0.000 HD
BRANCH  25  28
ATOM     28  C   UNL     1      45.015   3.876   9.699  0.00  0.00    +0.000 A 
ATOM     29  C   UNL     1      45.433   3.944   8.384  0.00  0.00    +0.000 A 
ATOM     30  C   UNL     1      45.534   2.605   7.963  0.00  0.00    +0.000 A 
ATOM     31  N   UNL     1      45.207   1.743   8.925  0.00  0.00    +0.000 NA
ATOM     32  N   UNL     1      44.905   2.539   9.968  0.00  0.00    +0.000 N 
ATOM     33  H   UNL     1      44.617   2.111  10.845  0.00  0.00    +0.000 HD
ENDBRANCH  25  28
ENDBRANCH  23  24
ENDBRANCH   4  23
TORSDOF 6
ENDMDL
MODEL 4
REMARK VINA RESULT:    -7.187      2.017      2.752
REMARK INTER + INTRA:         -10.774
REMARK INTER:                  -9.673
REMARK INTRA:                  -1.100
REMARK UNBOUND:                -1.065
REMARK  Name = 
REMARK  7 active torsions:
REMARK  status: ('A' for Active; 'I' for Inactive)
REMARK    1  A    between atoms: C_1  and  N_2
REMARK    2  A    between atoms: N_2  and  C_3
REMARK    3  A    between atoms: C_3  and  C_4
REMARK    4  A    between atoms: C_7  and  C_8
REMARK    5  A    between atoms: C_8  and  N_9
REMARK    6  A    between atoms: C_10  and  C_12
REMARK    7  A    between atoms: C_19  and  C_21
REMARK                            x       y       z     vdW  Elec       q    Type
REMARK                         _______ _______ _______ _____ _____    ______ ____
ROOT
ATOM      1  C   UNL     1      46.190   6.937  12.894  0.00  0.00    +0.000 A 
ATOM      2  N   UNL     1      46.593   5.695  13.223  0.00  0.00    +0.000 NA
ATOM      3  C   UNL     1      45.884   4.673  12.701  0.00  0.00    +0.000 A 
ATOM      4  C   UNL     1      44.797   4.836  11.868  0.00  0.00    +0.000 A 
ATOM      5  C   UNL     1      44.444   6.146  11.624  0.00  0.00    +0.000 A 
ATOM      6  N   UNL     1      45.118   7.203  12.113  0.00  0.00    +0.000 NA
ENDROOT
BRANCH   1   7
ATOM      7  C   UNL     1      46.971   8.126  13.419  0.00  0.00    +0.000 C 
BRANCH   7   9
ATOM      8  C   UNL     1      48.621   9.039  11.764  0.00  0.00    +0.000 C 
ATOM      9  N   UNL     1      48.367   8.271  12.980  0.00  0.00    +0.000 N 
ATOM     10  C   UNL     1      49.482   8.036  13.798  0.00  0.00    +0.000 C 
ATOM     11  O   UNL     1      50.621   8.115  13.336  0.00  0.00    +0.000 OA
BRANCH  10  12
ATOM     12  C   UNL     1      49.344   7.835  15.253  0.00  0.00    +0.000 A 
ATOM     13  C   UNL     1      49.301   6.624  15.924  0.00  0.00    +0.000 A 
ATOM     14  S   UNL     1      48.691   6.746  17.521  0.00  0.00    +0.000 S 
ATOM     15  C   UNL     1      48.450   8.418  17.352  0.00  0.00    +0.000 A 
ATOM     16  N   UNL     1      47.794   9.142  18.298  0.00  0.00    +0.000 NA
ATOM     17  C   UNL     1      47.697  10.401  18.023  0.00  0.00    +0.000 A 
ATOM     18  N   UNL     1      48.247  11.009  16.922  0.00  0.00    +0.000 N 
ATOM     19  C   UNL     1      49.009  10.331  15.996  0.00  0.00    +0.000 A 
ATOM     20  O   UNL     1      49.708  10.925  15.183  0.00  0.00    +0.000 OA
ATOM     21  C   UNL     1      48.989   8.891  16.174  0.00  0.00    +0.000 A 
ATOM     22  H   UNL     1      48.245  12.014  16.834  0.00  0.00    +0.000 HD
ENDBRANCH  10  12
ENDBRANCH   7   9
ENDBRANCH   1   7
BRANCH   4  23
ATOM     23  C   UNL     1      44.060   3.691  11.264  0.00  0.00    +0.000 C 
BRANCH  23  24
ATOM     24  N   UNL     1      44.890   2.891  10.398  0.00  0.00    +0.000 N 
ATOM     25  C   UNL     1      44.980   3.188   9.057  0.00  0.00    +0.000 C 
ATOM     26  O   UNL     1      44.327   4.093   8.546  0.00  0.00    +0.000 OA
ATOM     27  H   UNL     1      45.492   2.186  10.795  0.00  0.00    +0.000 HD
BRANCH  25  28
ATOM     28  C   UNL     1      45.890   2.373   8.301  0.00  0.00    +0.000 A 
ATOM     29  C   UNL     1      46.872   2.655   7.372  0.00  0.00    +0.000 A 
ATOM     30  C   UNL     1      47.398   1.402   7.004  0.00  0.00    +0.000 A 
ATOM     31  N   UNL     1      46.804   0.393   7.642  0.00  0.00    +0.000 NA
ATOM     32  N   UNL     1      45.900   1.010   8.427  0.00  0.00    +0.000 N 
ATOM     33  H   UNL     1      45.304   0.445   9.028  0.00  0.00    +0.000 HD
ENDBRANCH  25  28
ENDBRANCH  23  24
ENDBRANCH   4  23
TORSDOF 6
ENDMDL
MODEL 5
REMARK VINA RESULT:    -6.890      2.653      4.252
REMARK INTER + INTRA:         -10.372
REMARK INTER:                  -9.357
REMARK INTRA:                  -1.015
REMARK UNBOUND:                -1.065
REMARK  Name = 
REMARK  7 active torsions:
REMARK  status: ('A' for Active; 'I' for Inactive)
REMARK    1  A    between atoms: C_1  and  N_2
REMARK    2  A    between atoms: N_2  and  C_3
REMARK    3  A    between atoms: C_3  and  C_4
REMARK    4  A    between atoms: C_7  and  C_8
REMARK    5  A    between atoms: C_8  and  N_9
REMARK    6  A    between atoms: C_10  and  C_12
REMARK    7  A    between atoms: C_19  and  C_21
REMARK                            x       y       z     vdW  Elec       q    Type
REMARK                         _______ _______ _______ _____ _____    ______ ____
ROOT
ATOM      1  C   UNL     1      48.814   7.181  15.070  0.00  0.00    +0.000 A 
ATOM      2  N   UNL     1      48.359   6.064  14.470  0.00  0.00    +0.000 NA
ATOM      3  C   UNL     1      47.421   6.233  13.516  0.00  0.00    +0.000 A 
ATOM      4  C   UNL     1      46.921   7.461  13.135  0.00  0.00    +0.000 A 
ATOM      5  C   UNL     1      47.425   8.535  13.837  0.00  0.00    +0.000 A 
ATOM      6  N   UNL     1      48.365   8.426  14.794  0.00  0.00    +0.000 NA
ENDROOT
BRANCH   1   7
ATOM      7  C   UNL     1      49.897   7.057  16.124  0.00  0.00    +0.000 C 
BRANCH   7   9
ATOM      8  C   UNL     1      48.809   8.069  18.145  0.00  0.00    +0.000 C 
ATOM      9  N   UNL     1      49.471   6.925  17.525  0.00  0.00    +0.000 N 
ATOM     10  C   UNL     1      49.336   5.702  18.199  0.00  0.00    +0.000 C 
ATOM     11  O   UNL     1      49.038   5.679  19.394  0.00  0.00    +0.000 OA
BRANCH  10  12
ATOM     12  C   UNL     1      49.396   4.414  17.481  0.00  0.00    +0.000 A 
ATOM     13  C   UNL     1      48.327   3.710  16.950  0.00  0.00    +0.000 A 
ATOM     14  S   UNL     1      48.693   2.074  16.595  0.00  0.00    +0.000 S 
ATOM     15  C   UNL     1      50.285   2.258  17.159  0.00  0.00    +0.000 A 
ATOM     16  N   UNL     1      51.119   1.193  17.297  0.00  0.00    +0.000 NA
ATOM     17  C   UNL     1      52.296   1.500  17.733  0.00  0.00    +0.000 A 
ATOM     18  N   UNL     1      52.731   2.778  17.984  0.00  0.00    +0.000 N 
ATOM     19  C   UNL     1      51.953   3.892  17.756  0.00  0.00    +0.000 A 
ATOM     20  O   UNL     1      52.438   5.017  17.726  0.00  0.00    +0.000 OA
ATOM     21  C   UNL     1      50.573   3.578  17.440  0.00  0.00    +0.000 A 
ATOM     22  H   UNL     1      53.700   2.959  18.198  0.00  0.00    +0.000 HD
ENDBRANCH  10  12
ENDBRANCH   7   9
ENDBRANCH   1   7
BRANCH   4  23
ATOM     23  C   UNL     1      45.921   7.627  12.044  0.00  0.00    +0.000 C 
BRANCH  23  24
ATOM     24  N   UNL     1      45.806   6.453  11.214  0.00  0.00    +0.000 N 
ATOM     25  C   UNL     1      44.657   5.695  11.241  0.00  0.00    +0.000 C 
ATOM     26  O   UNL     1      43.727   5.952  11.998  0.00  0.00    +0.000 OA
ATOM     27  H   UNL     1      46.520   6.253  10.530  0.00  0.00    +0.000 HD
BRANCH  25  28
ATOM     28  C   UNL     1      44.621   4.591  10.322  0.00  0.00    +0.000 A 
ATOM     29  C   UNL     1      44.353   3.244  10.463  0.00  0.00    +0.000 A 
ATOM     30  C   UNL     1      44.491   2.706   9.170  0.00  0.00    +0.000 A 
ATOM     31  N   UNL     1      44.822   3.629   8.268  0.00  0.00    +0.000 NA
ATOM     32  N   UNL     1      44.887   4.763   8.991  0.00  0.00    +0.000 N 
ATOM     33  H   UNL     1      45.128   5.633   8.521  0.00  0.00    +0.000 HD
ENDBRANCH  25  28
ENDBRANCH  23  24
ENDBRANCH   4  23
TORSDOF 6
ENDMDL
MODEL 6
REMARK VINA RESULT:    -6.590      3.688      4.191
REMARK INTER + INTRA:          -9.967
REMARK INTER:                  -9.109
REMARK INTRA:                  -0.858
REMARK UNBOUND:                -1.065
REMARK  Name = 
REMARK  7 active torsions:
REMARK  status: ('A' for Active; 'I' for Inactive)
REMARK    1  A    between atoms: C_1  and  N_2
REMARK    2  A    between atoms: N_2  and  C_3
REMARK    3  A    between atoms: C_3  and  C_4
REMARK    4  A    between atoms: C_7  and  C_8
REMARK    5  A    between atoms: C_8  and  N_9
REMARK    6  A    between atoms: C_10  and  C_12
REMARK    7  A    between atoms: C_19  and  C_21
REMARK                            x       y       z     vdW  Elec       q    Type
REMARK                         _______ _______ _______ _____ _____    ______ ____
ROOT
ATOM      1  C   UNL     1      45.704   7.473  12.352  0.00  0.00    +0.000 A 
ATOM      2  N   UNL     1      46.442   6.349  12.266  0.00  0.00    +0.000 NA
ATOM      3  C   UNL     1      45.945   5.359  11.497  0.00  0.00    +0.000 A 
ATOM      4  C   UNL     1      44.751   5.441  10.812  0.00  0.00    +0.000 A 
ATOM      5  C   UNL     1      44.056   6.617  10.998  0.00  0.00    +0.000 A 
ATOM      6  N   UNL     1      44.506   7.640  11.748  0.00  0.00    +0.000 NA
ENDROOT
BRANCH   1   7
ATOM      7  C   UNL     1      46.230   8.635  13.171  0.00  0.00    +0.000 C 
BRANCH   7   9
ATOM      8  C   UNL     1      45.529  10.694  11.921  0.00  0.00    +0.000 C 
ATOM      9  N   UNL     1      46.604   9.861  12.451  0.00  0.00    +0.000 N 
ATOM     10  C   UNL     1      47.866  10.469  12.529  0.00  0.00    +0.000 C 
ATOM     11  O   UNL     1      48.123  11.459  11.842  0.00  0.00    +0.000 OA
BRANCH  10  12
ATOM     12  C   UNL     1      48.867  10.048  13.528  0.00  0.00    +0.000 A 
ATOM     13  C   UNL     1      49.013  10.539  14.815  0.00  0.00    +0.000 A 
ATOM     14  S   UNL     1      50.525  10.161  15.526  0.00  0.00    +0.000 S 
ATOM     15  C   UNL     1      51.034   9.347  14.125  0.00  0.00    +0.000 A 
ATOM     16  N   UNL     1      52.313   8.907  13.982  0.00  0.00    +0.000 NA
ATOM     17  C   UNL     1      52.539   8.304  12.862  0.00  0.00    +0.000 A 
ATOM     18  N   UNL     1      51.590   8.048  11.902  0.00  0.00    +0.000 N 
ATOM     19  C   UNL     1      50.262   8.383  12.055  0.00  0.00    +0.000 A 
ATOM     20  O   UNL     1      49.396   7.914  11.326  0.00  0.00    +0.000 OA
ATOM     21  C   UNL     1      50.006   9.216  13.214  0.00  0.00    +0.000 A 
ATOM     22  H   UNL     1      51.804   7.461  11.111  0.00  0.00    +0.000 HD
ENDBRANCH  10  12
ENDBRANCH   7   9
ENDBRANCH   1   7
BRANCH   4  23
ATOM     23  C   UNL     1      44.246   4.353   9.929  0.00  0.00    +0.000 C 
BRANCH  23  24
ATOM     24  N   UNL     1      45.165   4.029   8.866  0.00  0.00    +0.000 N 
ATOM     25  C   UNL     1      45.500   2.717   8.616  0.00  0.00    +0.000 C 
ATOM     26  O   UNL     1      45.081   1.796   9.309  0.00  0.00    +0.000 OA
ATOM     27  H   UNL     1      45.473   4.752   8.234  0.00  0.00    +0.000 HD
BRANCH  25  28
ATOM     28  C   UNL     1      46.365   2.503   7.490  0.00  0.00    +0.000 A 
ATOM     29  C   UNL     1      46.601   3.204   6.324  0.00  0.00    +0.000 A 
ATOM     30  C   UNL     1      47.568   2.450   5.632  0.00  0.00    +0.000 A 
ATOM     31  N   UNL     1      47.927   1.352   6.296  0.00  0.00    +0.000 NA
ATOM     32  N   UNL     1      47.189   1.412   7.421  0.00  0.00    +0.000 N 
ATOM     33  H   UNL     1      47.282   0.669   8.110  0.00  0.00    +0.000 HD
ENDBRANCH  25  28
ENDBRANCH  23  24
ENDBRANCH   4  23
TORSDOF 6
ENDMDL
MODEL 7
REMARK VINA RESULT:    -6.451      3.130      8.934
REMARK INTER + INTRA:          -9.779
REMARK INTER:                  -9.220
REMARK INTRA:                  -0.559
REMARK UNBOUND:                -1.065
REMARK  Name = 
REMARK  7 active torsions:
REMARK  status: ('A' for Active; 'I' for Inactive)
REMARK    1  A    between atoms: C_1  and  N_2
REMARK    2  A    between atoms: N_2  and  C_3
REMARK    3  A    between atoms: C_3  and  C_4
REMARK    4  A    between atoms: C_7  and  C_8
REMARK    5  A    between atoms: C_8  and  N_9
REMARK    6  A    between atoms: C_10  and  C_12
REMARK    7  A    between atoms: C_19  and  C_21
REMARK                            x       y       z     vdW  Elec       q    Type
REMARK                         _______ _______ _______ _____ _____    ______ ____
ROOT
ATOM      1  C   UNL     1      47.433   5.041  14.172  0.00  0.00    +0.000 A 
ATOM      2  N   UNL     1      46.884   4.063  14.918  0.00  0.00    +0.000 NA
ATOM      3  C   UNL     1      47.239   4.026  16.219  0.00  0.00    +0.000 A 
ATOM      4  C   UNL     1      48.112   4.919  16.805  0.00  0.00    +0.000 A 
ATOM      5  C   UNL     1      48.646   5.856  15.947  0.00  0.00    +0.000 A 
ATOM      6  N   UNL     1      48.324   5.943  14.643  0.00  0.00    +0.000 NA
ENDROOT
BRANCH   1   7
ATOM      7  C   UNL     1      47.043   5.157  12.712  0.00  0.00    +0.000 C 
BRANCH   7   9
ATOM      8  C   UNL     1      47.093   7.577  12.052  0.00  0.00    +0.000 C 
ATOM      9  N   UNL     1      46.316   6.365  12.295  0.00  0.00    +0.000 N 
ATOM     10  C   UNL     1      45.009   6.364  11.785  0.00  0.00    +0.000 C 
ATOM     11  O   UNL     1      44.444   7.426  11.520  0.00  0.00    +0.000 OA
BRANCH  10  12
ATOM     12  C   UNL     1      44.327   5.111  11.409  0.00  0.00    +0.000 A 
ATOM     13  C   UNL     1      43.417   4.400  12.173  0.00  0.00    +0.000 A 
ATOM     14  S   UNL     1      43.174   2.793  11.632  0.00  0.00    +0.000 S 
ATOM     15  C   UNL     1      44.293   2.997  10.372  0.00  0.00    +0.000 A 
ATOM     16  N   UNL     1      44.699   1.952   9.603  0.00  0.00    +0.000 NA
ATOM     17  C   UNL     1      45.550   2.274   8.685  0.00  0.00    +0.000 A 
ATOM     18  N   UNL     1      45.983   3.551   8.429  0.00  0.00    +0.000 N 
ATOM     19  C   UNL     1      45.516   4.651   9.114  0.00  0.00    +0.000 A 
ATOM     20  O   UNL     1      45.702   5.790   8.701  0.00  0.00    +0.000 OA
ATOM     21  C   UNL     1      44.701   4.312  10.265  0.00  0.00    +0.000 A 
ATOM     22  H   UNL     1      46.547   3.750   7.617  0.00  0.00    +0.000 HD
ENDBRANCH  10  12
ENDBRANCH   7   9
ENDBRANCH   1   7
BRANCH   4  23
ATOM     23  C   UNL     1      48.451   4.888  18.255  0.00  0.00    +0.000 C 
BRANCH  23  24
ATOM     24  N   UNL     1      49.870   4.780  18.492  0.00  0.00    +0.000 N 
ATOM     25  C   UNL     1      50.548   3.639  18.127  0.00  0.00    +0.000 C 
ATOM     26  O   UNL     1      49.974   2.668  17.646  0.00  0.00    +0.000 OA
ATOM     27  H   UNL     1      50.384   5.584  18.819  0.00  0.00    +0.000 HD
BRANCH  25  28
ATOM     28  C   UNL     1      51.968   3.668  18.341  0.00  0.00    +0.000 A 
ATOM     29  C   UNL     1      52.955   4.593  18.060  0.00  0.00    +0.000 A 
ATOM     30  C   UNL     1      54.148   4.007  18.523  0.00  0.00    +0.000 A 
ATOM     31  N   UNL     1      53.950   2.802  19.058  0.00  0.00    +0.000 NA
ATOM     32  N   UNL     1      52.620   2.625  18.942  0.00  0.00    +0.000 N 
ATOM     33  H   UNL     1      52.208   1.760  19.285  0.00  0.00    +0.000 HD
ENDBRANCH  25  28
ENDBRANCH  23  24
ENDBRANCH   4  23
TORSDOF 6
ENDMDL
MODEL 8
REMARK VINA RESULT:    -6.210      3.062      9.536
REMARK INTER + INTRA:          -9.453
REMARK INTER:                  -8.900
REMARK INTRA:                  -0.553
REMARK UNBOUND:                -1.065
REMARK  Name = 
REMARK  7 active torsions:
REMARK  status: ('A' for Active; 'I' for Inactive)
REMARK    1  A    between atoms: C_1  and  N_2
REMARK    2  A    between atoms: N_2  and  C_3
REMARK    3  A    between atoms: C_3  and  C_4
REMARK    4  A    between atoms: C_7  and  C_8
REMARK    5  A    between atoms: C_8  and  N_9
REMARK    6  A    between atoms: C_10  and  C_12
REMARK    7  A    between atoms: C_19  and  C_21
REMARK                            x       y       z     vdW  Elec       q    Type
REMARK                         _______ _______ _______ _____ _____    ______ ____
ROOT
ATOM      1  C   UNL     1      47.456   4.874  14.668  0.00  0.00    +0.000 A 
ATOM      2  N   UNL     1      46.853   3.979  15.475  0.00  0.00    +0.000 NA
ATOM      3  C   UNL     1      47.129   4.073  16.791  0.00  0.00    +0.000 A 
ATOM      4  C   UNL     1      47.975   5.018  17.336  0.00  0.00    +0.000 A 
ATOM      5  C   UNL     1      48.569   5.860  16.421  0.00  0.00    +0.000 A 
ATOM      6  N   UNL     1      48.326   5.815  15.098  0.00  0.00    +0.000 NA
ENDROOT
BRANCH   1   7
ATOM      7  C   UNL     1      47.155   4.841  13.182  0.00  0.00    +0.000 C 
BRANCH   7   9
ATOM      8  C   UNL     1      47.749   7.121  12.319  0.00  0.00    +0.000 C 
ATOM      9  N   UNL     1      46.732   6.098  12.547  0.00  0.00    +0.000 N 
ATOM     10  C   UNL     1      45.533   6.260  11.837  0.00  0.00    +0.000 C 
ATOM     11  O   UNL     1      45.219   7.364  11.390  0.00  0.00    +0.000 OA
BRANCH  10  12
ATOM     12  C   UNL     1      44.687   5.106  11.474  0.00  0.00    +0.000 A 
ATOM     13  C   UNL     1      43.758   4.472  12.282  0.00  0.00    +0.000 A 
ATOM     14  S   UNL     1      43.296   2.924  11.711  0.00  0.00    +0.000 S 
ATOM     15  C   UNL     1      44.340   3.051  10.378  0.00  0.00    +0.000 A 
ATOM     16  N   UNL     1      44.569   1.998   9.549  0.00  0.00    +0.000 NA
ATOM     17  C   UNL     1      45.384   2.259   8.581  0.00  0.00    +0.000 A 
ATOM     18  N   UNL     1      45.941   3.489   8.333  0.00  0.00    +0.000 N 
ATOM     19  C   UNL     1      45.652   4.607   9.085  0.00  0.00    +0.000 A 
ATOM     20  O   UNL     1      45.936   5.733   8.694  0.00  0.00    +0.000 OA
ATOM     21  C   UNL     1      44.886   4.315  10.282  0.00  0.00    +0.000 A 
ATOM     22  H   UNL     1      46.465   3.656   7.487  0.00  0.00    +0.000 HD
ENDBRANCH  10  12
ENDBRANCH   7   9
ENDBRANCH   1   7
BRANCH   4  23
ATOM     23  C   UNL     1      48.226   5.133  18.800  0.00  0.00    +0.000 C 
BRANCH  23  24
ATOM     24  N   UNL     1      49.247   6.102  19.113  0.00  0.00    +0.000 N 
ATOM     25  C   UNL     1      50.542   5.695  19.342  0.00  0.00    +0.000 C 
ATOM     26  O   UNL     1      50.860   4.510  19.342  0.00  0.00    +0.000 OA
ATOM     27  H   UNL     1      49.036   7.087  19.053  0.00  0.00    +0.000 HD
BRANCH  25  28
ATOM     28  C   UNL     1      51.491   6.747  19.573  0.00  0.00    +0.000 A 
ATOM     29  C   UNL     1      52.531   6.912  20.467  0.00  0.00    +0.000 A 
ATOM     30  C   UNL     1      53.069   8.179  20.173  0.00  0.00    +0.000 A 
ATOM     31  N   UNL     1      52.430   8.784  19.173  0.00  0.00    +0.000 NA
ATOM     32  N   UNL     1      51.484   7.892  18.823  0.00  0.00    +0.000 N 
ATOM     33  H   UNL     1      50.848   8.123  18.062  0.00  0.00    +0.000 HD
ENDBRANCH  25  28
ENDBRANCH  23  24
ENDBRANCH   4  23
TORSDOF 6
ENDMDL
MODEL 9
REMARK VINA RESULT:    -5.925      3.922      7.633
REMARK INTER + INTRA:          -9.068
REMARK INTER:                  -7.925
REMARK INTRA:                  -1.143
REMARK UNBOUND:                -1.065
REMARK  Name = 
REMARK  7 active torsions:
REMARK  status: ('A' for Active; 'I' for Inactive)
REMARK    1  A    between atoms: C_1  and  N_2
REMARK    2  A    between atoms: N_2  and  C_3
REMARK    3  A    between atoms: C_3  and  C_4
REMARK    4  A    between atoms: C_7  and  C_8
REMARK    5  A    between atoms: C_8  and  N_9
REMARK    6  A    between atoms: C_10  and  C_12
REMARK    7  A    between atoms: C_19  and  C_21
REMARK                            x       y       z     vdW  Elec       q    Type
REMARK                         _______ _______ _______ _____ _____    ______ ____
ROOT
ATOM      1  C   UNL     1      48.741   7.319  16.246  0.00  0.00    +0.000 A 
ATOM      2  N   UNL     1      48.959   7.196  17.569  0.00  0.00    +0.000 NA
ATOM      3  C   UNL     1      48.845   5.955  18.086  0.00  0.00    +0.000 A 
ATOM      4  C   UNL     1      48.526   4.838  17.343  0.00  0.00    +0.000 A 
ATOM      5  C   UNL     1      48.285   5.079  16.008  0.00  0.00    +0.000 A 
ATOM      6  N   UNL     1      48.390   6.293  15.438  0.00  0.00    +0.000 NA
ENDROOT
BRANCH   1   7
ATOM      7  C   UNL     1      48.892   8.683  15.601  0.00  0.00    +0.000 C 
BRANCH   7   9
ATOM      8  C   UNL     1      51.282   8.273  14.958  0.00  0.00    +0.000 C 
ATOM      9  N   UNL     1      49.985   8.862  14.635  0.00  0.00    +0.000 N 
ATOM     10  C   UNL     1      49.804   9.242  13.297  0.00  0.00    +0.000 C 
ATOM     11  O   UNL     1      50.777   9.435  12.567  0.00  0.00    +0.000 OA
BRANCH  10  12
ATOM     12  C   UNL     1      48.464   9.278  12.679  0.00  0.00    +0.000 A 
ATOM     13  C   UNL     1      47.700  10.404  12.419  0.00  0.00    +0.000 A 
ATOM     14  S   UNL     1      46.049  10.059  12.122  0.00  0.00    +0.000 S 
ATOM     15  C   UNL     1      46.306   8.396  12.351  0.00  0.00    +0.000 A 
ATOM     16  N   UNL     1      45.270   7.517  12.404  0.00  0.00    +0.000 NA
ATOM     17  C   UNL     1      45.633   6.289  12.579  0.00  0.00    +0.000 A 
ATOM     18  N   UNL     1      46.934   5.855  12.646  0.00  0.00    +0.000 N 
ATOM     19  C   UNL     1      48.012   6.699  12.491  0.00  0.00    +0.000 A 
ATOM     20  O   UNL     1      49.140   6.266  12.284  0.00  0.00    +0.000 OA
ATOM     21  C   UNL     1      47.649   8.103  12.472  0.00  0.00    +0.000 A 
ATOM     22  H   UNL     1      47.149   4.870  12.654  0.00  0.00    +0.000 HD
ENDBRANCH  10  12
ENDBRANCH   7   9
ENDBRANCH   1   7
BRANCH   4  23
ATOM     23  C   UNL     1      48.454   3.469  17.927  0.00  0.00    +0.000 C 
BRANCH  23  24
ATOM     24  N   UNL     1      49.755   2.930  18.240  0.00  0.00    +0.000 N 
ATOM     25  C   UNL     1      50.418   2.144  17.324  0.00  0.00    +0.000 C 
ATOM     26  O   UNL     1      49.914   1.834  16.249  0.00  0.00    +0.000 OA
ATOM     27  H   UNL     1      50.228   3.222  19.082  0.00  0.00    +0.000 HD
BRANCH  25  28
ATOM     28  C   UNL     1      51.735   1.721  17.709  0.00  0.00    +0.000 A 
ATOM     29  C   UNL     1      52.550   0.676  17.320  0.00  0.00    +0.000 A 
ATOM     30  C   UNL     1      53.721   0.821  18.088  0.00  0.00    +0.000 A 
ATOM     31  N   UNL     1      53.668   1.872  18.905  0.00  0.00    +0.000 NA
ATOM     32  N   UNL     1      52.457   2.404  18.650  0.00  0.00    +0.000 N 
ATOM     33  H   UNL     1      52.169   3.237  19.159  0.00  0.00    +0.000 HD
ENDBRANCH  25  28
ENDBRANCH  23  24
ENDBRANCH   4  23
TORSDOF 6
ENDMDL
