MODEL 1
REMARK VINA RESULT:    -7.846      0.000      0.000
REMARK INTER + INTRA:         -13.079
REMARK INTER:                 -11.744
REMARK INTRA:                  -1.335
REMARK UNBOUND:                -1.335
REMARK  Name = 
REMARK  9 active torsions:
REMARK  status: ('A' for Active; 'I' for Inactive)
REMARK    1  A    between atoms: C_2  and  O_3
REMARK    2  A    between atoms: C_2  and  C_4
REMARK    3  A    between atoms: C_4  and  N_5
REMARK    4  A    between atoms: N_5  and  C_6
REMARK    5  A    between atoms: C_6  and  C_7
REMARK    6  A    between atoms: C_10  and  C_11
REMARK    7  A    between atoms: C_11  and  C_12
REMARK    8  A    between atoms: C_12  and  C_13
REMARK    9  A    between atoms: C_22  and  C_24
REMARK                            x       y       z     vdW  Elec       q    Type
REMARK                         _______ _______ _______ _____ _____    ______ ____
ROOT
ATOM      1  N   UNL     1      46.839   6.971  12.239  0.00  0.00    +0.000 N 
ATOM      2  C   UNL     1      45.544   6.768  11.686  0.00  0.00    +0.000 C 
ATOM      3  O   UNL     1      44.937   7.723  11.210  0.00  0.00    +0.000 OA
ENDROOT
BRANCH   2   4
ATOM      4  C   UNL     1      44.951   5.412  11.638  0.00  0.00    +0.000 A 
ATOM      5  C   UNL     1      44.420   4.748  12.733  0.00  0.00    +0.000 A 
ATOM      6  S   UNL     1      43.686   3.256  12.358  0.00  0.00    +0.000 S 
ATOM      7  C   UNL     1      44.244   3.330  10.758  0.00  0.00    +0.000 A 
ATOM      8  N   UNL     1      43.997   2.308   9.898  0.00  0.00    +0.000 NA
ATOM      9  C   UNL     1      44.531   2.455   8.731  0.00  0.00    +0.000 A 
ATOM     10  N   UNL     1      45.288   3.535   8.355  0.00  0.00    +0.000 N 
ATOM     11  C   UNL     1      45.554   4.603   9.185  0.00  0.00    +0.000 A 
ATOM     12  O   UNL     1      46.255   5.528   8.794  0.00  0.00    +0.000 OA
ATOM     13  C   UNL     1      44.957   4.494  10.508  0.00  0.00    +0.000 A 
ATOM     14  H   UNL     1      45.700   3.577   7.434  0.00  0.00    +0.000 HD
ENDBRANCH   2   4
BRANCH   1  15
ATOM     15  C   UNL     1      47.269   8.379  12.430  0.00  0.00    +0.000 C 
BRANCH  15  17
ATOM     16  O   UNL     1      49.434   7.945  11.403  0.00  0.00    +0.000 OA
ATOM     17  C   UNL     1      48.559   8.751  11.688  0.00  0.00    +0.000 C 
BRANCH  17  18
ATOM     18  O   UNL     1      48.643  10.061  11.368  0.00  0.00    +0.000 OA
ATOM     19  H   UNL     1      47.993  10.273  10.672  0.00  0.00    +0.000 HD
ENDBRANCH  17  18
ENDBRANCH  15  17
ENDBRANCH   1  15
BRANCH   1  20
ATOM     20  C   UNL     1      47.579   5.899  12.907  0.00  0.00    +0.000 C 
BRANCH  20  21
ATOM     21  C   UNL     1      47.693   5.837  14.410  0.00  0.00    +0.000 A 
ATOM     22  C   UNL     1      47.134   4.763  15.113  0.00  0.00    +0.000 A 
ATOM     23  C   UNL     1      47.504   4.517  16.437  0.00  0.00    +0.000 A 
ATOM     24  C   UNL     1      48.442   5.334  17.079  0.00  0.00    +0.000 A 
ATOM     25  C   UNL     1      48.914   6.471  16.413  0.00  0.00    +0.000 A 
ATOM     26  C   UNL     1      48.537   6.727  15.091  0.00  0.00    +0.000 A 
BRANCH  24  27
ATOM     27  C   UNL     1      48.992   4.951  18.433  0.00  0.00    +0.000 C 
BRANCH  27  28
ATOM     28  C   UNL     1      49.659   3.561  18.455  0.00  0.00    +0.000 C 
BRANCH  28  29
ATOM     29  C   UNL     1      50.706   3.310  17.347  0.00  0.00    +0.000 C 
ATOM     30  C   UNL     1      52.148   3.602  17.789  0.00  0.00    +0.000 C 
ATOM     31  C   UNL     1      52.767   2.430  18.536  0.00  0.00    +0.000 C 
ATOM     32  C   UNL     1      52.767   1.226  17.615  0.00  0.00    +0.000 C 
ATOM     33  N   UNL     1      51.433   0.934  17.139  0.00  0.00    +0.000 N 
ATOM     34  C   UNL     1      50.518   1.892  16.802  0.00  0.00    +0.000 C 
ATOM     35  O   UNL     1      49.529   1.570  16.146  0.00  0.00    +0.000 OA
ATOM     36  H   UNL     1      51.262   0.041  16.701  0.00  0.00    +0.000 HD
ENDBRANCH  28  29
ENDBRANCH  27  28
ENDBRANCH  24  27
ENDBRANCH  20  21
ENDBRANCH   1  20
TORSDOF 9
ENDMDL
MODEL 2
REMARK VINA RESULT:    -7.503      2.642      7.999
REMARK INTER + INTRA:         -12.567
REMARK INTER:                 -11.093
REMARK INTRA:                  -1.474
REMARK UNBOUND:                -1.335
REMARK  Name = 
REMARK  9 active torsions:
REMARK  status: ('A' for Active; 'I' for Inactive)
REMARK    1  A    between atoms: C_2  and  O_3
REMARK    2  A    between atoms: C_2  and  C_4
REMARK    3  A    between atoms: C_4  and  N_5
REMARK    4  A    between atoms: N_5  and  C_6
REMARK    5  A    between atoms: C_6  and  C_7
REMARK    6  A    between atoms: C_10  and  C_11
REMARK    7  A    between atoms: C_11  and  C_12
REMARK    8  A    between atoms: C_12  and  C_13
REMARK    9  A    between atoms: C_22  and  C_24
REMARK                            x       y       z     vdW  Elec       q    Type
REMARK                         _______ _______ _______ _____ _____    ______ ____
ROOT
ATOM      1  N   UNL     1      49.330   7.482  16.141  0.00  0.00    +0.000 N 
ATOM      2  C   UNL     1      49.230   6.758  17.362  0.00  0.00    +0.000 C 
ATOM      3  O   UNL     1      49.366   7.353  18.427  0.00  0.00    +0.000 OA
ENDROOT
BRANCH   2   4
ATOM      4  C   UNL     1      48.917   5.310  17.355  0.00  0.00    +0.000 A 
ATOM      5  C   UNL     1      47.638   4.784  17.442  0.00  0.00    +0.000 A 
ATOM      6  S   UNL     1      47.567   3.089  17.274  0.00  0.00    +0.000 S 
ATOM      7  C   UNL     1      49.258   2.968  17.303  0.00  0.00    +0.000 A 
ATOM      8  N   UNL     1      49.859   1.751  17.250  0.00  0.00    +0.000 NA
ATOM      9  C   UNL     1      51.147   1.790  17.348  0.00  0.00    +0.000 A 
ATOM     10  N   UNL     1      51.879   2.939  17.492  0.00  0.00    +0.000 N 
ATOM     11  C   UNL     1      51.318   4.198  17.536  0.00  0.00    +0.000 A 
ATOM     12  O   UNL     1      52.028   5.184  17.688  0.00  0.00    +0.000 OA
ATOM     13  C   UNL     1      49.868   4.210  17.411  0.00  0.00    +0.000 A 
ATOM     14  H   UNL     1      52.883   2.899  17.590  0.00  0.00    +0.000 HD
ENDBRANCH   2   4
BRANCH   1  15
ATOM     15  C   UNL     1      49.842   8.872  16.231  0.00  0.00    +0.000 C 
BRANCH  15  17
ATOM     16  O   UNL     1      48.935  10.648  14.833  0.00  0.00    +0.000 OA
ATOM     17  C   UNL     1      48.824   9.947  15.829  0.00  0.00    +0.000 C 
BRANCH  17  18
ATOM     18  O   UNL     1      47.779  10.050  16.679  0.00  0.00    +0.000 OA
ATOM     19  H   UNL     1      48.040  10.571  17.462  0.00  0.00    +0.000 HD
ENDBRANCH  17  18
ENDBRANCH  15  17
ENDBRANCH   1  15
BRANCH   1  20
ATOM     20  C   UNL     1      49.274   6.822  14.836  0.00  0.00    +0.000 C 
BRANCH  20  21
ATOM     21  C   UNL     1      47.986   6.723  14.056  0.00  0.00    +0.000 A 
ATOM     22  C   UNL     1      47.590   7.773  13.218  0.00  0.00    +0.000 A 
ATOM     23  C   UNL     1      46.599   7.572  12.256  0.00  0.00    +0.000 A 
ATOM     24  C   UNL     1      45.990   6.319  12.109  0.00  0.00    +0.000 A 
ATOM     25  C   UNL     1      46.307   5.305  13.021  0.00  0.00    +0.000 A 
ATOM     26  C   UNL     1      47.292   5.506  13.993  0.00  0.00    +0.000 A 
BRANCH  24  27
ATOM     27  C   UNL     1      45.070   6.046  10.943  0.00  0.00    +0.000 C 
BRANCH  27  28
ATOM     28  C   UNL     1      45.709   5.170   9.847  0.00  0.00    +0.000 C 
BRANCH  28  29
ATOM     29  C   UNL     1      44.726   4.285   9.047  0.00  0.00    +0.000 C 
ATOM     30  C   UNL     1      45.326   3.719   7.752  0.00  0.00    +0.000 C 
ATOM     31  C   UNL     1      46.141   2.458   8.001  0.00  0.00    +0.000 C 
ATOM     32  C   UNL     1      45.228   1.417   8.620  0.00  0.00    +0.000 C 
ATOM     33  N   UNL     1      44.605   1.920   9.824  0.00  0.00    +0.000 N 
ATOM     34  C   UNL     1      44.166   3.204   9.975  0.00  0.00    +0.000 C 
ATOM     35  O   UNL     1      43.403   3.471  10.903  0.00  0.00    +0.000 OA
ATOM     36  H   UNL     1      44.152   1.263  10.443  0.00  0.00    +0.000 HD
ENDBRANCH  28  29
ENDBRANCH  27  28
ENDBRANCH  24  27
ENDBRANCH  20  21
ENDBRANCH   1  20
TORSDOF 9
ENDMDL
MODEL 3
REMARK VINA RESULT:    -7.257      3.654      7.671
REMARK INTER + INTRA:         -12.199
REMARK INTER:                  -9.716
REMARK INTRA:                  -2.483
REMARK UNBOUND:                -1.335
REMARK  Name = 
REMARK  9 active torsions:
REMARK  status: ('A' for Active; 'I' for Inactive)
REMARK    1  A    between atoms: C_2  and  O_3
REMARK    2  A    between atoms: C_2  and  C_4
REMARK    3  A    between atoms: C_4  and  N_5
REMARK    4  A    between atoms: N_5  and  C_6
REMARK    5  A    between atoms: C_6  and  C_7
REMARK    6  A    between atoms: C_10  and  C_11
REMARK    7  A    between atoms: C_11  and  C_12
REMARK    8  A    between atoms: C_12  and  C_13
REMARK    9  A    between atoms: C_22  and  C_24
REMARK                            x       y       z     vdW  Elec       q    Type
REMARK                         _______ _______ _______ _____ _____    ______ ____
ROOT
ATOM      1  N   UNL     1      49.492   7.663  18.390  0.00  0.00    +0.000 N 
ATOM      2  C   UNL     1      49.512   6.429  19.099  0.00  0.00    +0.000 C 
ATOM      3  O   UNL     1      48.984   6.362  20.204  0.00  0.00    +0.000 OA
ENDROOT
BRANCH   2   4
ATOM      4  C   UNL     1      50.121   5.223  18.490  0.00  0.00    +0.000 A 
ATOM      5  C   UNL     1      51.481   4.962  18.458  0.00  0.00    +0.000 A 
ATOM      6  S   UNL     1      51.885   3.437  17.814  0.00  0.00    +0.000 S 
ATOM      7  C   UNL     1      50.280   3.157  17.346  0.00  0.00    +0.000 A 
ATOM      8  N   UNL     1      49.948   2.022  16.677  0.00  0.00    +0.000 NA
ATOM      9  C   UNL     1      48.709   1.959  16.319  0.00  0.00    +0.000 A 
ATOM     10  N   UNL     1      47.777   2.932  16.574  0.00  0.00    +0.000 N 
ATOM     11  C   UNL     1      48.060   4.093  17.262  0.00  0.00    +0.000 A 
ATOM     12  O   UNL     1      47.186   4.933  17.438  0.00  0.00    +0.000 OA
ATOM     13  C   UNL     1      49.442   4.204  17.704  0.00  0.00    +0.000 A 
ATOM     14  H   UNL     1      46.829   2.833  16.243  0.00  0.00    +0.000 HD
ENDBRANCH   2   4
BRANCH   1  15
ATOM     15  C   UNL     1      49.047   8.859  19.148  0.00  0.00    +0.000 C 
BRANCH  15  17
ATOM     16  O   UNL     1      47.101  10.324  19.154  0.00  0.00    +0.000 OA
ATOM     17  C   UNL     1      47.564   9.208  18.965  0.00  0.00    +0.000 C 
BRANCH  17  18
ATOM     18  O   UNL     1      46.807   8.163  18.567  0.00  0.00    +0.000 OA
ATOM     19  H   UNL     1      46.295   8.409  17.773  0.00  0.00    +0.000 HD
ENDBRANCH  17  18
ENDBRANCH  15  17
ENDBRANCH   1  15
BRANCH   1  20
ATOM     20  C   UNL     1      50.183   7.841  17.112  0.00  0.00    +0.000 C 
BRANCH  20  21
ATOM     21  C   UNL     1      49.434   7.837  15.802  0.00  0.00    +0.000 A 
ATOM     22  C   UNL     1      49.328   6.655  15.058  0.00  0.00    +0.000 A 
ATOM     23  C   UNL     1      48.383   6.547  14.036  0.00  0.00    +0.000 A 
ATOM     24  C   UNL     1      47.523   7.613  13.744  0.00  0.00    +0.000 A 
ATOM     25  C   UNL     1      47.707   8.829  14.412  0.00  0.00    +0.000 A 
ATOM     26  C   UNL     1      48.660   8.944  15.428  0.00  0.00    +0.000 A 
BRANCH  24  27
ATOM     27  C   UNL     1      46.373   7.428  12.782  0.00  0.00    +0.000 C 
BRANCH  27  28
ATOM     28  C   UNL     1      46.193   5.970  12.313  0.00  0.00    +0.000 C 
BRANCH  28  29
ATOM     29  C   UNL     1      45.307   5.086  13.219  0.00  0.00    +0.000 C 
ATOM     30  C   UNL     1      43.805   5.229  12.934  0.00  0.00    +0.000 C 
ATOM     31  C   UNL     1      43.356   4.356  11.771  0.00  0.00    +0.000 C 
ATOM     32  C   UNL     1      43.659   2.911  12.117  0.00  0.00    +0.000 C 
ATOM     33  N   UNL     1      45.059   2.733  12.434  0.00  0.00    +0.000 N 
ATOM     34  C   UNL     1      45.802   3.640  13.135  0.00  0.00    +0.000 C 
ATOM     35  O   UNL     1      46.885   3.293  13.603  0.00  0.00    +0.000 OA
ATOM     36  H   UNL     1      45.430   1.795  12.467  0.00  0.00    +0.000 HD
ENDBRANCH  28  29
ENDBRANCH  27  28
ENDBRANCH  24  27
ENDBRANCH  20  21
ENDBRANCH   1  20
TORSDOF 9
ENDMDL
MODEL 4
REMARK VINA RESULT:    -7.154      1.572      2.187
REMARK INTER + INTRA:         -12.044
REMARK INTER:                 -10.292
REMARK INTRA:                  -1.752
REMARK UNBOUND:                -1.335
REMARK  Name = 
REMARK  9 active torsions:
REMARK  status: ('A' for Active; 'I' for Inactive)
REMARK    1  A    between atoms: C_2  and  O_3
REMARK    2  A    between atoms: C_2  and  C_4
REMARK    3  A    between atoms: C_4  and  N_5
REMARK    4  A    between atoms: N_5  and  C_6
REMARK    5  A    between atoms: C_6  and  C_7
REMARK    6  A    between atoms: C_10  and  C_11
REMARK    7  A    between atoms: C_11  and  C_12
REMARK    8  A    between atoms: C_12  and  C_13
REMARK    9  A    between atoms: C_22  and  C_24
REMARK                            x       y       z     vdW  Elec       q    Type
REMARK                         _______ _______ _______ _____ _____    ______ ____
ROOT
ATOM      1  N   UNL     1      46.655   7.340  12.431  0.00  0.00    +0.000 N 
ATOM      2  C   UNL     1      45.571   7.226  11.516  0.00  0.00    +0.000 C 
ATOM      3  O   UNL     1      44.894   8.217  11.258  0.00  0.00    +0.000 OA
ENDROOT
BRANCH   2   4
ATOM      4  C   UNL     1      45.290   5.938  10.840  0.00  0.00    +0.000 A 
ATOM      5  C   UNL     1      45.594   5.664   9.516  0.00  0.00    +0.000 A 
ATOM      6  S   UNL     1      45.280   4.056   9.044  0.00  0.00    +0.000 S 
ATOM      7  C   UNL     1      44.518   3.722  10.522  0.00  0.00    +0.000 A 
ATOM      8  N   UNL     1      43.964   2.502  10.748  0.00  0.00    +0.000 NA
ATOM      9  C   UNL     1      43.357   2.397  11.883  0.00  0.00    +0.000 A 
ATOM     10  N   UNL     1      43.260   3.404  12.808  0.00  0.00    +0.000 N 
ATOM     11  C   UNL     1      43.818   4.653  12.633  0.00  0.00    +0.000 A 
ATOM     12  O   UNL     1      43.677   5.516  13.490  0.00  0.00    +0.000 OA
ATOM     13  C   UNL     1      44.530   4.817  11.375  0.00  0.00    +0.000 A 
ATOM     14  H   UNL     1      42.748   3.264  13.667  0.00  0.00    +0.000 HD
ENDBRANCH   2   4
BRANCH   1  15
ATOM     15  C   UNL     1      46.739   8.601  13.209  0.00  0.00    +0.000 C 
BRANCH  15  17
ATOM     16  O   UNL     1      47.748  10.228  11.704  0.00  0.00    +0.000 OA
ATOM     17  C   UNL     1      47.831   9.567  12.729  0.00  0.00    +0.000 C 
BRANCH  17  18
ATOM     18  O   UNL     1      48.901   9.626  13.550  0.00  0.00    +0.000 OA
ATOM     19  H   UNL     1      49.658  10.022  13.078  0.00  0.00    +0.000 HD
ENDBRANCH  17  18
ENDBRANCH  15  17
ENDBRANCH   1  15
BRANCH   1  20
ATOM     20  C   UNL     1      47.443   6.182  12.856  0.00  0.00    +0.000 C 
BRANCH  20  21
ATOM     21  C   UNL     1      47.553   5.792  14.309  0.00  0.00    +0.000 A 
ATOM     22  C   UNL     1      46.958   4.609  14.765  0.00  0.00    +0.000 A 
ATOM     23  C   UNL     1      47.318   4.071  16.002  0.00  0.00    +0.000 A 
ATOM     24  C   UNL     1      48.282   4.699  16.801  0.00  0.00    +0.000 A 
ATOM     25  C   UNL     1      48.791   5.937  16.394  0.00  0.00    +0.000 A 
ATOM     26  C   UNL     1      48.424   6.485  15.161  0.00  0.00    +0.000 A 
BRANCH  24  27
ATOM     27  C   UNL     1      48.817   4.015  18.037  0.00  0.00    +0.000 C 
BRANCH  27  28
ATOM     28  C   UNL     1      49.689   2.781  17.727  0.00  0.00    +0.000 C 
BRANCH  28  29
ATOM     29  C   UNL     1      51.148   3.085  17.317  0.00  0.00    +0.000 C 
ATOM     30  C   UNL     1      51.683   4.404  17.893  0.00  0.00    +0.000 C 
ATOM     31  C   UNL     1      52.196   4.243  19.316  0.00  0.00    +0.000 C 
ATOM     32  C   UNL     1      53.313   3.218  19.306  0.00  0.00    +0.000 C 
ATOM     33  N   UNL     1      52.867   1.967  18.734  0.00  0.00    +0.000 N 
ATOM     34  C   UNL     1      52.021   1.876  17.666  0.00  0.00    +0.000 C 
ATOM     35  O   UNL     1      51.920   0.805  17.071  0.00  0.00    +0.000 OA
ATOM     36  H   UNL     1      53.439   1.145  18.866  0.00  0.00    +0.000 HD
ENDBRANCH  28  29
ENDBRANCH  27  28
ENDBRANCH  24  27
ENDBRANCH  20  21
ENDBRANCH   1  20
TORSDOF 9
ENDMDL
MODEL 5
REMARK VINA RESULT:    -7.153      3.275      8.022
REMARK INTER + INTRA:         -12.042
REMARK INTER:                 -11.017
REMARK INTRA:                  -1.026
REMARK UNBOUND:                -1.335
REMARK  Name = 
REMARK  9 active torsions:
REMARK  status: ('A' for Active; 'I' for Inactive)
REMARK    1  A    between atoms: C_2  and  O_3
REMARK    2  A    between atoms: C_2  and  C_4
REMARK    3  A    between atoms: C_4  and  N_5
REMARK    4  A    between atoms: N_5  and  C_6
REMARK    5  A    between atoms: C_6  and  C_7
REMARK    6  A    between atoms: C_10  and  C_11
REMARK    7  A    between atoms: C_11  and  C_12
REMARK    8  A    between atoms: C_12  and  C_13
REMARK    9  A    between atoms: C_22  and  C_24
REMARK                            x       y       z     vdW  Elec       q    Type
REMARK                         _______ _______ _______ _____ _____    ______ ____
ROOT
ATOM      1  N   UNL     1      49.070   7.732  13.804  0.00  0.00    +0.000 N 
ATOM      2  C   UNL     1      49.918   7.642  14.943  0.00  0.00    +0.000 C 
ATOM      3  O   UNL     1      51.117   7.431  14.785  0.00  0.00    +0.000 OA
ENDROOT
BRANCH   2   4
ATOM      4  C   UNL     1      49.373   7.849  16.304  0.00  0.00    +0.000 A 
ATOM      5  C   UNL     1      49.583   8.985  17.069  0.00  0.00    +0.000 A 
ATOM      6  S   UNL     1      48.725   9.005  18.542  0.00  0.00    +0.000 S 
ATOM      7  C   UNL     1      48.216   7.403  18.322  0.00  0.00    +0.000 A 
ATOM      8  N   UNL     1      47.472   6.783  19.274  0.00  0.00    +0.000 NA
ATOM      9  C   UNL     1      47.206   5.545  19.018  0.00  0.00    +0.000 A 
ATOM     10  N   UNL     1      47.620   4.880  17.893  0.00  0.00    +0.000 N 
ATOM     11  C   UNL     1      48.363   5.468  16.892  0.00  0.00    +0.000 A 
ATOM     12  O   UNL     1      48.718   4.812  15.921  0.00  0.00    +0.000 OA
ATOM     13  C   UNL     1      48.673   6.871  17.124  0.00  0.00    +0.000 A 
ATOM     14  H   UNL     1      47.399   3.903  17.765  0.00  0.00    +0.000 HD
ENDBRANCH   2   4
BRANCH   1  15
ATOM     15  C   UNL     1      49.654   7.314  12.504  0.00  0.00    +0.000 C 
BRANCH  15  17
ATOM     16  O   UNL     1      51.323   8.599  11.283  0.00  0.00    +0.000 OA
ATOM     17  C   UNL     1      50.159   8.475  11.638  0.00  0.00    +0.000 C 
BRANCH  17  18
ATOM     18  O   UNL     1      49.194   9.355  11.293  0.00  0.00    +0.000 OA
ATOM     19  H   UNL     1      49.561  10.259  11.281  0.00  0.00    +0.000 HD
ENDBRANCH  17  18
ENDBRANCH  15  17
ENDBRANCH   1  15
BRANCH   1  20
ATOM     20  C   UNL     1      47.619   7.887  13.921  0.00  0.00    +0.000 C 
BRANCH  20  21
ATOM     21  C   UNL     1      46.667   7.035  13.118  0.00  0.00    +0.000 A 
ATOM     22  C   UNL     1      46.117   7.528  11.928  0.00  0.00    +0.000 A 
ATOM     23  C   UNL     1      45.512   6.660  11.018  0.00  0.00    +0.000 A 
ATOM     24  C   UNL     1      45.450   5.285  11.277  0.00  0.00    +0.000 A 
ATOM     25  C   UNL     1      45.899   4.811  12.515  0.00  0.00    +0.000 A 
ATOM     26  C   UNL     1      46.496   5.680  13.433  0.00  0.00    +0.000 A 
BRANCH  24  27
ATOM     27  C   UNL     1      44.981   4.325  10.209  0.00  0.00    +0.000 C 
BRANCH  27  28
ATOM     28  C   UNL     1      45.661   4.546   8.842  0.00  0.00    +0.000 C 
BRANCH  28  29
ATOM     29  C   UNL     1      45.362   3.472   7.771  0.00  0.00    +0.000 C 
ATOM     30  C   UNL     1      46.352   3.487   6.597  0.00  0.00    +0.000 C 
ATOM     31  C   UNL     1      47.625   2.715   6.909  0.00  0.00    +0.000 C 
ATOM     32  C   UNL     1      47.246   1.280   7.219  0.00  0.00    +0.000 C 
ATOM     33  N   UNL     1      46.283   1.216   8.295  0.00  0.00    +0.000 N 
ATOM     34  C   UNL     1      45.260   2.107   8.456  0.00  0.00    +0.000 C 
ATOM     35  O   UNL     1      44.332   1.823   9.212  0.00  0.00    +0.000 OA
ATOM     36  H   UNL     1      46.115   0.324   8.740  0.00  0.00    +0.000 HD
ENDBRANCH  28  29
ENDBRANCH  27  28
ENDBRANCH  24  27
ENDBRANCH  20  21
ENDBRANCH   1  20
TORSDOF 9
ENDMDL
MODEL 6
REMARK VINA RESULT:    -7.008      3.601      9.176
REMARK INTER + INTRA:         -11.825
REMARK INTER:                 -10.029
REMARK INTRA:                  -1.796
REMARK UNBOUND:                -1.335
REMARK  Name = 
REMARK  9 active torsions:
REMARK  status: ('A' for Active; 'I' for Inactive)
REMARK    1  A    between atoms: C_2  and  O_3
REMARK    2  A    between atoms: C_2  and  C_4
REMARK    3  A    between atoms: C_4  and  N_5
REMARK    4  A    between atoms: N_5  and  C_6
REMARK    5  A    between atoms: C_6  and  C_7
REMARK    6  A    between atoms: C_10  and  C_11
REMARK    7  A    between atoms: C_11  and  C_12
REMARK    8  A    between atoms: C_12  and  C_13
REMARK    9  A    between atoms: C_22  and  C_24
REMARK                            x       y       z     vdW  Elec       q    Type
REMARK                         _______ _______ _______ _____ _____    ______ ____
ROOT
ATOM      1  N   UNL     1      49.166   4.324  17.768  0.00  0.00    +0.000 N 
ATOM      2  C   UNL     1      50.236   5.026  18.390  0.00  0.00    +0.000 C 
ATOM      3  O   UNL     1      51.133   4.394  18.939  0.00  0.00    +0.000 OA
ENDROOT
BRANCH   2   4
ATOM      4  C   UNL     1      50.295   6.505  18.335  0.00  0.00    +0.000 A 
ATOM      5  C   UNL     1      51.272   7.227  17.668  0.00  0.00    +0.000 A 
ATOM      6  S   UNL     1      51.015   8.912  17.662  0.00  0.00    +0.000 S 
ATOM      7  C   UNL     1      49.714   8.765  18.740  0.00  0.00    +0.000 A 
ATOM      8  N   UNL     1      49.068   9.872  19.190  0.00  0.00    +0.000 NA
ATOM      9  C   UNL     1      48.141   9.630  20.056  0.00  0.00    +0.000 A 
ATOM     10  N   UNL     1      47.807   8.379  20.506  0.00  0.00    +0.000 N 
ATOM     11  C   UNL     1      48.421   7.224  20.068  0.00  0.00    +0.000 A 
ATOM     12  O   UNL     1      48.089   6.138  20.526  0.00  0.00    +0.000 OA
ATOM     13  C   UNL     1      49.463   7.442  19.076  0.00  0.00    +0.000 A 
ATOM     14  H   UNL     1      47.088   8.260  21.205  0.00  0.00    +0.000 HD
ENDBRANCH   2   4
BRANCH   1  15
ATOM     15  C   UNL     1      49.078   2.867  18.042  0.00  0.00    +0.000 C 
BRANCH  15  17
ATOM     16  O   UNL     1      49.541   1.781  15.913  0.00  0.00    +0.000 OA
ATOM     17  C   UNL     1      49.878   1.992  17.069  0.00  0.00    +0.000 C 
BRANCH  17  18
ATOM     18  O   UNL     1      51.003   1.473  17.606  0.00  0.00    +0.000 OA
ATOM     19  H   UNL     1      51.438   2.140  18.171  0.00  0.00    +0.000 HD
ENDBRANCH  17  18
ENDBRANCH  15  17
ENDBRANCH   1  15
BRANCH   1  20
ATOM     20  C   UNL     1      48.017   5.013  17.179  0.00  0.00    +0.000 C 
BRANCH  20  21
ATOM     21  C   UNL     1      47.884   5.193  15.687  0.00  0.00    +0.000 A 
ATOM     22  C   UNL     1      47.071   4.327  14.945  0.00  0.00    +0.000 A 
ATOM     23  C   UNL     1      46.678   4.667  13.649  0.00  0.00    +0.000 A 
ATOM     24  C   UNL     1      47.083   5.878  13.074  0.00  0.00    +0.000 A 
ATOM     25  C   UNL     1      47.986   6.687  13.774  0.00  0.00    +0.000 A 
ATOM     26  C   UNL     1      48.390   6.344  15.068  0.00  0.00    +0.000 A 
BRANCH  24  27
ATOM     27  C   UNL     1      46.497   6.336  11.760  0.00  0.00    +0.000 C 
BRANCH  27  28
ATOM     28  C   UNL     1      44.964   6.503  11.795  0.00  0.00    +0.000 C 
BRANCH  28  29
ATOM     29  C   UNL     1      44.180   5.643  10.779  0.00  0.00    +0.000 C 
ATOM     30  C   UNL     1      45.010   4.503  10.170  0.00  0.00    +0.000 C 
ATOM     31  C   UNL     1      45.045   3.276  11.068  0.00  0.00    +0.000 C 
ATOM     32  C   UNL     1      43.622   2.795  11.272  0.00  0.00    +0.000 C 
ATOM     33  N   UNL     1      42.788   3.849  11.808  0.00  0.00    +0.000 N 
ATOM     34  C   UNL     1      42.884   5.159  11.436  0.00  0.00    +0.000 C 
ATOM     35  O   UNL     1      41.968   5.930  11.717  0.00  0.00    +0.000 OA
ATOM     36  H   UNL     1      41.887   3.602  12.190  0.00  0.00    +0.000 HD
ENDBRANCH  28  29
ENDBRANCH  27  28
ENDBRANCH  24  27
ENDBRANCH  20  21
ENDBRANCH   1  20
TORSDOF 9
ENDMDL
MODEL 7
REMARK VINA RESULT:    -6.822      3.402      7.933
REMARK INTER + INTRA:         -11.547
REMARK INTER:                  -9.726
REMARK INTRA:                  -1.821
REMARK UNBOUND:                -1.335
REMARK  Name = 
REMARK  9 active torsions:
REMARK  status: ('A' for Active; 'I' for Inactive)
REMARK    1  A    between atoms: C_2  and  O_3
REMARK    2  A    between atoms: C_2  and  C_4
REMARK    3  A    between atoms: C_4  and  N_5
REMARK    4  A    between atoms: N_5  and  C_6
REMARK    5  A    between atoms: C_6  and  C_7
REMARK    6  A    between atoms: C_10  and  C_11
REMARK    7  A    between atoms: C_11  and  C_12
REMARK    8  A    between atoms: C_12  and  C_13
REMARK    9  A    between atoms: C_22  and  C_24
REMARK                            x       y       z     vdW  Elec       q    Type
REMARK                         _______ _______ _______ _____ _____    ______ ____
ROOT
ATOM      1  N   UNL     1      48.623   8.189  17.231  0.00  0.00    +0.000 N 
ATOM      2  C   UNL     1      48.958   7.245  18.241  0.00  0.00    +0.000 C 
ATOM      3  O   UNL     1      48.433   7.334  19.347  0.00  0.00    +0.000 OA
ENDROOT
BRANCH   2   4
ATOM      4  C   UNL     1      49.895   6.134  17.951  0.00  0.00    +0.000 A 
ATOM      5  C   UNL     1      51.274   6.262  17.906  0.00  0.00    +0.000 A 
ATOM      6  S   UNL     1      52.105   4.791  17.682  0.00  0.00    +0.000 S 
ATOM      7  C   UNL     1      50.654   3.958  17.411  0.00  0.00    +0.000 A 
ATOM      8  N   UNL     1      50.670   2.635  17.102  0.00  0.00    +0.000 NA
ATOM      9  C   UNL     1      49.506   2.133  16.853  0.00  0.00    +0.000 A 
ATOM     10  N   UNL     1      48.332   2.841  16.889  0.00  0.00    +0.000 N 
ATOM     11  C   UNL     1      48.262   4.180  17.212  0.00  0.00    +0.000 A 
ATOM     12  O   UNL     1      47.183   4.759  17.206  0.00  0.00    +0.000 OA
ATOM     13  C   UNL     1      49.547   4.788  17.519  0.00  0.00    +0.000 A 
ATOM     14  H   UNL     1      47.457   2.394  16.658  0.00  0.00    +0.000 HD
ENDBRANCH   2   4
BRANCH   1  15
ATOM     15  C   UNL     1      47.842   9.376  17.662  0.00  0.00    +0.000 C 
BRANCH  15  17
ATOM     16  O   UNL     1      49.501  11.043  18.293  0.00  0.00    +0.000 OA
ATOM     17  C   UNL     1      48.597  10.706  17.542  0.00  0.00    +0.000 C 
BRANCH  17  18
ATOM     18  O   UNL     1      48.174  11.479  16.518  0.00  0.00    +0.000 OA
ATOM     19  H   UNL     1      48.617  12.348  16.556  0.00  0.00    +0.000 HD
ENDBRANCH  17  18
ENDBRANCH  15  17
ENDBRANCH   1  15
BRANCH   1  20
ATOM     20  C   UNL     1      49.280   8.200  15.923  0.00  0.00    +0.000 C 
BRANCH  20  21
ATOM     21  C   UNL     1      48.543   7.807  14.667  0.00  0.00    +0.000 A 
ATOM     22  C   UNL     1      48.451   6.458  14.300  0.00  0.00    +0.000 A 
ATOM     23  C   UNL     1      47.516   6.048  13.347  0.00  0.00    +0.000 A 
ATOM     24  C   UNL     1      46.654   6.976  12.749  0.00  0.00    +0.000 A 
ATOM     25  C   UNL     1      46.824   8.335  13.034  0.00  0.00    +0.000 A 
ATOM     26  C   UNL     1      47.766   8.750  13.979  0.00  0.00    +0.000 A 
BRANCH  24  27
ATOM     27  C   UNL     1      45.513   6.508  11.876  0.00  0.00    +0.000 C 
BRANCH  27  28
ATOM     28  C   UNL     1      45.263   4.989  11.953  0.00  0.00    +0.000 C 
BRANCH  28  29
ATOM     29  C   UNL     1      44.075   4.468  11.112  0.00  0.00    +0.000 C 
ATOM     30  C   UNL     1      44.184   4.815   9.619  0.00  0.00    +0.000 C 
ATOM     31  C   UNL     1      45.057   3.825   8.862  0.00  0.00    +0.000 C 
ATOM     32  C   UNL     1      44.447   2.445   9.006  0.00  0.00    +0.000 C 
ATOM     33  N   UNL     1      44.286   2.089  10.399  0.00  0.00    +0.000 N 
ATOM     34  C   UNL     1      43.906   2.969  11.371  0.00  0.00    +0.000 C 
ATOM     35  O   UNL     1      43.521   2.534  12.455  0.00  0.00    +0.000 OA
ATOM     36  H   UNL     1      44.098   1.124  10.630  0.00  0.00    +0.000 HD
ENDBRANCH  28  29
ENDBRANCH  27  28
ENDBRANCH  24  27
ENDBRANCH  20  21
ENDBRANCH   1  20
TORSDOF 9
ENDMDL
MODEL 8
REMARK VINA RESULT:    -6.763      3.596      9.053
REMARK INTER + INTRA:         -11.458
REMARK INTER:                  -9.539
REMARK INTRA:                  -1.919
REMARK UNBOUND:                -1.335
REMARK  Name = 
REMARK  9 active torsions:
REMARK  status: ('A' for Active; 'I' for Inactive)
REMARK    1  A    between atoms: C_2  and  O_3
REMARK    2  A    between atoms: C_2  and  C_4
REMARK    3  A    between atoms: C_4  and  N_5
REMARK    4  A    between atoms: N_5  and  C_6
REMARK    5  A    between atoms: C_6  and  C_7
REMARK    6  A    between atoms: C_10  and  C_11
REMARK    7  A    between atoms: C_11  and  C_12
REMARK    8  A    between atoms: C_12  and  C_13
REMARK    9  A    between atoms: C_22  and  C_24
REMARK                            x       y       z     vdW  Elec       q    Type
REMARK                         _______ _______ _______ _____ _____    ______ ____
ROOT
ATOM      1  N   UNL     1      49.294   4.543  18.045  0.00  0.00    +0.000 N 
ATOM      2  C   UNL     1      50.289   5.106  18.892  0.00  0.00    +0.000 C 
ATOM      3  O   UNL     1      51.100   4.367  19.442  0.00  0.00    +0.000 OA
ENDROOT
BRANCH   2   4
ATOM      4  C   UNL     1      50.379   6.573  19.073  0.00  0.00    +0.000 A 
ATOM      5  C   UNL     1      49.689   7.289  20.039  0.00  0.00    +0.000 A 
ATOM      6  S   UNL     1      50.088   8.945  20.101  0.00  0.00    +0.000 S 
ATOM      7  C   UNL     1      51.029   8.819  18.696  0.00  0.00    +0.000 A 
ATOM      8  N   UNL     1      51.625   9.920  18.169  0.00  0.00    +0.000 NA
ATOM      9  C   UNL     1      52.258   9.703  17.064  0.00  0.00    +0.000 A 
ATOM     10  N   UNL     1      52.344   8.483  16.445  0.00  0.00    +0.000 N 
ATOM     11  C   UNL     1      51.770   7.334  16.948  0.00  0.00    +0.000 A 
ATOM     12  O   UNL     1      51.867   6.278  16.335  0.00  0.00    +0.000 OA
ATOM     13  C   UNL     1      51.061   7.521  18.204  0.00  0.00    +0.000 A 
ATOM     14  H   UNL     1      52.832   8.386  15.567  0.00  0.00    +0.000 HD
ENDBRANCH   2   4
BRANCH   1  15
ATOM     15  C   UNL     1      49.148   3.066  18.079  0.00  0.00    +0.000 C 
BRANCH  15  17
ATOM     16  O   UNL     1      51.162   2.263  16.970  0.00  0.00    +0.000 OA
ATOM     17  C   UNL     1      49.941   2.328  16.993  0.00  0.00    +0.000 C 
BRANCH  17  18
ATOM     18  O   UNL     1      49.163   1.747  16.054  0.00  0.00    +0.000 OA
ATOM     19  H   UNL     1      49.307   2.180  15.191  0.00  0.00    +0.000 HD
ENDBRANCH  17  18
ENDBRANCH  15  17
ENDBRANCH   1  15
BRANCH   1  20
ATOM     20  C   UNL     1      48.238   5.353  17.434  0.00  0.00    +0.000 C 
BRANCH  20  21
ATOM     21  C   UNL     1      48.058   5.416  15.938  0.00  0.00    +0.000 A 
ATOM     22  C   UNL     1      47.190   4.523  15.297  0.00  0.00    +0.000 A 
ATOM     23  C   UNL     1      46.762   4.770  13.991  0.00  0.00    +0.000 A 
ATOM     24  C   UNL     1      47.187   5.915  13.306  0.00  0.00    +0.000 A 
ATOM     25  C   UNL     1      48.140   6.745  13.906  0.00  0.00    +0.000 A 
ATOM     26  C   UNL     1      48.580   6.495  15.210  0.00  0.00    +0.000 A 
BRANCH  24  27
ATOM     27  C   UNL     1      46.569   6.286  11.978  0.00  0.00    +0.000 C 
BRANCH  27  28
ATOM     28  C   UNL     1      45.033   6.418  12.030  0.00  0.00    +0.000 C 
BRANCH  28  29
ATOM     29  C   UNL     1      44.263   5.641  10.938  0.00  0.00    +0.000 C 
ATOM     30  C   UNL     1      45.057   4.466  10.348  0.00  0.00    +0.000 C 
ATOM     31  C   UNL     1      44.952   3.214  11.206  0.00  0.00    +0.000 C 
ATOM     32  C   UNL     1      43.490   2.825  11.303  0.00  0.00    +0.000 C 
ATOM     33  N   UNL     1      42.693   3.917  11.818  0.00  0.00    +0.000 N 
ATOM     34  C   UNL     1      42.899   5.228  11.495  0.00  0.00    +0.000 C 
ATOM     35  O   UNL     1      42.018   6.050  11.741  0.00  0.00    +0.000 OA
ATOM     36  H   UNL     1      41.754   3.721  12.133  0.00  0.00    +0.000 HD
ENDBRANCH  28  29
ENDBRANCH  27  28
ENDBRANCH  24  27
ENDBRANCH  20  21
ENDBRANCH   1  20
TORSDOF 9
ENDMDL
MODEL 9
REMARK VINA RESULT:    -6.563      3.270      7.802
REMARK INTER + INTRA:         -11.160
REMARK INTER:                  -9.289
REMARK INTRA:                  -1.871
REMARK UNBOUND:                -1.335
REMARK  Name = 
REMARK  9 active torsions:
REMARK  status: ('A' for Active; 'I' for Inactive)
REMARK    1  A    between atoms: C_2  and  O_3
REMARK    2  A    between atoms: C_2  and  C_4
REMARK    3  A    between atoms: C_4  and  N_5
REMARK    4  A    between atoms: N_5  and  C_6
REMARK    5  A    between atoms: C_6  and  C_7
REMARK    6  A    between atoms: C_10  and  C_11
REMARK    7  A    between atoms: C_11  and  C_12
REMARK    8  A    between atoms: C_12  and  C_13
REMARK    9  A    between atoms: C_22  and  C_24
REMARK                            x       y       z     vdW  Elec       q    Type
REMARK                         _______ _______ _______ _____ _____    ______ ____
ROOT
ATOM      1  N   UNL     1      49.533   9.453  14.586  0.00  0.00    +0.000 N 
ATOM      2  C   UNL     1      50.125   9.116  15.836  0.00  0.00    +0.000 C 
ATOM      3  O   UNL     1      51.335   9.252  15.985  0.00  0.00    +0.000 OA
ENDROOT
BRANCH   2   4
ATOM      4  C   UNL     1      49.285   8.652  16.964  0.00  0.00    +0.000 A 
ATOM      5  C   UNL     1      48.564   9.489  17.802  0.00  0.00    +0.000 A 
ATOM      6  S   UNL     1      47.581   8.672  18.930  0.00  0.00    +0.000 S 
ATOM      7  C   UNL     1      48.247   7.174  18.496  0.00  0.00    +0.000 A 
ATOM      8  N   UNL     1      47.864   6.041  19.140  0.00  0.00    +0.000 NA
ATOM      9  C   UNL     1      48.492   4.977  18.762  0.00  0.00    +0.000 A 
ATOM     10  N   UNL     1      49.467   4.953  17.798  0.00  0.00    +0.000 N 
ATOM     11  C   UNL     1      49.880   6.072  17.106  0.00  0.00    +0.000 A 
ATOM     12  O   UNL     1      50.771   5.985  16.271  0.00  0.00    +0.000 OA
ATOM     13  C   UNL     1      49.187   7.295  17.482  0.00  0.00    +0.000 A 
ATOM     14  H   UNL     1      49.939   4.091  17.568  0.00  0.00    +0.000 HD
ENDBRANCH   2   4
BRANCH   1  15
ATOM     15  C   UNL     1      50.463   9.713  13.459  0.00  0.00    +0.000 C 
BRANCH  15  17
ATOM     16  O   UNL     1      50.528   8.082  11.652  0.00  0.00    +0.000 OA
ATOM     17  C   UNL     1      50.951   8.449  12.739  0.00  0.00    +0.000 C 
BRANCH  17  18
ATOM     18  O   UNL     1      51.902   7.771  13.417  0.00  0.00    +0.000 OA
ATOM     19  H   UNL     1      52.717   7.722  12.883  0.00  0.00    +0.000 HD
ENDBRANCH  17  18
ENDBRANCH  15  17
ENDBRANCH   1  15
BRANCH   1  20
ATOM     20  C   UNL     1      48.114   9.227  14.308  0.00  0.00    +0.000 C 
BRANCH  20  21
ATOM     21  C   UNL     1      47.632   7.959  13.649  0.00  0.00    +0.000 A 
ATOM     22  C   UNL     1      48.090   6.715  14.100  0.00  0.00    +0.000 A 
ATOM     23  C   UNL     1      47.423   5.544  13.737  0.00  0.00    +0.000 A 
ATOM     24  C   UNL     1      46.283   5.594  12.925  0.00  0.00    +0.000 A 
ATOM     25  C   UNL     1      45.895   6.825  12.385  0.00  0.00    +0.000 A 
ATOM     26  C   UNL     1      46.567   7.999  12.737  0.00  0.00    +0.000 A 
BRANCH  24  27
ATOM     27  C   UNL     1      45.448   4.356  12.700  0.00  0.00    +0.000 C 
BRANCH  27  28
ATOM     28  C   UNL     1      43.943   4.652  12.535  0.00  0.00    +0.000 C 
BRANCH  28  29
ATOM     29  C   UNL     1      43.316   4.180  11.203  0.00  0.00    +0.000 C 
ATOM     30  C   UNL     1      43.800   4.977   9.982  0.00  0.00    +0.000 C 
ATOM     31  C   UNL     1      45.130   4.463   9.452  0.00  0.00    +0.000 C 
ATOM     32  C   UNL     1      44.955   3.010   9.056  0.00  0.00    +0.000 C 
ATOM     33  N   UNL     1      44.460   2.224  10.165  0.00  0.00    +0.000 N 
ATOM     34  C   UNL     1      43.533   2.671  11.062  0.00  0.00    +0.000 C 
ATOM     35  O   UNL     1      42.963   1.859  11.790  0.00  0.00    +0.000 OA
ATOM     36  H   UNL     1      44.508   1.217  10.101  0.00  0.00    +0.000 HD
ENDBRANCH  28  29
ENDBRANCH  27  28
ENDBRANCH  24  27
ENDBRANCH  20  21
ENDBRANCH   1  20
TORSDOF 9
ENDMDL
