MODEL 1
REMARK VINA RESULT:    -8.022      0.000      0.000
REMARK INTER + INTRA:         -11.626
REMARK INTER:                 -10.836
REMARK INTRA:                  -0.789
REMARK UNBOUND:                -0.789
REMARK  Name = 
REMARK  6 active torsions:
REMARK  status: ('A' for Active; 'I' for Inactive)
REMARK    1  A    between atoms: C_2  and  C_19
REMARK    2  A    between atoms: N_3  and  C_4
REMARK    3  A    between atoms: C_4  and  C_5
REMARK    4  A    between atoms: C_8  and  C_9
REMARK    5  A    between atoms: C_9  and  O_10
REMARK    6  A    between atoms: O_10  and  C_11
REMARK                            x       y       z     vdW  Elec       q    Type
REMARK                         _______ _______ _______ _____ _____    ______ ____
ROOT
ATOM      1  O   UNL     1      48.553   8.219  16.376  0.00  0.00    +0.000 OA
ATOM      2  C   UNL     1      48.653   7.008  16.220  0.00  0.00    +0.000 C 
ATOM      3  N   UNL     1      48.211   6.320  15.113  0.00  0.00    +0.000 N 
ATOM      4  H   UNL     1      48.635   5.421  14.936  0.00  0.00    +0.000 HD
ENDROOT
BRANCH   2   5
ATOM      5  C   UNL     1      49.487   6.148  17.044  0.00  0.00    +0.000 A 
ATOM      6  C   UNL     1      50.690   6.582  17.567  0.00  0.00    +0.000 A 
ATOM      7  S   UNL     1      51.779   5.267  17.751  0.00  0.00    +0.000 S 
ATOM      8  C   UNL     1      50.562   4.130  17.367  0.00  0.00    +0.000 A 
ATOM      9  N   UNL     1      50.822   2.816  17.185  0.00  0.00    +0.000 NA
ATOM     10  C   UNL     1      49.774   2.090  16.972  0.00  0.00    +0.000 A 
ATOM     11  N   UNL     1      48.481   2.554  16.974  0.00  0.00    +0.000 N 
ATOM     12  C   UNL     1      48.158   3.888  17.118  0.00  0.00    +0.000 A 
ATOM     13  O   UNL     1      47.006   4.285  17.139  0.00  0.00    +0.000 OA
ATOM     14  C   UNL     1      49.327   4.741  17.251  0.00  0.00    +0.000 A 
ATOM     15  H   UNL     1      47.701   1.917  16.888  0.00  0.00    +0.000 HD
ENDBRANCH   2   5
BRANCH   3  16
ATOM     16  C   UNL     1      47.728   7.004  13.947  0.00  0.00    +0.000 C 
BRANCH  16  17
ATOM     17  C   UNL     1      46.879   6.069  13.132  0.00  0.00    +0.000 A 
ATOM     18  C   UNL     1      46.423   6.466  11.866  0.00  0.00    +0.000 A 
ATOM     19  C   UNL     1      45.617   5.622  11.104  0.00  0.00    +0.000 A 
ATOM     20  C   UNL     1      45.222   4.372  11.600  0.00  0.00    +0.000 A 
ATOM     21  C   UNL     1      45.661   3.978  12.871  0.00  0.00    +0.000 A 
ATOM     22  C   UNL     1      46.470   4.822  13.636  0.00  0.00    +0.000 A 
BRANCH  20  23
ATOM     23  C   UNL     1      44.354   3.457  10.767  0.00  0.00    +0.000 C 
BRANCH  23  24
ATOM     24  O   UNL     1      44.273   3.968   9.442  0.00  0.00    +0.000 OA
BRANCH  24  25
ATOM     25  C   UNL     1      45.190   3.351   8.618  0.00  0.00    +0.000 A 
ATOM     26  N   UNL     1      45.379   2.045   8.848  0.00  0.00    +0.000 NA
ATOM     27  C   UNL     1      46.306   1.440   8.083  0.00  0.00    +0.000 A 
ATOM     28  C   UNL     1      47.025   2.086   7.103  0.00  0.00    +0.000 A 
ATOM     29  C   UNL     1      46.728   3.416   6.934  0.00  0.00    +0.000 A 
ATOM     30  N   UNL     1      45.820   4.076   7.676  0.00  0.00    +0.000 NA
ENDBRANCH  24  25
ENDBRANCH  23  24
ENDBRANCH  20  23
ENDBRANCH  16  17
ENDBRANCH   3  16
TORSDOF 6
ENDMDL
MODEL 2
REMARK VINA RESULT:    -7.968      1.488      1.980
REMARK INTER + INTRA:         -11.552
REMARK INTER:                 -10.594
REMARK INTRA:                  -0.958
REMARK UNBOUND:                -0.789
REMARK  Name = 
REMARK  6 active torsions:
REMARK  status: ('A' for Active; 'I' for Inactive)
REMARK    1  A    between atoms: C_2  and  C_19
REMARK    2  A    between atoms: N_3  and  C_4
REMARK    3  A    between atoms: C_4  and  C_5
REMARK    4  A    between atoms: C_8  and  C_9
REMARK    5  A    between atoms: C_9  and  O_10
REMARK    6  A    between atoms: O_10  and  C_11
REMARK                            x       y       z     vdW  Elec       q    Type
REMARK                         _______ _______ _______ _____ _____    ______ ____
ROOT
ATOM      1  O   UNL     1      49.285   6.876  13.707  0.00  0.00    +0.000 OA
ATOM      2  C   UNL     1      48.500   7.202  14.590  0.00  0.00    +0.000 C 
ATOM      3  N   UNL     1      47.426   8.045  14.412  0.00  0.00    +0.000 N 
ATOM      4  H   UNL     1      46.676   7.975  15.085  0.00  0.00    +0.000 HD
ENDROOT
BRANCH   2   5
ATOM      5  C   UNL     1      48.415   6.549  15.885  0.00  0.00    +0.000 A 
ATOM      6  C   UNL     1      48.847   7.166  17.044  0.00  0.00    +0.000 A 
ATOM      7  S   UNL     1      49.391   6.001  18.183  0.00  0.00    +0.000 S 
ATOM      8  C   UNL     1      48.820   4.709  17.221  0.00  0.00    +0.000 A 
ATOM      9  N   UNL     1      49.081   3.414  17.508  0.00  0.00    +0.000 NA
ATOM     10  C   UNL     1      48.510   2.567  16.715  0.00  0.00    +0.000 A 
ATOM     11  N   UNL     1      47.660   2.898  15.688  0.00  0.00    +0.000 N 
ATOM     12  C   UNL     1      47.387   4.201  15.326  0.00  0.00    +0.000 A 
ATOM     13  O   UNL     1      46.615   4.484  14.426  0.00  0.00    +0.000 OA
ATOM     14  C   UNL     1      48.102   5.175  16.135  0.00  0.00    +0.000 A 
ATOM     15  H   UNL     1      47.179   2.183  15.161  0.00  0.00    +0.000 HD
ENDBRANCH   2   5
BRANCH   3  16
ATOM     16  C   UNL     1      47.031   8.494  13.108  0.00  0.00    +0.000 C 
BRANCH  16  17
ATOM     17  C   UNL     1      46.254   7.410  12.417  0.00  0.00    +0.000 A 
ATOM     18  C   UNL     1      45.002   7.022  12.919  0.00  0.00    +0.000 A 
ATOM     19  C   UNL     1      44.274   6.003  12.306  0.00  0.00    +0.000 A 
ATOM     20  C   UNL     1      44.792   5.326  11.193  0.00  0.00    +0.000 A 
ATOM     21  C   UNL     1      46.050   5.697  10.699  0.00  0.00    +0.000 A 
ATOM     22  C   UNL     1      46.780   6.720  11.311  0.00  0.00    +0.000 A 
BRANCH  20  23
ATOM     23  C   UNL     1      43.997   4.227  10.527  0.00  0.00    +0.000 C 
BRANCH  23  24
ATOM     24  O   UNL     1      44.062   4.393   9.116  0.00  0.00    +0.000 OA
BRANCH  24  25
ATOM     25  C   UNL     1      44.992   3.541   8.561  0.00  0.00    +0.000 A 
ATOM     26  N   UNL     1      45.759   4.076   7.601  0.00  0.00    +0.000 NA
ATOM     27  C   UNL     1      46.640   3.243   7.017  0.00  0.00    +0.000 A 
ATOM     28  C   UNL     1      46.783   1.919   7.367  0.00  0.00    +0.000 A 
ATOM     29  C   UNL     1      45.966   1.485   8.381  0.00  0.00    +0.000 A 
ATOM     30  N   UNL     1      45.060   2.269   8.995  0.00  0.00    +0.000 NA
ENDBRANCH  24  25
ENDBRANCH  23  24
ENDBRANCH  20  23
ENDBRANCH  16  17
ENDBRANCH   3  16
TORSDOF 6
ENDMDL
MODEL 3
REMARK VINA RESULT:    -7.644      1.843      2.214
REMARK INTER + INTRA:         -11.115
REMARK INTER:                 -10.263
REMARK INTRA:                  -0.852
REMARK UNBOUND:                -0.789
REMARK  Name = 
REMARK  6 active torsions:
REMARK  status: ('A' for Active; 'I' for Inactive)
REMARK    1  A    between atoms: C_2  and  C_19
REMARK    2  A    between atoms: N_3  and  C_4
REMARK    3  A    between atoms: C_4  and  C_5
REMARK    4  A    between atoms: C_8  and  C_9
REMARK    5  A    between atoms: C_9  and  O_10
REMARK    6  A    between atoms: O_10  and  C_11
REMARK                            x       y       z     vdW  Elec       q    Type
REMARK                         _______ _______ _______ _____ _____    ______ ____
ROOT
ATOM      1  O   UNL     1      50.299   6.355  15.849  0.00  0.00    +0.000 OA
ATOM      2  C   UNL     1      49.181   6.830  16.012  0.00  0.00    +0.000 C 
ATOM      3  N   UNL     1      48.316   7.168  14.995  0.00  0.00    +0.000 N 
ATOM      4  H   UNL     1      47.337   7.221  15.229  0.00  0.00    +0.000 HD
ENDROOT
BRANCH   2   5
ATOM      5  C   UNL     1      48.488   6.861  17.289  0.00  0.00    +0.000 A 
ATOM      6  C   UNL     1      48.137   8.050  17.900  0.00  0.00    +0.000 A 
ATOM      7  S   UNL     1      48.116   7.868  19.608  0.00  0.00    +0.000 S 
ATOM      8  C   UNL     1      48.330   6.176  19.489  0.00  0.00    +0.000 A 
ATOM      9  N   UNL     1      48.555   5.391  20.566  0.00  0.00    +0.000 NA
ATOM     10  C   UNL     1      48.622   4.128  20.300  0.00  0.00    +0.000 A 
ATOM     11  N   UNL     1      48.435   3.574  19.056  0.00  0.00    +0.000 N 
ATOM     12  C   UNL     1      48.239   4.326  17.917  0.00  0.00    +0.000 A 
ATOM     13  O   UNL     1      48.054   3.823  16.822  0.00  0.00    +0.000 OA
ATOM     14  C   UNL     1      48.268   5.757  18.173  0.00  0.00    +0.000 A 
ATOM     15  H   UNL     1      48.414   2.571  18.933  0.00  0.00    +0.000 HD
ENDBRANCH   2   5
BRANCH   3  16
ATOM     16  C   UNL     1      48.597   6.832  13.628  0.00  0.00    +0.000 C 
BRANCH  16  17
ATOM     17  C   UNL     1      47.403   6.148  13.025  0.00  0.00    +0.000 A 
ATOM     18  C   UNL     1      46.682   6.779  11.999  0.00  0.00    +0.000 A 
ATOM     19  C   UNL     1      45.559   6.171  11.441  0.00  0.00    +0.000 A 
ATOM     20  C   UNL     1      45.111   4.929  11.913  0.00  0.00    +0.000 A 
ATOM     21  C   UNL     1      45.817   4.303  12.949  0.00  0.00    +0.000 A 
ATOM     22  C   UNL     1      46.944   4.911  13.509  0.00  0.00    +0.000 A 
BRANCH  20  23
ATOM     23  C   UNL     1      43.897   4.269  11.300  0.00  0.00    +0.000 C 
BRANCH  23  24
ATOM     24  O   UNL     1      43.845   4.584   9.913  0.00  0.00    +0.000 OA
BRANCH  24  25
ATOM     25  C   UNL     1      44.709   3.788   9.194  0.00  0.00    +0.000 A 
ATOM     26  N   UNL     1      45.459   4.429   8.287  0.00  0.00    +0.000 NA
ATOM     27  C   UNL     1      46.274   3.658   7.544  0.00  0.00    +0.000 A 
ATOM     28  C   UNL     1      46.370   2.293   7.687  0.00  0.00    +0.000 A 
ATOM     29  C   UNL     1      45.577   1.744   8.666  0.00  0.00    +0.000 A 
ATOM     30  N   UNL     1      44.737   2.464   9.432  0.00  0.00    +0.000 NA
ENDBRANCH  24  25
ENDBRANCH  23  24
ENDBRANCH  20  23
ENDBRANCH  16  17
ENDBRANCH   3  16
TORSDOF 6
ENDMDL
MODEL 4
REMARK VINA RESULT:    -7.630      2.118      2.900
REMARK INTER + INTRA:         -11.096
REMARK INTER:                 -10.170
REMARK INTRA:                  -0.926
REMARK UNBOUND:                -0.789
REMARK  Name = 
REMARK  6 active torsions:
REMARK  status: ('A' for Active; 'I' for Inactive)
REMARK    1  A    between atoms: C_2  and  C_19
REMARK    2  A    between atoms: N_3  and  C_4
REMARK    3  A    between atoms: C_4  and  C_5
REMARK    4  A    between atoms: C_8  and  C_9
REMARK    5  A    between atoms: C_9  and  O_10
REMARK    6  A    between atoms: O_10  and  C_11
REMARK                            x       y       z     vdW  Elec       q    Type
REMARK                         _______ _______ _______ _____ _____    ______ ____
ROOT
ATOM      1  O   UNL     1      50.210   6.852  15.078  0.00  0.00    +0.000 OA
ATOM      2  C   UNL     1      49.101   6.686  15.571  0.00  0.00    +0.000 C 
ATOM      3  N   UNL     1      47.912   6.989  14.946  0.00  0.00    +0.000 N 
ATOM      4  H   UNL     1      47.088   6.512  15.281  0.00  0.00    +0.000 HD
ENDROOT
BRANCH   2   5
ATOM      5  C   UNL     1      48.851   5.902  16.768  0.00  0.00    +0.000 A 
ATOM      6  C   UNL     1      48.425   4.589  16.705  0.00  0.00    +0.000 A 
ATOM      7  S   UNL     1      47.470   4.196  18.078  0.00  0.00    +0.000 S 
ATOM      8  C   UNL     1      47.844   5.683  18.835  0.00  0.00    +0.000 A 
ATOM      9  N   UNL     1      47.247   6.091  19.977  0.00  0.00    +0.000 NA
ATOM     10  C   UNL     1      47.702   7.206  20.447  0.00  0.00    +0.000 A 
ATOM     11  N   UNL     1      48.738   7.926  19.903  0.00  0.00    +0.000 N 
ATOM     12  C   UNL     1      49.359   7.578  18.721  0.00  0.00    +0.000 A 
ATOM     13  O   UNL     1      50.291   8.213  18.258  0.00  0.00    +0.000 OA
ATOM     14  C   UNL     1      48.793   6.385  18.114  0.00  0.00    +0.000 A 
ATOM     15  H   UNL     1      49.102   8.745  20.370  0.00  0.00    +0.000 HD
ENDBRANCH   2   5
BRANCH   3  16
ATOM     16  C   UNL     1      47.867   7.384  13.567  0.00  0.00    +0.000 C 
BRANCH  16  17
ATOM     17  C   UNL     1      46.902   6.504  12.824  0.00  0.00    +0.000 A 
ATOM     18  C   UNL     1      46.235   6.999  11.693  0.00  0.00    +0.000 A 
ATOM     19  C   UNL     1      45.320   6.206  11.003  0.00  0.00    +0.000 A 
ATOM     20  C   UNL     1      45.026   4.907  11.442  0.00  0.00    +0.000 A 
ATOM     21  C   UNL     1      45.677   4.414  12.581  0.00  0.00    +0.000 A 
ATOM     22  C   UNL     1      46.595   5.207  13.274  0.00  0.00    +0.000 A 
BRANCH  20  23
ATOM     23  C   UNL     1      44.039   4.048  10.686  0.00  0.00    +0.000 C 
BRANCH  23  24
ATOM     24  O   UNL     1      44.107   4.366   9.301  0.00  0.00    +0.000 OA
BRANCH  24  25
ATOM     25  C   UNL     1      45.059   3.599   8.665  0.00  0.00    +0.000 A 
ATOM     26  N   UNL     1      45.816   4.249   7.770  0.00  0.00    +0.000 NA
ATOM     27  C   UNL     1      46.717   3.502   7.107  0.00  0.00    +0.000 A 
ATOM     28  C   UNL     1      46.891   2.154   7.317  0.00  0.00    +0.000 A 
ATOM     29  C   UNL     1      46.082   1.596   8.276  0.00  0.00    +0.000 A 
ATOM     30  N   UNL     1      45.157   2.291   8.964  0.00  0.00    +0.000 NA
ENDBRANCH  24  25
ENDBRANCH  23  24
ENDBRANCH  20  23
ENDBRANCH  16  17
ENDBRANCH   3  16
TORSDOF 6
ENDMDL
MODEL 5
REMARK VINA RESULT:    -7.441      2.641      4.374
REMARK INTER + INTRA:         -10.841
REMARK INTER:                  -9.911
REMARK INTRA:                  -0.930
REMARK UNBOUND:                -0.789
REMARK  Name = 
REMARK  6 active torsions:
REMARK  status: ('A' for Active; 'I' for Inactive)
REMARK    1  A    between atoms: C_2  and  C_19
REMARK    2  A    between atoms: N_3  and  C_4
REMARK    3  A    between atoms: C_4  and  C_5
REMARK    4  A    between atoms: C_8  and  C_9
REMARK    5  A    between atoms: C_9  and  O_10
REMARK    6  A    between atoms: O_10  and  C_11
REMARK                            x       y       z     vdW  Elec       q    Type
REMARK                         _______ _______ _______ _____ _____    ______ ____
ROOT
ATOM      1  O   UNL     1      49.186   5.799  15.919  0.00  0.00    +0.000 OA
ATOM      2  C   UNL     1      48.797   6.585  15.063  0.00  0.00    +0.000 C 
ATOM      3  N   UNL     1      47.744   6.356  14.206  0.00  0.00    +0.000 N 
ATOM      4  H   UNL     1      47.305   7.167  13.797  0.00  0.00    +0.000 HD
ENDROOT
BRANCH   2   5
ATOM      5  C   UNL     1      49.204   7.979  14.994  0.00  0.00    +0.000 A 
ATOM      6  C   UNL     1      49.389   8.742  16.131  0.00  0.00    +0.000 A 
ATOM      7  S   UNL     1      49.054  10.396  15.811  0.00  0.00    +0.000 S 
ATOM      8  C   UNL     1      48.910  10.102  14.133  0.00  0.00    +0.000 A 
ATOM      9  N   UNL     1      48.482  11.042  13.261  0.00  0.00    +0.000 NA
ATOM     10  C   UNL     1      48.504  10.670  12.023  0.00  0.00    +0.000 A 
ATOM     11  N   UNL     1      48.963   9.455  11.574  0.00  0.00    +0.000 N 
ATOM     12  C   UNL     1      49.376   8.445  12.418  0.00  0.00    +0.000 A 
ATOM     13  O   UNL     1      49.801   7.379  12.008  0.00  0.00    +0.000 OA
ATOM     14  C   UNL     1      49.260   8.800  13.823  0.00  0.00    +0.000 A 
ATOM     15  H   UNL     1      49.034   9.261  10.585  0.00  0.00    +0.000 HD
ENDBRANCH   2   5
BRANCH   3  16
ATOM     16  C   UNL     1      46.888   5.213  14.357  0.00  0.00    +0.000 C 
BRANCH  16  17
ATOM     17  C   UNL     1      46.192   4.933  13.055  0.00  0.00    +0.000 A 
ATOM     18  C   UNL     1      45.580   3.688  12.846  0.00  0.00    +0.000 A 
ATOM     19  C   UNL     1      44.948   3.399  11.638  0.00  0.00    +0.000 A 
ATOM     20  C   UNL     1      44.936   4.338  10.596  0.00  0.00    +0.000 A 
ATOM     21  C   UNL     1      45.561   5.577  10.794  0.00  0.00    +0.000 A 
ATOM     22  C   UNL     1      46.194   5.868  12.005  0.00  0.00    +0.000 A 
BRANCH  20  23
ATOM     23  C   UNL     1      44.243   4.025   9.291  0.00  0.00    +0.000 C 
BRANCH  23  24
ATOM     24  O   UNL     1      44.389   2.639   9.005  0.00  0.00    +0.000 OA
BRANCH  24  25
ATOM     25  C   UNL     1      45.444   2.420   8.145  0.00  0.00    +0.000 A 
ATOM     26  N   UNL     1      46.079   1.251   8.302  0.00  0.00    +0.000 NA
ATOM     27  C   UNL     1      47.140   1.045   7.501  0.00  0.00    +0.000 A 
ATOM     28  C   UNL     1      47.568   1.949   6.556  0.00  0.00    +0.000 A 
ATOM     29  C   UNL     1      46.826   3.101   6.461  0.00  0.00    +0.000 A 
ATOM     30  N   UNL     1      45.762   3.366   7.242  0.00  0.00    +0.000 NA
ENDBRANCH  24  25
ENDBRANCH  23  24
ENDBRANCH  20  23
ENDBRANCH  16  17
ENDBRANCH   3  16
TORSDOF 6
ENDMDL
MODEL 6
REMARK VINA RESULT:    -7.162      2.931      8.175
REMARK INTER + INTRA:         -10.464
REMARK INTER:                  -9.555
REMARK INTRA:                  -0.908
REMARK UNBOUND:                -0.789
REMARK  Name = 
REMARK  6 active torsions:
REMARK  status: ('A' for Active; 'I' for Inactive)
REMARK    1  A    between atoms: C_2  and  C_19
REMARK    2  A    between atoms: N_3  and  C_4
REMARK    3  A    between atoms: C_4  and  C_5
REMARK    4  A    between atoms: C_8  and  C_9
REMARK    5  A    between atoms: C_9  and  O_10
REMARK    6  A    between atoms: O_10  and  C_11
REMARK                            x       y       z     vdW  Elec       q    Type
REMARK                         _______ _______ _______ _____ _____    ______ ____
ROOT
ATOM      1  O   UNL     1      45.706   8.246  11.838  0.00  0.00    +0.000 OA
ATOM      2  C   UNL     1      45.769   7.068  11.507  0.00  0.00    +0.000 C 
ATOM      3  N   UNL     1      46.879   6.269  11.658  0.00  0.00    +0.000 N 
ATOM      4  H   UNL     1      46.723   5.272  11.675  0.00  0.00    +0.000 HD
ENDROOT
BRANCH   2   5
ATOM      5  C   UNL     1      44.613   6.260  11.156  0.00  0.00    +0.000 A 
ATOM      6  C   UNL     1      43.399   6.403  11.800  0.00  0.00    +0.000 A 
ATOM      7  S   UNL     1      42.542   4.915  11.812  0.00  0.00    +0.000 S 
ATOM      8  C   UNL     1      43.677   4.186  10.761  0.00  0.00    +0.000 A 
ATOM      9  N   UNL     1      43.655   2.868  10.464  0.00  0.00    +0.000 NA
ATOM     10  C   UNL     1      44.542   2.502   9.598  0.00  0.00    +0.000 A 
ATOM     11  N   UNL     1      45.419   3.348   8.964  0.00  0.00    +0.000 N 
ATOM     12  C   UNL     1      45.512   4.693   9.253  0.00  0.00    +0.000 A 
ATOM     13  O   UNL     1      46.280   5.438   8.669  0.00  0.00    +0.000 OA
ATOM     14  C   UNL     1      44.597   5.110  10.303  0.00  0.00    +0.000 A 
ATOM     15  H   UNL     1      46.028   3.009   8.232  0.00  0.00    +0.000 HD
ENDBRANCH   2   5
BRANCH   3  16
ATOM     16  C   UNL     1      48.034   6.716  12.384  0.00  0.00    +0.000 C 
BRANCH  16  17
ATOM     17  C   UNL     1      48.007   6.142  13.772  0.00  0.00    +0.000 A 
ATOM     18  C   UNL     1      47.234   5.001  14.039  0.00  0.00    +0.000 A 
ATOM     19  C   UNL     1      47.178   4.465  15.325  0.00  0.00    +0.000 A 
ATOM     20  C   UNL     1      47.870   5.072  16.382  0.00  0.00    +0.000 A 
ATOM     21  C   UNL     1      48.629   6.222  16.124  0.00  0.00    +0.000 A 
ATOM     22  C   UNL     1      48.687   6.759  14.835  0.00  0.00    +0.000 A 
BRANCH  20  23
ATOM     23  C   UNL     1      47.813   4.484  17.773  0.00  0.00    +0.000 C 
BRANCH  23  24
ATOM     24  O   UNL     1      48.180   3.111  17.715  0.00  0.00    +0.000 OA
BRANCH  24  25
ATOM     25  C   UNL     1      49.550   2.965  17.731  0.00  0.00    +0.000 A 
ATOM     26  N   UNL     1      50.019   1.884  17.093  0.00  0.00    +0.000 NA
ATOM     27  C   UNL     1      51.352   1.704  17.141  0.00  0.00    +0.000 A 
ATOM     28  C   UNL     1      52.214   2.562  17.784  0.00  0.00    +0.000 A 
ATOM     29  C   UNL     1      51.627   3.651  18.380  0.00  0.00    +0.000 A 
ATOM     30  N   UNL     1      50.301   3.878  18.373  0.00  0.00    +0.000 NA
ENDBRANCH  24  25
ENDBRANCH  23  24
ENDBRANCH  20  23
ENDBRANCH  16  17
ENDBRANCH   3  16
TORSDOF 6
ENDMDL
MODEL 7
REMARK VINA RESULT:    -7.144      2.855      3.945
REMARK INTER + INTRA:         -10.439
REMARK INTER:                  -9.492
REMARK INTRA:                  -0.947
REMARK UNBOUND:                -0.789
REMARK  Name = 
REMARK  6 active torsions:
REMARK  status: ('A' for Active; 'I' for Inactive)
REMARK    1  A    between atoms: C_2  and  C_19
REMARK    2  A    between atoms: N_3  and  C_4
REMARK    3  A    between atoms: C_4  and  C_5
REMARK    4  A    between atoms: C_8  and  C_9
REMARK    5  A    between atoms: C_9  and  O_10
REMARK    6  A    between atoms: O_10  and  C_11
REMARK                            x       y       z     vdW  Elec       q    Type
REMARK                         _______ _______ _______ _____ _____    ______ ____
ROOT
ATOM      1  O   UNL     1      49.775   6.978  13.919  0.00  0.00    +0.000 OA
ATOM      2  C   UNL     1      48.742   7.552  14.243  0.00  0.00    +0.000 C 
ATOM      3  N   UNL     1      47.521   6.937  14.412  0.00  0.00    +0.000 N 
ATOM      4  H   UNL     1      46.847   7.415  14.990  0.00  0.00    +0.000 HD
ENDROOT
BRANCH   2   5
ATOM      5  C   UNL     1      48.693   8.910  14.758  0.00  0.00    +0.000 A 
ATOM      6  C   UNL     1      48.562  10.003  13.923  0.00  0.00    +0.000 A 
ATOM      7  S   UNL     1      49.321  11.383  14.610  0.00  0.00    +0.000 S 
ATOM      8  C   UNL     1      49.589  10.570  16.090  0.00  0.00    +0.000 A 
ATOM      9  N   UNL     1      50.331  11.099  17.088  0.00  0.00    +0.000 NA
ATOM     10  C   UNL     1      50.369  10.380  18.162  0.00  0.00    +0.000 A 
ATOM     11  N   UNL     1      49.688   9.200  18.344  0.00  0.00    +0.000 N 
ATOM     12  C   UNL     1      48.947   8.595  17.350  0.00  0.00    +0.000 A 
ATOM     13  O   UNL     1      48.331   7.559  17.529  0.00  0.00    +0.000 OA
ATOM     14  C   UNL     1      48.977   9.331  16.096  0.00  0.00    +0.000 A 
ATOM     15  H   UNL     1      49.692   8.732  19.240  0.00  0.00    +0.000 HD
ENDBRANCH   2   5
BRANCH   3  16
ATOM     16  C   UNL     1      47.390   5.508  14.380  0.00  0.00    +0.000 C 
BRANCH  16  17
ATOM     17  C   UNL     1      46.550   5.107  13.200  0.00  0.00    +0.000 A 
ATOM     18  C   UNL     1      46.016   3.812  13.133  0.00  0.00    +0.000 A 
ATOM     19  C   UNL     1      45.252   3.413  12.037  0.00  0.00    +0.000 A 
ATOM     20  C   UNL     1      45.026   4.291  10.967  0.00  0.00    +0.000 A 
ATOM     21  C   UNL     1      45.572   5.581  11.022  0.00  0.00    +0.000 A 
ATOM     22  C   UNL     1      46.337   5.982  12.120  0.00  0.00    +0.000 A 
BRANCH  20  23
ATOM     23  C   UNL     1      44.190   3.858   9.785  0.00  0.00    +0.000 C 
BRANCH  23  24
ATOM     24  O   UNL     1      44.493   2.504   9.470  0.00  0.00    +0.000 OA
BRANCH  24  25
ATOM     25  C   UNL     1      45.429   2.429   8.461  0.00  0.00    +0.000 A 
ATOM     26  N   UNL     1      46.089   1.266   8.377  0.00  0.00    +0.000 NA
ATOM     27  C   UNL     1      47.040   1.195   7.427  0.00  0.00    +0.000 A 
ATOM     28  C   UNL     1      47.335   2.228   6.567  0.00  0.00    +0.000 A 
ATOM     29  C   UNL     1      46.578   3.363   6.725  0.00  0.00    +0.000 A 
ATOM     30  N   UNL     1      45.622   3.494   7.662  0.00  0.00    +0.000 NA
ENDBRANCH  24  25
ENDBRANCH  23  24
ENDBRANCH  20  23
ENDBRANCH  16  17
ENDBRANCH   3  16
TORSDOF 6
ENDMDL
MODEL 8
REMARK VINA RESULT:    -6.986      2.433      3.251
REMARK INTER + INTRA:         -10.226
REMARK INTER:                  -9.549
REMARK INTRA:                  -0.676
REMARK UNBOUND:                -0.789
REMARK  Name = 
REMARK  6 active torsions:
REMARK  status: ('A' for Active; 'I' for Inactive)
REMARK    1  A    between atoms: C_2  and  C_19
REMARK    2  A    between atoms: N_3  and  C_4
REMARK    3  A    between atoms: C_4  and  C_5
REMARK    4  A    between atoms: C_8  and  C_9
REMARK    5  A    between atoms: C_9  and  O_10
REMARK    6  A    between atoms: O_10  and  C_11
REMARK                            x       y       z     vdW  Elec       q    Type
REMARK                         _______ _______ _______ _____ _____    ______ ____
ROOT
ATOM      1  O   UNL     1      48.735   7.242  12.673  0.00  0.00    +0.000 OA
ATOM      2  C   UNL     1      48.213   7.286  13.780  0.00  0.00    +0.000 C 
ATOM      3  N   UNL     1      46.915   7.677  14.021  0.00  0.00    +0.000 N 
ATOM      4  H   UNL     1      46.496   7.358  14.882  0.00  0.00    +0.000 HD
ENDROOT
BRANCH   2   5
ATOM      5  C   UNL     1      48.784   6.682  14.973  0.00  0.00    +0.000 A 
ATOM      6  C   UNL     1      48.170   5.628  15.622  0.00  0.00    +0.000 A 
ATOM      7  S   UNL     1      48.532   5.658  17.301  0.00  0.00    +0.000 S 
ATOM      8  C   UNL     1      49.679   6.908  17.089  0.00  0.00    +0.000 A 
ATOM      9  N   UNL     1      50.271   7.539  18.128  0.00  0.00    +0.000 NA
ATOM     10  C   UNL     1      51.164   8.408  17.785  0.00  0.00    +0.000 A 
ATOM     11  N   UNL     1      51.554   8.669  16.493  0.00  0.00    +0.000 N 
ATOM     12  C   UNL     1      50.960   8.085  15.394  0.00  0.00    +0.000 A 
ATOM     13  O   UNL     1      51.328   8.308  14.253  0.00  0.00    +0.000 OA
ATOM     14  C   UNL     1      49.877   7.182  15.749  0.00  0.00    +0.000 A 
ATOM     15  H   UNL     1      52.320   9.298  16.300  0.00  0.00    +0.000 HD
ENDBRANCH   2   5
BRANCH   3  16
ATOM     16  C   UNL     1      45.992   7.917  12.949  0.00  0.00    +0.000 C 
BRANCH  16  17
ATOM     17  C   UNL     1      45.627   6.612  12.299  0.00  0.00    +0.000 A 
ATOM     18  C   UNL     1      45.694   6.486  10.903  0.00  0.00    +0.000 A 
ATOM     19  C   UNL     1      45.340   5.291  10.279  0.00  0.00    +0.000 A 
ATOM     20  C   UNL     1      44.883   4.200  11.032  0.00  0.00    +0.000 A 
ATOM     21  C   UNL     1      44.798   4.327  12.425  0.00  0.00    +0.000 A 
ATOM     22  C   UNL     1      45.154   5.524  13.052  0.00  0.00    +0.000 A 
BRANCH  20  23
ATOM     23  C   UNL     1      44.507   2.904  10.353  0.00  0.00    +0.000 C 
BRANCH  23  24
ATOM     24  O   UNL     1      44.399   3.125   8.951  0.00  0.00    +0.000 OA
BRANCH  24  25
ATOM     25  C   UNL     1      45.477   2.586   8.282  0.00  0.00    +0.000 A 
ATOM     26  N   UNL     1      46.123   3.428   7.464  0.00  0.00    +0.000 NA
ATOM     27  C   UNL     1      47.148   2.903   6.768  0.00  0.00    +0.000 A 
ATOM     28  C   UNL     1      47.547   1.590   6.873  0.00  0.00    +0.000 A 
ATOM     29  C   UNL     1      46.832   0.825   7.762  0.00  0.00    +0.000 A 
ATOM     30  N   UNL     1      45.792   1.293   8.477  0.00  0.00    +0.000 NA
ENDBRANCH  24  25
ENDBRANCH  23  24
ENDBRANCH  20  23
ENDBRANCH  16  17
ENDBRANCH   3  16
TORSDOF 6
ENDMDL
MODEL 9
REMARK VINA RESULT:    -6.874      3.564      4.644
REMARK INTER + INTRA:         -10.074
REMARK INTER:                  -9.300
REMARK INTRA:                  -0.775
REMARK UNBOUND:                -0.789
REMARK  Name = 
REMARK  6 active torsions:
REMARK  status: ('A' for Active; 'I' for Inactive)
REMARK    1  A    between atoms: C_2  and  C_19
REMARK    2  A    between atoms: N_3  and  C_4
REMARK    3  A    between atoms: C_4  and  C_5
REMARK    4  A    between atoms: C_8  and  C_9
REMARK    5  A    between atoms: C_9  and  O_10
REMARK    6  A    between atoms: O_10  and  C_11
REMARK                            x       y       z     vdW  Elec       q    Type
REMARK                         _______ _______ _______ _____ _____    ______ ____
ROOT
ATOM      1  O   UNL     1      49.399   6.643  14.179  0.00  0.00    +0.000 OA
ATOM      2  C   UNL     1      49.202   7.334  13.187  0.00  0.00    +0.000 C 
ATOM      3  N   UNL     1      47.968   7.561  12.620  0.00  0.00    +0.000 N 
ATOM      4  H   UNL     1      47.875   8.386  12.046  0.00  0.00    +0.000 HD
ENDROOT
BRANCH   2   5
ATOM      5  C   UNL     1      50.188   8.236  12.615  0.00  0.00    +0.000 A 
ATOM      6  C   UNL     1      50.751   8.010  11.373  0.00  0.00    +0.000 A 
ATOM      7  S   UNL     1      52.341   8.655  11.303  0.00  0.00    +0.000 S 
ATOM      8  C   UNL     1      52.158   9.424  12.819  0.00  0.00    +0.000 A 
ATOM      9  N   UNL     1      53.182  10.034  13.457  0.00  0.00    +0.000 NA
ATOM     10  C   UNL     1      52.849  10.625  14.557  0.00  0.00    +0.000 A 
ATOM     11  N   UNL     1      51.570  10.702  15.053  0.00  0.00    +0.000 N 
ATOM     12  C   UNL     1      50.494  10.070  14.467  0.00  0.00    +0.000 A 
ATOM     13  O   UNL     1      49.360  10.162  14.904  0.00  0.00    +0.000 OA
ATOM     14  C   UNL     1      50.862   9.307  13.284  0.00  0.00    +0.000 A 
ATOM     15  H   UNL     1      51.365  11.255  15.874  0.00  0.00    +0.000 HD
ENDBRANCH   2   5
BRANCH   3  16
ATOM     16  C   UNL     1      46.757   7.126  13.257  0.00  0.00    +0.000 C 
BRANCH  16  17
ATOM     17  C   UNL     1      46.159   5.991  12.474  0.00  0.00    +0.000 A 
ATOM     18  C   UNL     1      45.798   6.184  11.132  0.00  0.00    +0.000 A 
ATOM     19  C   UNL     1      45.221   5.152  10.395  0.00  0.00    +0.000 A 
ATOM     20  C   UNL     1      44.966   3.907  10.988  0.00  0.00    +0.000 A 
ATOM     21  C   UNL     1      45.310   3.714  12.333  0.00  0.00    +0.000 A 
ATOM     22  C   UNL     1      45.888   4.748  13.073  0.00  0.00    +0.000 A 
BRANCH  20  23
ATOM     23  C   UNL     1      44.348   2.787  10.183  0.00  0.00    +0.000 C 
BRANCH  23  24
ATOM     24  O   UNL     1      44.405   3.120   8.800  0.00  0.00    +0.000 OA
BRANCH  24  25
ATOM     25  C   UNL     1      45.511   2.556   8.202  0.00  0.00    +0.000 A 
ATOM     26  N   UNL     1      46.222   3.380   7.420  0.00  0.00    +0.000 NA
ATOM     27  C   UNL     1      47.278   2.832   6.792  0.00  0.00    +0.000 A 
ATOM     28  C   UNL     1      47.645   1.513   6.930  0.00  0.00    +0.000 A 
ATOM     29  C   UNL     1      46.863   0.768   7.777  0.00  0.00    +0.000 A 
ATOM     30  N   UNL     1      45.790   1.259   8.424  0.00  0.00    +0.000 NA
ENDBRANCH  24  25
ENDBRANCH  23  24
ENDBRANCH  20  23
ENDBRANCH  16  17
ENDBRANCH   3  16
TORSDOF 6
ENDMDL
