MODEL 1
REMARK VINA RESULT:    -8.296      0.000      0.000
REMARK INTER + INTRA:         -12.984
REMARK INTER:                 -11.691
REMARK INTRA:                  -1.292
REMARK UNBOUND:                -1.292
REMARK  Name = 
REMARK  8 active torsions:
REMARK  status: ('A' for Active; 'I' for Inactive)
REMARK    1  A    between atoms: C_1  and  C_2
REMARK    2  A    between atoms: C_2  and  N_3
REMARK    3  A    between atoms: C_2  and  C_25
REMARK    4  A    between atoms: N_3  and  C_4
REMARK    5  A    between atoms: C_4  and  C_5
REMARK    6  A    between atoms: C_8  and  C_9
REMARK    7  A    between atoms: C_9  and  N_10
REMARK    8  A    between atoms: C_11  and  C_13
REMARK                            x       y       z     vdW  Elec       q    Type
REMARK                         _______ _______ _______ _____ _____    ______ ____
ROOT
ATOM      1  C   UNL     1      44.524   5.556  10.943  0.00  0.00    +0.000 A 
ATOM      2  C   UNL     1      44.045   6.157  12.116  0.00  0.00    +0.000 A 
ATOM      3  C   UNL     1      44.881   6.965  12.898  0.00  0.00    +0.000 A 
ATOM      4  C   UNL     1      46.213   7.186  12.523  0.00  0.00    +0.000 A 
ATOM      5  C   UNL     1      46.705   6.549  11.379  0.00  0.00    +0.000 A 
ATOM      6  C   UNL     1      45.868   5.752  10.593  0.00  0.00    +0.000 A 
ENDROOT
BRANCH   1   7
ATOM      7  C   UNL     1      43.636   4.684  10.080  0.00  0.00    +0.000 C 
BRANCH   7   8
ATOM      8  N   UNL     1      44.228   4.411   8.772  0.00  0.00    +0.000 NA
ATOM      9  H   UNL     1      43.606   4.750   8.042  0.00  0.00    +0.000 HD
BRANCH   8  11
ATOM     10  C   UNL     1      44.582   2.159   9.825  0.00  0.00    +0.000 C 
ATOM     11  C   UNL     1      44.469   2.968   8.527  0.00  0.00    +0.000 C 
BRANCH  11  12
ATOM     12  C   UNL     1      45.742   2.709   7.703  0.00  0.00    +0.000 A 
ATOM     13  N   UNL     1      46.049   3.596   6.731  0.00  0.00    +0.000 NA
ATOM     14  C   UNL     1      47.120   3.299   5.965  0.00  0.00    +0.000 A 
ATOM     15  C   UNL     1      47.886   2.171   6.129  0.00  0.00    +0.000 A 
ATOM     16  C   UNL     1      47.506   1.341   7.155  0.00  0.00    +0.000 A 
ATOM     17  N   UNL     1      46.449   1.583   7.950  0.00  0.00    +0.000 NA
ENDBRANCH  11  12
ENDBRANCH   8  11
ENDBRANCH   7   8
ENDBRANCH   1   7
BRANCH   4  18
ATOM     18  C   UNL     1      47.119   8.064  13.346  0.00  0.00    +0.000 C 
BRANCH  18  19
ATOM     19  N   UNL     1      47.520   7.405  14.562  0.00  0.00    +0.000 N 
ATOM     20  C   UNL     1      48.763   6.842  14.694  0.00  0.00    +0.000 C 
ATOM     21  O   UNL     1      49.607   6.907  13.803  0.00  0.00    +0.000 OA
ATOM     22  H   UNL     1      46.778   7.129  15.198  0.00  0.00    +0.000 HD
BRANCH  20  23
ATOM     23  C   UNL     1      49.059   6.213  15.986  0.00  0.00    +0.000 A 
ATOM     24  C   UNL     1      50.076   6.724  16.783  0.00  0.00    +0.000 A 
ATOM     25  S   UNL     1      50.251   5.910  18.272  0.00  0.00    +0.000 S 
ATOM     26  C   UNL     1      49.011   4.813  17.879  0.00  0.00    +0.000 A 
ATOM     27  N   UNL     1      48.666   3.813  18.735  0.00  0.00    +0.000 NA
ATOM     28  C   UNL     1      47.725   3.039  18.302  0.00  0.00    +0.000 A 
ATOM     29  N   UNL     1      47.098   3.179  17.089  0.00  0.00    +0.000 N 
ATOM     30  C   UNL     1      47.396   4.185  16.206  0.00  0.00    +0.000 A 
ATOM     31  O   UNL     1      46.784   4.309  15.150  0.00  0.00    +0.000 OA
ATOM     32  C   UNL     1      48.457   5.079  16.644  0.00  0.00    +0.000 A 
ATOM     33  H   UNL     1      46.362   2.546  16.814  0.00  0.00    +0.000 HD
ENDBRANCH  20  23
ENDBRANCH  18  19
ENDBRANCH   4  18
TORSDOF 7
ENDMDL
MODEL 2
REMARK VINA RESULT:    -7.602      1.790      2.064
REMARK INTER + INTRA:         -12.005
REMARK INTER:                 -10.918
REMARK INTRA:                  -1.087
REMARK UNBOUND:                -1.292
REMARK  Name = 
REMARK  8 active torsions:
REMARK  status: ('A' for Active; 'I' for Inactive)
REMARK    1  A    between atoms: C_1  and  C_2
REMARK    2  A    between atoms: C_2  and  N_3
REMARK    3  A    between atoms: C_2  and  C_25
REMARK    4  A    between atoms: N_3  and  C_4
REMARK    5  A    between atoms: C_4  and  C_5
REMARK    6  A    between atoms: C_8  and  C_9
REMARK    7  A    between atoms: C_9  and  N_10
REMARK    8  A    between atoms: C_11  and  C_13
REMARK                            x       y       z     vdW  Elec       q    Type
REMARK                         _______ _______ _______ _____ _____    ______ ____
ROOT
ATOM      1  C   UNL     1      45.393   5.547  11.677  0.00  0.00    +0.000 A 
ATOM      2  C   UNL     1      45.865   4.817  12.777  0.00  0.00    +0.000 A 
ATOM      3  C   UNL     1      46.921   5.305  13.558  0.00  0.00    +0.000 A 
ATOM      4  C   UNL     1      47.527   6.531  13.254  0.00  0.00    +0.000 A 
ATOM      5  C   UNL     1      47.087   7.237  12.128  0.00  0.00    +0.000 A 
ATOM      6  C   UNL     1      46.027   6.756  11.356  0.00  0.00    +0.000 A 
ENDROOT
BRANCH   1   7
ATOM      7  C   UNL     1      44.248   5.042  10.824  0.00  0.00    +0.000 C 
BRANCH   7   8
ATOM      8  N   UNL     1      44.640   4.847   9.429  0.00  0.00    +0.000 NA
ATOM      9  H   UNL     1      44.082   5.456   8.833  0.00  0.00    +0.000 HD
BRANCH   8  11
ATOM     10  C   UNL     1      44.276   2.457  10.108  0.00  0.00    +0.000 C 
ATOM     11  C   UNL     1      44.451   3.454   8.955  0.00  0.00    +0.000 C 
BRANCH  11  12
ATOM     12  C   UNL     1      45.618   2.960   8.082  0.00  0.00    +0.000 A 
ATOM     13  N   UNL     1      46.090   3.799   7.135  0.00  0.00    +0.000 NA
ATOM     14  C   UNL     1      47.051   3.310   6.325  0.00  0.00    +0.000 A 
ATOM     15  C   UNL     1      47.555   2.035   6.422  0.00  0.00    +0.000 A 
ATOM     16  C   UNL     1      47.025   1.264   7.428  0.00  0.00    +0.000 A 
ATOM     17  N   UNL     1      46.065   1.697   8.264  0.00  0.00    +0.000 NA
ENDBRANCH  11  12
ENDBRANCH   8  11
ENDBRANCH   7   8
ENDBRANCH   1   7
BRANCH   4  18
ATOM     18  C   UNL     1      48.654   7.075  14.093  0.00  0.00    +0.000 C 
BRANCH  18  19
ATOM     19  N   UNL     1      48.393   6.891  15.498  0.00  0.00    +0.000 N 
ATOM     20  C   UNL     1      49.062   7.616  16.449  0.00  0.00    +0.000 C 
ATOM     21  O   UNL     1      49.883   8.481  16.153  0.00  0.00    +0.000 OA
ATOM     22  H   UNL     1      47.916   6.036  15.766  0.00  0.00    +0.000 HD
BRANCH  20  23
ATOM     23  C   UNL     1      48.697   7.351  17.846  0.00  0.00    +0.000 A 
ATOM     24  C   UNL     1      48.170   8.373  18.625  0.00  0.00    +0.000 A 
ATOM     25  S   UNL     1      47.752   7.882  20.204  0.00  0.00    +0.000 S 
ATOM     26  C   UNL     1      48.310   6.300  19.917  0.00  0.00    +0.000 A 
ATOM     27  N   UNL     1      48.265   5.355  20.895  0.00  0.00    +0.000 NA
ATOM     28  C   UNL     1      48.742   4.204  20.550  0.00  0.00    +0.000 A 
ATOM     29  N   UNL     1      49.259   3.915  19.312  0.00  0.00    +0.000 N 
ATOM     30  C   UNL     1      49.304   4.828  18.289  0.00  0.00    +0.000 A 
ATOM     31  O   UNL     1      49.729   4.524  17.180  0.00  0.00    +0.000 OA
ATOM     32  C   UNL     1      48.786   6.144  18.631  0.00  0.00    +0.000 A 
ATOM     33  H   UNL     1      49.607   2.992  19.102  0.00  0.00    +0.000 HD
ENDBRANCH  20  23
ENDBRANCH  18  19
ENDBRANCH   4  18
TORSDOF 7
ENDMDL
MODEL 3
REMARK VINA RESULT:    -7.290      4.966      9.529
REMARK INTER + INTRA:         -11.566
REMARK INTER:                 -10.531
REMARK INTRA:                  -1.035
REMARK UNBOUND:                -1.292
REMARK  Name = 
REMARK  8 active torsions:
REMARK  status: ('A' for Active; 'I' for Inactive)
REMARK    1  A    between atoms: C_1  and  C_2
REMARK    2  A    between atoms: C_2  and  N_3
REMARK    3  A    between atoms: C_2  and  C_25
REMARK    4  A    between atoms: N_3  and  C_4
REMARK    5  A    between atoms: C_4  and  C_5
REMARK    6  A    between atoms: C_8  and  C_9
REMARK    7  A    between atoms: C_9  and  N_10
REMARK    8  A    between atoms: C_11  and  C_13
REMARK                            x       y       z     vdW  Elec       q    Type
REMARK                         _______ _______ _______ _____ _____    ______ ____
ROOT
ATOM      1  C   UNL     1      51.137   2.243  17.449  0.00  0.00    +0.000 A 
ATOM      2  C   UNL     1      49.775   2.184  17.121  0.00  0.00    +0.000 A 
ATOM      3  C   UNL     1      49.003   3.351  17.062  0.00  0.00    +0.000 A 
ATOM      4  C   UNL     1      49.577   4.601  17.330  0.00  0.00    +0.000 A 
ATOM      5  C   UNL     1      50.925   4.656  17.704  0.00  0.00    +0.000 A 
ATOM      6  C   UNL     1      51.697   3.493  17.753  0.00  0.00    +0.000 A 
ENDROOT
BRANCH   1   7
ATOM      7  C   UNL     1      51.992   0.994  17.512  0.00  0.00    +0.000 C 
BRANCH   7   8
ATOM      8  N   UNL     1      52.983   1.053  18.585  0.00  0.00    +0.000 NA
ATOM      9  H   UNL     1      53.207   2.026  18.785  0.00  0.00    +0.000 HD
BRANCH   8  11
ATOM     10  C   UNL     1      54.716   0.631  16.819  0.00  0.00    +0.000 C 
ATOM     11  C   UNL     1      54.250   0.356  18.254  0.00  0.00    +0.000 C 
BRANCH  11  12
ATOM     12  C   UNL     1      54.152  -1.169  18.430  0.00  0.00    +0.000 A 
ATOM     13  N   UNL     1      53.388  -1.635  19.441  0.00  0.00    +0.000 NA
ATOM     14  C   UNL     1      53.391  -2.971  19.630  0.00  0.00    +0.000 A 
ATOM     15  C   UNL     1      54.114  -3.849  18.859  0.00  0.00    +0.000 A 
ATOM     16  C   UNL     1      54.845  -3.281  17.844  0.00  0.00    +0.000 A 
ATOM     17  N   UNL     1      54.882  -1.958  17.609  0.00  0.00    +0.000 NA
ENDBRANCH  11  12
ENDBRANCH   8  11
ENDBRANCH   7   8
ENDBRANCH   1   7
BRANCH   4  18
ATOM     18  C   UNL     1      48.763   5.866  17.257  0.00  0.00    +0.000 C 
BRANCH  18  19
ATOM     19  N   UNL     1      47.886   5.855  16.113  0.00  0.00    +0.000 N 
ATOM     20  C   UNL     1      48.311   6.288  14.884  0.00  0.00    +0.000 C 
ATOM     21  O   UNL     1      49.463   6.665  14.686  0.00  0.00    +0.000 OA
ATOM     22  H   UNL     1      46.891   5.786  16.301  0.00  0.00    +0.000 HD
BRANCH  20  23
ATOM     23  C   UNL     1      47.331   6.213  13.794  0.00  0.00    +0.000 A 
ATOM     24  C   UNL     1      46.937   7.375  13.142  0.00  0.00    +0.000 A 
ATOM     25  S   UNL     1      45.835   7.104  11.868  0.00  0.00    +0.000 S 
ATOM     26  C   UNL     1      45.807   5.431  12.178  0.00  0.00    +0.000 A 
ATOM     27  N   UNL     1      45.021   4.598  11.443  0.00  0.00    +0.000 NA
ATOM     28  C   UNL     1      45.078   3.356  11.799  0.00  0.00    +0.000 A 
ATOM     29  N   UNL     1      45.852   2.875  12.825  0.00  0.00    +0.000 N 
ATOM     30  C   UNL     1      46.676   3.673  13.577  0.00  0.00    +0.000 A 
ATOM     31  O   UNL     1      47.391   3.203  14.456  0.00  0.00    +0.000 OA
ATOM     32  C   UNL     1      46.641   5.083  13.221  0.00  0.00    +0.000 A 
ATOM     33  H   UNL     1      45.859   1.891  13.047  0.00  0.00    +0.000 HD
ENDBRANCH  20  23
ENDBRANCH  18  19
ENDBRANCH   4  18
TORSDOF 7
ENDMDL
MODEL 4
REMARK VINA RESULT:    -7.000      2.060      2.626
REMARK INTER + INTRA:         -11.157
REMARK INTER:                 -10.089
REMARK INTRA:                  -1.068
REMARK UNBOUND:                -1.292
REMARK  Name = 
REMARK  8 active torsions:
REMARK  status: ('A' for Active; 'I' for Inactive)
REMARK    1  A    between atoms: C_1  and  C_2
REMARK    2  A    between atoms: C_2  and  N_3
REMARK    3  A    between atoms: C_2  and  C_25
REMARK    4  A    between atoms: N_3  and  C_4
REMARK    5  A    between atoms: C_4  and  C_5
REMARK    6  A    between atoms: C_8  and  C_9
REMARK    7  A    between atoms: C_9  and  N_10
REMARK    8  A    between atoms: C_11  and  C_13
REMARK                            x       y       z     vdW  Elec       q    Type
REMARK                         _______ _______ _______ _____ _____    ______ ____
ROOT
ATOM      1  C   UNL     1      45.133   6.106  11.744  0.00  0.00    +0.000 A 
ATOM      2  C   UNL     1      45.369   7.477  11.572  0.00  0.00    +0.000 A 
ATOM      3  C   UNL     1      46.323   8.142  12.353  0.00  0.00    +0.000 A 
ATOM      4  C   UNL     1      47.058   7.449  13.323  0.00  0.00    +0.000 A 
ATOM      5  C   UNL     1      46.790   6.091  13.529  0.00  0.00    +0.000 A 
ATOM      6  C   UNL     1      45.846   5.426  12.742  0.00  0.00    +0.000 A 
ENDROOT
BRANCH   1   7
ATOM      7  C   UNL     1      44.111   5.367  10.906  0.00  0.00    +0.000 C 
BRANCH   7   8
ATOM      8  N   UNL     1      44.634   4.999   9.591  0.00  0.00    +0.000 NA
ATOM      9  H   UNL     1      44.182   5.565   8.877  0.00  0.00    +0.000 HD
BRANCH   8  11
ATOM     10  C   UNL     1      44.329   2.673  10.487  0.00  0.00    +0.000 C 
ATOM     11  C   UNL     1      44.409   3.573   9.248  0.00  0.00    +0.000 C 
BRANCH  11  12
ATOM     12  C   UNL     1      45.501   3.003   8.326  0.00  0.00    +0.000 A 
ATOM     13  N   UNL     1      45.950   3.793   7.327  0.00  0.00    +0.000 NA
ATOM     14  C   UNL     1      46.842   3.239   6.478  0.00  0.00    +0.000 A 
ATOM     15  C   UNL     1      47.298   1.948   6.588  0.00  0.00    +0.000 A 
ATOM     16  C   UNL     1      46.797   1.231   7.647  0.00  0.00    +0.000 A 
ATOM     17  N   UNL     1      45.906   1.729   8.523  0.00  0.00    +0.000 NA
ENDBRANCH  11  12
ENDBRANCH   8  11
ENDBRANCH   7   8
ENDBRANCH   1   7
BRANCH   4  18
ATOM     18  C   UNL     1      48.097   8.148  14.162  0.00  0.00    +0.000 C 
BRANCH  18  19
ATOM     19  N   UNL     1      48.158   7.590  15.488  0.00  0.00    +0.000 N 
ATOM     20  C   UNL     1      49.232   6.845  15.901  0.00  0.00    +0.000 C 
ATOM     21  O   UNL     1      50.208   6.651  15.181  0.00  0.00    +0.000 OA
ATOM     22  H   UNL     1      47.283   7.528  15.999  0.00  0.00    +0.000 HD
BRANCH  20  23
ATOM     23  C   UNL     1      49.186   6.344  17.280  0.00  0.00    +0.000 A 
ATOM     24  C   UNL     1      49.325   4.983  17.523  0.00  0.00    +0.000 A 
ATOM     25  S   UNL     1      49.301   4.579  19.180  0.00  0.00    +0.000 S 
ATOM     26  C   UNL     1      49.049   6.202  19.627  0.00  0.00    +0.000 A 
ATOM     27  N   UNL     1      48.909   6.552  20.934  0.00  0.00    +0.000 NA
ATOM     28  C   UNL     1      48.700   7.813  21.129  0.00  0.00    +0.000 A 
ATOM     29  N   UNL     1      48.621   8.754  20.133  0.00  0.00    +0.000 N 
ATOM     30  C   UNL     1      48.780   8.450  18.805  0.00  0.00    +0.000 A 
ATOM     31  O   UNL     1      48.750   9.322  17.943  0.00  0.00    +0.000 OA
ATOM     32  C   UNL     1      49.008   7.040  18.531  0.00  0.00    +0.000 A 
ATOM     33  H   UNL     1      48.466   9.726  20.354  0.00  0.00    +0.000 HD
ENDBRANCH  20  23
ENDBRANCH  18  19
ENDBRANCH   4  18
TORSDOF 7
ENDMDL
MODEL 5
REMARK VINA RESULT:    -6.938      2.863      8.607
REMARK INTER + INTRA:         -11.070
REMARK INTER:                  -9.541
REMARK INTRA:                  -1.528
REMARK UNBOUND:                -1.292
REMARK  Name = 
REMARK  8 active torsions:
REMARK  status: ('A' for Active; 'I' for Inactive)
REMARK    1  A    between atoms: C_1  and  C_2
REMARK    2  A    between atoms: C_2  and  N_3
REMARK    3  A    between atoms: C_2  and  C_25
REMARK    4  A    between atoms: N_3  and  C_4
REMARK    5  A    between atoms: C_4  and  C_5
REMARK    6  A    between atoms: C_8  and  C_9
REMARK    7  A    between atoms: C_9  and  N_10
REMARK    8  A    between atoms: C_11  and  C_13
REMARK                            x       y       z     vdW  Elec       q    Type
REMARK                         _______ _______ _______ _____ _____    ______ ____
ROOT
ATOM      1  C   UNL     1      48.869   7.856  16.148  0.00  0.00    +0.000 A 
ATOM      2  C   UNL     1      48.231   8.971  15.589  0.00  0.00    +0.000 A 
ATOM      3  C   UNL     1      47.766   8.941  14.267  0.00  0.00    +0.000 A 
ATOM      4  C   UNL     1      47.932   7.794  13.479  0.00  0.00    +0.000 A 
ATOM      5  C   UNL     1      48.611   6.698  14.021  0.00  0.00    +0.000 A 
ATOM      6  C   UNL     1      49.065   6.724  15.342  0.00  0.00    +0.000 A 
ENDROOT
BRANCH   1   7
ATOM      7  C   UNL     1      49.373   7.865  17.577  0.00  0.00    +0.000 C 
BRANCH   7   8
ATOM      8  N   UNL     1      48.297   7.665  18.545  0.00  0.00    +0.000 NA
ATOM      9  H   UNL     1      48.257   8.463  19.176  0.00  0.00    +0.000 HD
BRANCH   8  11
ATOM     10  C   UNL     1      49.811   6.421  20.116  0.00  0.00    +0.000 C 
ATOM     11  C   UNL     1      48.470   6.444  19.371  0.00  0.00    +0.000 C 
BRANCH  11  12
ATOM     12  C   UNL     1      48.371   5.149  18.546  0.00  0.00    +0.000 A 
ATOM     13  N   UNL     1      49.478   4.381  18.452  0.00  0.00    +0.000 NA
ATOM     14  C   UNL     1      49.391   3.299  17.650  0.00  0.00    +0.000 A 
ATOM     15  C   UNL     1      48.259   2.956  16.951  0.00  0.00    +0.000 A 
ATOM     16  C   UNL     1      47.180   3.788  17.128  0.00  0.00    +0.000 A 
ATOM     17  N   UNL     1      47.208   4.880  17.911  0.00  0.00    +0.000 NA
ENDBRANCH  11  12
ENDBRANCH   8  11
ENDBRANCH   7   8
ENDBRANCH   1   7
BRANCH   4  18
ATOM     18  C   UNL     1      47.425   7.742  12.061  0.00  0.00    +0.000 C 
BRANCH  18  19
ATOM     19  N   UNL     1      46.767   6.489  11.790  0.00  0.00    +0.000 N 
ATOM     20  C   UNL     1      45.401   6.402  11.718  0.00  0.00    +0.000 C 
ATOM     21  O   UNL     1      44.676   7.386  11.841  0.00  0.00    +0.000 OA
ATOM     22  H   UNL     1      47.314   5.646  11.928  0.00  0.00    +0.000 HD
BRANCH  20  23
ATOM     23  C   UNL     1      44.848   5.075  11.419  0.00  0.00    +0.000 A 
ATOM     24  C   UNL     1      44.112   4.403  12.386  0.00  0.00    +0.000 A 
ATOM     25  S   UNL     1      43.500   2.901  11.857  0.00  0.00    +0.000 S 
ATOM     26  C   UNL     1      44.243   3.074  10.336  0.00  0.00    +0.000 A 
ATOM     27  N   UNL     1      44.134   2.101   9.391  0.00  0.00    +0.000 NA
ATOM     28  C   UNL     1      44.766   2.351   8.291  0.00  0.00    +0.000 A 
ATOM     29  N   UNL     1      45.495   3.489   8.052  0.00  0.00    +0.000 N 
ATOM     30  C   UNL     1      45.613   4.505   8.966  0.00  0.00    +0.000 A 
ATOM     31  O   UNL     1      46.234   5.530   8.703  0.00  0.00    +0.000 OA
ATOM     32  C   UNL     1      44.926   4.268  10.226  0.00  0.00    +0.000 A 
ATOM     33  H   UNL     1      45.957   3.628   7.167  0.00  0.00    +0.000 HD
ENDBRANCH  20  23
ENDBRANCH  18  19
ENDBRANCH   4  18
TORSDOF 7
ENDMDL
MODEL 6
REMARK VINA RESULT:    -6.933      3.496      4.895
REMARK INTER + INTRA:         -11.062
REMARK INTER:                  -9.782
REMARK INTRA:                  -1.281
REMARK UNBOUND:                -1.292
REMARK  Name = 
REMARK  8 active torsions:
REMARK  status: ('A' for Active; 'I' for Inactive)
REMARK    1  A    between atoms: C_1  and  C_2
REMARK    2  A    between atoms: C_2  and  N_3
REMARK    3  A    between atoms: C_2  and  C_25
REMARK    4  A    between atoms: N_3  and  C_4
REMARK    5  A    between atoms: C_4  and  C_5
REMARK    6  A    between atoms: C_8  and  C_9
REMARK    7  A    between atoms: C_9  and  N_10
REMARK    8  A    between atoms: C_11  and  C_13
REMARK                            x       y       z     vdW  Elec       q    Type
REMARK                         _______ _______ _______ _____ _____    ______ ____
ROOT
ATOM      1  C   UNL     1      45.650   5.896  11.780  0.00  0.00    +0.000 A 
ATOM      2  C   UNL     1      46.222   7.176  11.794  0.00  0.00    +0.000 A 
ATOM      3  C   UNL     1      47.199   7.513  12.740  0.00  0.00    +0.000 A 
ATOM      4  C   UNL     1      47.621   6.576  13.692  0.00  0.00    +0.000 A 
ATOM      5  C   UNL     1      47.017   5.314  13.710  0.00  0.00    +0.000 A 
ATOM      6  C   UNL     1      46.051   4.975  12.759  0.00  0.00    +0.000 A 
ENDROOT
BRANCH   1   7
ATOM      7  C   UNL     1      44.598   5.510  10.762  0.00  0.00    +0.000 C 
BRANCH   7   8
ATOM      8  N   UNL     1      45.182   5.138   9.475  0.00  0.00    +0.000 NA
ATOM      9  H   UNL     1      44.980   5.863   8.789  0.00  0.00    +0.000 HD
BRANCH   8  11
ATOM     10  C   UNL     1      44.219   2.891  10.051  0.00  0.00    +0.000 C 
ATOM     11  C   UNL     1      44.660   3.855   8.942  0.00  0.00    +0.000 C 
BRANCH  11  12
ATOM     12  C   UNL     1      45.682   3.118   8.060  0.00  0.00    +0.000 A 
ATOM     13  N   UNL     1      46.136   3.757   6.960  0.00  0.00    +0.000 NA
ATOM     14  C   UNL     1      46.961   3.056   6.155  0.00  0.00    +0.000 A 
ATOM     15  C   UNL     1      47.348   1.761   6.403  0.00  0.00    +0.000 A 
ATOM     16  C   UNL     1      46.850   1.204   7.555  0.00  0.00    +0.000 A 
ATOM     17  N   UNL     1      46.023   1.852   8.393  0.00  0.00    +0.000 NA
ENDBRANCH  11  12
ENDBRANCH   8  11
ENDBRANCH   7   8
ENDBRANCH   1   7
BRANCH   4  18
ATOM     18  C   UNL     1      48.681   6.918  14.707  0.00  0.00    +0.000 C 
BRANCH  18  19
ATOM     19  N   UNL     1      49.929   7.246  14.067  0.00  0.00    +0.000 N 
ATOM     20  C   UNL     1      50.439   8.518  14.106  0.00  0.00    +0.000 C 
ATOM     21  O   UNL     1      49.883   9.426  14.717  0.00  0.00    +0.000 OA
ATOM     22  H   UNL     1      50.270   6.593  13.368  0.00  0.00    +0.000 HD
BRANCH  20  23
ATOM     23  C   UNL     1      51.726   8.724  13.430  0.00  0.00    +0.000 A 
ATOM     24  C   UNL     1      52.780   9.308  14.121  0.00  0.00    +0.000 A 
ATOM     25  S   UNL     1      54.215   9.424  13.207  0.00  0.00    +0.000 S 
ATOM     26  C   UNL     1      53.462   8.747  11.839  0.00  0.00    +0.000 A 
ATOM     27  N   UNL     1      54.145   8.588  10.674  0.00  0.00    +0.000 NA
ATOM     28  C   UNL     1      53.446   8.083   9.709  0.00  0.00    +0.000 A 
ATOM     29  N   UNL     1      52.125   7.724   9.809  0.00  0.00    +0.000 N 
ATOM     30  C   UNL     1      51.405   7.845  10.970  0.00  0.00    +0.000 A 
ATOM     31  O   UNL     1      50.239   7.470  11.039  0.00  0.00    +0.000 OA
ATOM     32  C   UNL     1      52.145   8.417  12.084  0.00  0.00    +0.000 A 
ATOM     33  H   UNL     1      51.639   7.325   9.021  0.00  0.00    +0.000 HD
ENDBRANCH  20  23
ENDBRANCH  18  19
ENDBRANCH   4  18
TORSDOF 7
ENDMDL
MODEL 7
REMARK VINA RESULT:    -6.923      1.675      2.158
REMARK INTER + INTRA:         -11.048
REMARK INTER:                 -10.574
REMARK INTRA:                  -0.473
REMARK UNBOUND:                -1.292
REMARK  Name = 
REMARK  8 active torsions:
REMARK  status: ('A' for Active; 'I' for Inactive)
REMARK    1  A    between atoms: C_1  and  C_2
REMARK    2  A    between atoms: C_2  and  N_3
REMARK    3  A    between atoms: C_2  and  C_25
REMARK    4  A    between atoms: N_3  and  C_4
REMARK    5  A    between atoms: C_4  and  C_5
REMARK    6  A    between atoms: C_8  and  C_9
REMARK    7  A    between atoms: C_9  and  N_10
REMARK    8  A    between atoms: C_11  and  C_13
REMARK                            x       y       z     vdW  Elec       q    Type
REMARK                         _______ _______ _______ _____ _____    ______ ____
ROOT
ATOM      1  C   UNL     1      44.375   3.963  12.049  0.00  0.00    +0.000 A 
ATOM      2  C   UNL     1      45.650   3.721  12.579  0.00  0.00    +0.000 A 
ATOM      3  C   UNL     1      46.429   4.774  13.075  0.00  0.00    +0.000 A 
ATOM      4  C   UNL     1      45.949   6.090  13.050  0.00  0.00    +0.000 A 
ATOM      5  C   UNL     1      44.697   6.338  12.478  0.00  0.00    +0.000 A 
ATOM      6  C   UNL     1      43.915   5.287  11.993  0.00  0.00    +0.000 A 
ENDROOT
BRANCH   1   7
ATOM      7  C   UNL     1      43.513   2.838  11.513  0.00  0.00    +0.000 C 
BRANCH   7   8
ATOM      8  N   UNL     1      44.032   2.290  10.262  0.00  0.00    +0.000 NA
ATOM      9  H   UNL     1      44.587   1.460  10.460  0.00  0.00    +0.000 HD
BRANCH   8  11
ATOM     10  C   UNL     1      44.081   4.323   8.789  0.00  0.00    +0.000 C 
ATOM     11  C   UNL     1      44.891   3.241   9.515  0.00  0.00    +0.000 C 
BRANCH  11  12
ATOM     12  C   UNL     1      45.782   2.545   8.472  0.00  0.00    +0.000 A 
ATOM     13  N   UNL     1      45.901   1.202   8.547  0.00  0.00    +0.000 NA
ATOM     14  C   UNL     1      46.758   0.625   7.679  0.00  0.00    +0.000 A 
ATOM     15  C   UNL     1      47.489   1.326   6.750  0.00  0.00    +0.000 A 
ATOM     16  C   UNL     1      47.285   2.684   6.738  0.00  0.00    +0.000 A 
ATOM     17  N   UNL     1      46.446   3.314   7.579  0.00  0.00    +0.000 NA
ENDBRANCH  11  12
ENDBRANCH   8  11
ENDBRANCH   7   8
ENDBRANCH   1   7
BRANCH   4  18
ATOM     18  C   UNL     1      46.770   7.230  13.593  0.00  0.00    +0.000 C 
BRANCH  18  19
ATOM     19  N   UNL     1      47.936   6.749  14.288  0.00  0.00    +0.000 N 
ATOM     20  C   UNL     1      48.641   7.555  15.145  0.00  0.00    +0.000 C 
ATOM     21  O   UNL     1      48.293   8.706  15.392  0.00  0.00    +0.000 OA
ATOM     22  H   UNL     1      48.372   5.909  13.921  0.00  0.00    +0.000 HD
BRANCH  20  23
ATOM     23  C   UNL     1      49.801   6.945  15.806  0.00  0.00    +0.000 A 
ATOM     24  C   UNL     1      51.045   7.554  15.711  0.00  0.00    +0.000 A 
ATOM     25  S   UNL     1      52.270   6.745  16.581  0.00  0.00    +0.000 S 
ATOM     26  C   UNL     1      51.190   5.523  17.069  0.00  0.00    +0.000 A 
ATOM     27  N   UNL     1      51.615   4.481  17.832  0.00  0.00    +0.000 NA
ATOM     28  C   UNL     1      50.696   3.614  18.111  0.00  0.00    +0.000 A 
ATOM     29  N   UNL     1      49.391   3.699  17.695  0.00  0.00    +0.000 N 
ATOM     30  C   UNL     1      48.914   4.743  16.944  0.00  0.00    +0.000 A 
ATOM     31  O   UNL     1      47.731   4.814  16.628  0.00  0.00    +0.000 OA
ATOM     32  C   UNL     1      49.913   5.743  16.596  0.00  0.00    +0.000 A 
ATOM     33  H   UNL     1      48.721   2.993  17.956  0.00  0.00    +0.000 HD
ENDBRANCH  20  23
ENDBRANCH  18  19
ENDBRANCH   4  18
TORSDOF 7
ENDMDL
MODEL 8
REMARK VINA RESULT:    -6.803      4.894      9.755
REMARK INTER + INTRA:         -10.879
REMARK INTER:                  -9.700
REMARK INTRA:                  -1.179
REMARK UNBOUND:                -1.292
REMARK  Name = 
REMARK  8 active torsions:
REMARK  status: ('A' for Active; 'I' for Inactive)
REMARK    1  A    between atoms: C_1  and  C_2
REMARK    2  A    between atoms: C_2  and  N_3
REMARK    3  A    between atoms: C_2  and  C_25
REMARK    4  A    between atoms: N_3  and  C_4
REMARK    5  A    between atoms: C_4  and  C_5
REMARK    6  A    between atoms: C_8  and  C_9
REMARK    7  A    between atoms: C_9  and  N_10
REMARK    8  A    between atoms: C_11  and  C_13
REMARK                            x       y       z     vdW  Elec       q    Type
REMARK                         _______ _______ _______ _____ _____    ______ ____
ROOT
ATOM      1  C   UNL     1      51.392   2.783  17.685  0.00  0.00    +0.000 A 
ATOM      2  C   UNL     1      50.560   1.833  17.075  0.00  0.00    +0.000 A 
ATOM      3  C   UNL     1      49.217   2.126  16.808  0.00  0.00    +0.000 A 
ATOM      4  C   UNL     1      48.678   3.374  17.148  0.00  0.00    +0.000 A 
ATOM      5  C   UNL     1      49.494   4.305  17.800  0.00  0.00    +0.000 A 
ATOM      6  C   UNL     1      50.837   4.017  18.056  0.00  0.00    +0.000 A 
ENDROOT
BRANCH   1   7
ATOM      7  C   UNL     1      52.849   2.489  17.976  0.00  0.00    +0.000 C 
BRANCH   7   8
ATOM      8  N   UNL     1      53.037   1.186  18.610  0.00  0.00    +0.000 NA
ATOM      9  H   UNL     1      53.005   1.295  19.622  0.00  0.00    +0.000 HD
BRANCH   8  11
ATOM     10  C   UNL     1      54.824   0.930  16.865  0.00  0.00    +0.000 C 
ATOM     11  C   UNL     1      54.330   0.545  18.265  0.00  0.00    +0.000 C 
BRANCH  11  12
ATOM     12  C   UNL     1      54.269  -0.990  18.334  0.00  0.00    +0.000 A 
ATOM     13  N   UNL     1      53.508  -1.544  19.303  0.00  0.00    +0.000 NA
ATOM     14  C   UNL     1      53.543  -2.889  19.399  0.00  0.00    +0.000 A 
ATOM     15  C   UNL     1      54.294  -3.693  18.575  0.00  0.00    +0.000 A 
ATOM     16  C   UNL     1      55.018  -3.039  17.609  0.00  0.00    +0.000 A 
ATOM     17  N   UNL     1      55.024  -1.702  17.467  0.00  0.00    +0.000 NA
ENDBRANCH  11  12
ENDBRANCH   8  11
ENDBRANCH   7   8
ENDBRANCH   1   7
BRANCH   4  18
ATOM     18  C   UNL     1      47.238   3.709  16.855  0.00  0.00    +0.000 C 
BRANCH  18  19
ATOM     19  N   UNL     1      47.134   4.668  15.785  0.00  0.00    +0.000 N 
ATOM     20  C   UNL     1      47.143   4.277  14.471  0.00  0.00    +0.000 C 
ATOM     21  O   UNL     1      47.200   3.096  14.142  0.00  0.00    +0.000 OA
ATOM     22  H   UNL     1      47.331   5.636  16.019  0.00  0.00    +0.000 HD
BRANCH  20  23
ATOM     23  C   UNL     1      47.014   5.346  13.473  0.00  0.00    +0.000 A 
ATOM     24  C   UNL     1      45.997   5.286  12.529  0.00  0.00    +0.000 A 
ATOM     25  S   UNL     1      45.958   6.632  11.481  0.00  0.00    +0.000 S 
ATOM     26  C   UNL     1      47.332   7.314  12.220  0.00  0.00    +0.000 A 
ATOM     27  N   UNL     1      47.854   8.488  11.772  0.00  0.00    +0.000 NA
ATOM     28  C   UNL     1      48.910   8.880  12.408  0.00  0.00    +0.000 A 
ATOM     29  N   UNL     1      49.487   8.201  13.452  0.00  0.00    +0.000 N 
ATOM     30  C   UNL     1      48.982   7.028  13.951  0.00  0.00    +0.000 A 
ATOM     31  O   UNL     1      49.495   6.472  14.916  0.00  0.00    +0.000 OA
ATOM     32  C   UNL     1      47.797   6.539  13.262  0.00  0.00    +0.000 A 
ATOM     33  H   UNL     1      50.306   8.567  13.913  0.00  0.00    +0.000 HD
ENDBRANCH  20  23
ENDBRANCH  18  19
ENDBRANCH   4  18
TORSDOF 7
ENDMDL
MODEL 9
REMARK VINA RESULT:    -6.041      5.001      6.728
REMARK INTER + INTRA:          -9.806
REMARK INTER:                  -8.656
REMARK INTRA:                  -1.150
REMARK UNBOUND:                -1.292
REMARK  Name = 
REMARK  8 active torsions:
REMARK  status: ('A' for Active; 'I' for Inactive)
REMARK    1  A    between atoms: C_1  and  C_2
REMARK    2  A    between atoms: C_2  and  N_3
REMARK    3  A    between atoms: C_2  and  C_25
REMARK    4  A    between atoms: N_3  and  C_4
REMARK    5  A    between atoms: C_4  and  C_5
REMARK    6  A    between atoms: C_8  and  C_9
REMARK    7  A    between atoms: C_9  and  N_10
REMARK    8  A    between atoms: C_11  and  C_13
REMARK                            x       y       z     vdW  Elec       q    Type
REMARK                         _______ _______ _______ _____ _____    ______ ____
ROOT
ATOM      1  C   UNL     1      46.354   7.297  12.549  0.00  0.00    +0.000 A 
ATOM      2  C   UNL     1      47.626   7.012  12.034  0.00  0.00    +0.000 A 
ATOM      3  C   UNL     1      48.547   8.040  11.793  0.00  0.00    +0.000 A 
ATOM      4  C   UNL     1      48.213   9.374  12.061  0.00  0.00    +0.000 A 
ATOM      5  C   UNL     1      46.927   9.664  12.530  0.00  0.00    +0.000 A 
ATOM      6  C   UNL     1      46.012   8.638  12.780  0.00  0.00    +0.000 A 
ENDROOT
BRANCH   1   7
ATOM      7  C   UNL     1      45.346   6.200  12.824  0.00  0.00    +0.000 C 
BRANCH   7   8
ATOM      8  N   UNL     1      45.507   5.061  11.923  0.00  0.00    +0.000 NA
ATOM      9  H   UNL     1      46.479   4.999  11.627  0.00  0.00    +0.000 HD
BRANCH   8  11
ATOM     10  C   UNL     1      43.188   4.861  10.982  0.00  0.00    +0.000 C 
ATOM     11  C   UNL     1      44.667   5.153  10.703  0.00  0.00    +0.000 C 
BRANCH  11  12
ATOM     12  C   UNL     1      45.130   4.198   9.589  0.00  0.00    +0.000 A 
ATOM     13  N   UNL     1      44.947   2.874   9.783  0.00  0.00    +0.000 NA
ATOM     14  C   UNL     1      45.442   2.054   8.833  0.00  0.00    +0.000 A 
ATOM     15  C   UNL     1      46.101   2.496   7.712  0.00  0.00    +0.000 A 
ATOM     16  C   UNL     1      46.221   3.860   7.594  0.00  0.00    +0.000 A 
ATOM     17  N   UNL     1      45.750   4.725   8.509  0.00  0.00    +0.000 NA
ENDBRANCH  11  12
ENDBRANCH   8  11
ENDBRANCH   7   8
ENDBRANCH   1   7
BRANCH   4  18
ATOM     18  C   UNL     1      49.197  10.488  11.820  0.00  0.00    +0.000 C 
BRANCH  18  19
ATOM     19  N   UNL     1      50.117  10.151  10.763  0.00  0.00    +0.000 N 
ATOM     20  C   UNL     1      51.433  10.533  10.814  0.00  0.00    +0.000 C 
ATOM     21  O   UNL     1      51.900  11.142  11.773  0.00  0.00    +0.000 OA
ATOM     22  H   UNL     1      49.712   9.876   9.875  0.00  0.00    +0.000 HD
BRANCH  20  23
ATOM     23  C   UNL     1      52.275  10.117   9.686  0.00  0.00    +0.000 A 
ATOM     24  C   UNL     1      52.816  11.077   8.840  0.00  0.00    +0.000 A 
ATOM     25  S   UNL     1      53.811  10.426   7.617  0.00  0.00    +0.000 S 
ATOM     26  C   UNL     1      53.510   8.836   8.143  0.00  0.00    +0.000 A 
ATOM     27  N   UNL     1      54.053   7.771   7.494  0.00  0.00    +0.000 NA
ATOM     28  C   UNL     1      53.724   6.621   7.985  0.00  0.00    +0.000 A 
ATOM     29  N   UNL     1      52.900   6.443   9.068  0.00  0.00    +0.000 N 
ATOM     30  C   UNL     1      52.350   7.487   9.767  0.00  0.00    +0.000 A 
ATOM     31  O   UNL     1      51.656   7.294  10.760  0.00  0.00    +0.000 OA
ATOM     32  C   UNL     1      52.683   8.804   9.248  0.00  0.00    +0.000 A 
ATOM     33  H   UNL     1      52.690   5.517   9.409  0.00  0.00    +0.000 HD
ENDBRANCH  20  23
ENDBRANCH  18  19
ENDBRANCH   4  18
TORSDOF 7
ENDMDL
