MODEL 1
REMARK VINA RESULT:    -6.852      0.000      0.000
REMARK INTER + INTRA:          -8.966
REMARK INTER:                  -8.654
REMARK INTRA:                  -0.312
REMARK UNBOUND:                -0.312
REMARK  Name = 
REMARK  5 active torsions:
REMARK  status: ('A' for Active; 'I' for Inactive)
REMARK    1  A    between atoms: N_1  and  C_2
REMARK    2  A    between atoms: C_2  and  C_3
REMARK    3  A    between atoms: C_6  and  S_7
REMARK    4  A    between atoms: S_7  and  C_8
REMARK    5  A    between atoms: C_8  and  C_9
REMARK                            x       y       z     vdW  Elec       q    Type
REMARK                         _______ _______ _______ _____ _____    ______ ____
ROOT
ATOM      1  C   UNL     1      46.515   2.385   7.598  0.00  0.00    +0.000 A 
ATOM      2  C   UNL     1      46.328   3.749   7.516  0.00  0.00    +0.000 A 
ATOM      3  N   UNL     1      45.482   4.444   8.304  0.00  0.00    +0.000 NA
ATOM      4  C   UNL     1      44.799   3.735   9.217  0.00  0.00    +0.000 A 
ATOM      5  N   UNL     1      44.882   2.402   9.364  0.00  0.00    +0.000 NA
ATOM      6  C   UNL     1      45.736   1.757   8.545  0.00  0.00    +0.000 A 
ENDROOT
BRANCH   1   7
ATOM      7  C   UNL     1      47.492   1.656   6.735  0.00  0.00    +0.000 C 
BRANCH   7   8
ATOM      8  N   UNL     1      48.581   2.529   6.314  0.00  0.00    +0.000 NA
ATOM      9  H   UNL     1      48.933   2.223   5.408  0.00  0.00    +0.000 HD
ATOM     10  H   UNL     1      49.363   2.437   6.963  0.00  0.00    +0.000 HD
ENDBRANCH   7   8
ENDBRANCH   1   7
BRANCH   4  11
ATOM     11  S   UNL     1      43.777   4.598  10.384  0.00  0.00    +0.000 S 
BRANCH  11  12
ATOM     12  C   UNL     1      44.516   4.011  11.935  0.00  0.00    +0.000 C 
BRANCH  12  13
ATOM     13  C   UNL     1      45.705   4.843  12.336  0.00  0.00    +0.000 A 
ATOM     14  C   UNL     1      46.052   6.002  11.638  0.00  0.00    +0.000 A 
ATOM     15  C   UNL     1      47.151   6.753  12.045  0.00  0.00    +0.000 A 
ATOM     16  C   UNL     1      47.875   6.314  13.141  0.00  0.00    +0.000 A 
ATOM     17  N   UNL     1      47.581   5.194  13.836  0.00  0.00    +0.000 NA
ATOM     18  C   UNL     1      46.510   4.482  13.413  0.00  0.00    +0.000 A 
ENDBRANCH  12  13
ENDBRANCH  11  12
ENDBRANCH   4  11
TORSDOF 5
ENDMDL
MODEL 2
REMARK VINA RESULT:    -6.737      1.547      5.795
REMARK INTER + INTRA:          -8.821
REMARK INTER:                  -8.510
REMARK INTRA:                  -0.311
REMARK UNBOUND:                -0.312
REMARK  Name = 
REMARK  5 active torsions:
REMARK  status: ('A' for Active; 'I' for Inactive)
REMARK    1  A    between atoms: N_1  and  C_2
REMARK    2  A    between atoms: C_2  and  C_3
REMARK    3  A    between atoms: C_6  and  S_7
REMARK    4  A    between atoms: S_7  and  C_8
REMARK    5  A    between atoms: C_8  and  C_9
REMARK                            x       y       z     vdW  Elec       q    Type
REMARK                         _______ _______ _______ _____ _____    ______ ____
ROOT
ATOM      1  C   UNL     1      46.934   5.945  12.950  0.00  0.00    +0.000 A 
ATOM      2  C   UNL     1      46.449   4.744  13.423  0.00  0.00    +0.000 A 
ATOM      3  N   UNL     1      45.559   3.976  12.762  0.00  0.00    +0.000 NA
ATOM      4  C   UNL     1      45.142   4.435  11.572  0.00  0.00    +0.000 A 
ATOM      5  N   UNL     1      45.525   5.604  11.030  0.00  0.00    +0.000 NA
ATOM      6  C   UNL     1      46.410   6.335  11.736  0.00  0.00    +0.000 A 
ENDROOT
BRANCH   1   7
ATOM      7  C   UNL     1      47.950   6.748  13.692  0.00  0.00    +0.000 C 
BRANCH   7   8
ATOM      8  N   UNL     1      49.272   6.616  13.091  0.00  0.00    +0.000 NA
ATOM      9  H   UNL     1      49.303   7.139  12.217  0.00  0.00    +0.000 HD
ATOM     10  H   UNL     1      49.437   5.642  12.841  0.00  0.00    +0.000 HD
ENDBRANCH   7   8
ENDBRANCH   1   7
BRANCH   4  11
ATOM     11  S   UNL     1      44.084   3.412  10.579  0.00  0.00    +0.000 S 
BRANCH  11  12
ATOM     12  C   UNL     1      44.539   4.009   8.926  0.00  0.00    +0.000 C 
BRANCH  12  13
ATOM     13  C   UNL     1      45.495   3.072   8.239  0.00  0.00    +0.000 A 
ATOM     14  C   UNL     1      46.284   3.494   7.166  0.00  0.00    +0.000 A 
ATOM     15  C   UNL     1      47.168   2.603   6.563  0.00  0.00    +0.000 A 
ATOM     16  C   UNL     1      47.229   1.309   7.052  0.00  0.00    +0.000 A 
ATOM     17  N   UNL     1      46.477   0.858   8.079  0.00  0.00    +0.000 NA
ATOM     18  C   UNL     1      45.623   1.746   8.642  0.00  0.00    +0.000 A 
ENDBRANCH  12  13
ENDBRANCH  11  12
ENDBRANCH   4  11
TORSDOF 5
ENDMDL
MODEL 3
REMARK VINA RESULT:    -6.008      1.532      6.017
REMARK INTER + INTRA:          -7.900
REMARK INTER:                  -7.589
REMARK INTRA:                  -0.311
REMARK UNBOUND:                -0.312
REMARK  Name = 
REMARK  5 active torsions:
REMARK  status: ('A' for Active; 'I' for Inactive)
REMARK    1  A    between atoms: N_1  and  C_2
REMARK    2  A    between atoms: C_2  and  C_3
REMARK    3  A    between atoms: C_6  and  S_7
REMARK    4  A    between atoms: S_7  and  C_8
REMARK    5  A    between atoms: C_8  and  C_9
REMARK                            x       y       z     vdW  Elec       q    Type
REMARK                         _______ _______ _______ _____ _____    ______ ____
ROOT
ATOM      1  C   UNL     1      46.579   4.504  13.843  0.00  0.00    +0.000 A 
ATOM      2  C   UNL     1      45.846   3.526  13.206  0.00  0.00    +0.000 A 
ATOM      3  N   UNL     1      45.290   3.672  11.986  0.00  0.00    +0.000 NA
ATOM      4  C   UNL     1      45.486   4.854  11.379  0.00  0.00    +0.000 A 
ATOM      5  N   UNL     1      46.157   5.885  11.919  0.00  0.00    +0.000 NA
ATOM      6  C   UNL     1      46.684   5.687  13.144  0.00  0.00    +0.000 A 
ENDROOT
BRANCH   1   7
ATOM      7  C   UNL     1      47.213   4.290  15.178  0.00  0.00    +0.000 C 
BRANCH   7   8
ATOM      8  N   UNL     1      47.808   2.963  15.276  0.00  0.00    +0.000 NA
ATOM      9  H   UNL     1      47.144   2.265  14.943  0.00  0.00    +0.000 HD
ATOM     10  H   UNL     1      47.983   2.738  16.255  0.00  0.00    +0.000 HD
ENDBRANCH   7   8
ENDBRANCH   1   7
BRANCH   4  11
ATOM     11  S   UNL     1      44.910   5.070   9.714  0.00  0.00    +0.000 S 
BRANCH  11  12
ATOM     12  C   UNL     1      44.533   3.344   9.291  0.00  0.00    +0.000 C 
BRANCH  12  13
ATOM     13  C   UNL     1      45.610   2.731   8.438  0.00  0.00    +0.000 A 
ATOM     14  C   UNL     1      45.836   1.353   8.428  0.00  0.00    +0.000 A 
ATOM     15  C   UNL     1      46.833   0.820   7.615  0.00  0.00    +0.000 A 
ATOM     16  C   UNL     1      47.580   1.690   6.839  0.00  0.00    +0.000 A 
ATOM     17  N   UNL     1      47.403   3.028   6.827  0.00  0.00    +0.000 NA
ATOM     18  C   UNL     1      46.429   3.518   7.632  0.00  0.00    +0.000 A 
ENDBRANCH  12  13
ENDBRANCH  11  12
ENDBRANCH   4  11
TORSDOF 5
ENDMDL
MODEL 4
REMARK VINA RESULT:    -5.688      2.020      2.638
REMARK INTER + INTRA:          -7.496
REMARK INTER:                  -7.241
REMARK INTRA:                  -0.255
REMARK UNBOUND:                -0.312
REMARK  Name = 
REMARK  5 active torsions:
REMARK  status: ('A' for Active; 'I' for Inactive)
REMARK    1  A    between atoms: N_1  and  C_2
REMARK    2  A    between atoms: C_2  and  C_3
REMARK    3  A    between atoms: C_6  and  S_7
REMARK    4  A    between atoms: S_7  and  C_8
REMARK    5  A    between atoms: C_8  and  C_9
REMARK                            x       y       z     vdW  Elec       q    Type
REMARK                         _______ _______ _______ _____ _____    ______ ____
ROOT
ATOM      1  C   UNL     1      46.291   2.633   7.662  0.00  0.00    +0.000 A 
ATOM      2  C   UNL     1      45.563   1.980   8.634  0.00  0.00    +0.000 A 
ATOM      3  N   UNL     1      44.820   2.606   9.569  0.00  0.00    +0.000 NA
ATOM      4  C   UNL     1      44.805   3.947   9.520  0.00  0.00    +0.000 A 
ATOM      5  N   UNL     1      45.499   4.684   8.637  0.00  0.00    +0.000 NA
ATOM      6  C   UNL     1      46.231   4.008   7.730  0.00  0.00    +0.000 A 
ENDROOT
BRANCH   1   7
ATOM      7  C   UNL     1      47.071   1.904   6.618  0.00  0.00    +0.000 C 
BRANCH   7   8
ATOM      8  N   UNL     1      47.229   0.495   6.962  0.00  0.00    +0.000 NA
ATOM      9  H   UNL     1      46.343   0.010   6.830  0.00  0.00    +0.000 HD
ATOM     10  H   UNL     1      47.451   0.409   7.954  0.00  0.00    +0.000 HD
ENDBRANCH   7   8
ENDBRANCH   1   7
BRANCH   4  11
ATOM     11  S   UNL     1      43.736   4.835  10.625  0.00  0.00    +0.000 S 
BRANCH  11  12
ATOM     12  C   UNL     1      44.926   5.264  11.928  0.00  0.00    +0.000 C 
BRANCH  12  13
ATOM     13  C   UNL     1      45.088   6.754  12.066  0.00  0.00    +0.000 A 
ATOM     14  C   UNL     1      45.999   7.307  12.969  0.00  0.00    +0.000 A 
ATOM     15  C   UNL     1      46.131   8.690  13.061  0.00  0.00    +0.000 A 
ATOM     16  C   UNL     1      45.339   9.479  12.244  0.00  0.00    +0.000 A 
ATOM     17  N   UNL     1      44.439   8.986  11.367  0.00  0.00    +0.000 NA
ATOM     18  C   UNL     1      44.329   7.637  11.304  0.00  0.00    +0.000 A 
ENDBRANCH  12  13
ENDBRANCH  11  12
ENDBRANCH   4  11
TORSDOF 5
ENDMDL
MODEL 5
REMARK VINA RESULT:    -5.184      1.756      6.403
REMARK INTER + INTRA:          -6.860
REMARK INTER:                  -6.588
REMARK INTRA:                  -0.272
REMARK UNBOUND:                -0.312
REMARK  Name = 
REMARK  5 active torsions:
REMARK  status: ('A' for Active; 'I' for Inactive)
REMARK    1  A    between atoms: N_1  and  C_2
REMARK    2  A    between atoms: C_2  and  C_3
REMARK    3  A    between atoms: C_6  and  S_7
REMARK    4  A    between atoms: S_7  and  C_8
REMARK    5  A    between atoms: C_8  and  C_9
REMARK                            x       y       z     vdW  Elec       q    Type
REMARK                         _______ _______ _______ _____ _____    ______ ____
ROOT
ATOM      1  C   UNL     1      48.131   6.139  14.890  0.00  0.00    +0.000 A 
ATOM      2  C   UNL     1      47.577   4.980  15.391  0.00  0.00    +0.000 A 
ATOM      3  N   UNL     1      46.566   4.310  14.801  0.00  0.00    +0.000 NA
ATOM      4  C   UNL     1      46.096   4.827  13.655  0.00  0.00    +0.000 A 
ATOM      5  N   UNL     1      46.539   5.964  13.094  0.00  0.00    +0.000 NA
ATOM      6  C   UNL     1      47.545   6.598  13.730  0.00  0.00    +0.000 A 
ENDROOT
BRANCH   1   7
ATOM      7  C   UNL     1      49.277   6.832  15.550  0.00  0.00    +0.000 C 
BRANCH   7   8
ATOM      8  N   UNL     1      50.400   6.989  14.634  0.00  0.00    +0.000 NA
ATOM      9  H   UNL     1      51.239   6.588  15.050  0.00  0.00    +0.000 HD
ATOM     10  H   UNL     1      50.599   7.981  14.504  0.00  0.00    +0.000 HD
ENDBRANCH   7   8
ENDBRANCH   1   7
BRANCH   4  11
ATOM     11  S   UNL     1      44.866   3.924  12.747  0.00  0.00    +0.000 S 
BRANCH  11  12
ATOM     12  C   UNL     1      44.721   4.987  11.282  0.00  0.00    +0.000 C 
BRANCH  12  13
ATOM     13  C   UNL     1      45.060   4.243  10.018  0.00  0.00    +0.000 A 
ATOM     14  C   UNL     1      44.779   2.882   9.877  0.00  0.00    +0.000 A 
ATOM     15  C   UNL     1      45.094   2.230   8.688  0.00  0.00    +0.000 A 
ATOM     16  C   UNL     1      45.690   2.964   7.676  0.00  0.00    +0.000 A 
ATOM     17  N   UNL     1      45.988   4.277   7.776  0.00  0.00    +0.000 NA
ATOM     18  C   UNL     1      45.674   4.883   8.946  0.00  0.00    +0.000 A 
ENDBRANCH  12  13
ENDBRANCH  11  12
ENDBRANCH   4  11
TORSDOF 5
ENDMDL
MODEL 6
REMARK VINA RESULT:    -5.101      3.929      5.948
REMARK INTER + INTRA:          -6.754
REMARK INTER:                  -6.512
REMARK INTRA:                  -0.242
REMARK UNBOUND:                -0.312
REMARK  Name = 
REMARK  5 active torsions:
REMARK  status: ('A' for Active; 'I' for Inactive)
REMARK    1  A    between atoms: N_1  and  C_2
REMARK    2  A    between atoms: C_2  and  C_3
REMARK    3  A    between atoms: C_6  and  S_7
REMARK    4  A    between atoms: S_7  and  C_8
REMARK    5  A    between atoms: C_8  and  C_9
REMARK                            x       y       z     vdW  Elec       q    Type
REMARK                         _______ _______ _______ _____ _____    ______ ____
ROOT
ATOM      1  C   UNL     1      44.801   3.847  12.036  0.00  0.00    +0.000 A 
ATOM      2  C   UNL     1      45.680   3.026  12.711  0.00  0.00    +0.000 A 
ATOM      3  N   UNL     1      46.565   3.461  13.631  0.00  0.00    +0.000 NA
ATOM      4  C   UNL     1      46.562   4.779  13.886  0.00  0.00    +0.000 A 
ATOM      5  N   UNL     1      45.771   5.672  13.267  0.00  0.00    +0.000 NA
ATOM      6  C   UNL     1      44.911   5.184  12.351  0.00  0.00    +0.000 A 
ENDROOT
BRANCH   1   7
ATOM      7  C   UNL     1      43.807   3.323  11.053  0.00  0.00    +0.000 C 
BRANCH   7   8
ATOM      8  N   UNL     1      43.040   2.217  11.613  0.00  0.00    +0.000 NA
ATOM      9  H   UNL     1      42.047   2.371  11.447  0.00  0.00    +0.000 HD
ATOM     10  H   UNL     1      43.156   2.200  12.627  0.00  0.00    +0.000 HD
ENDBRANCH   7   8
ENDBRANCH   1   7
BRANCH   4  11
ATOM     11  S   UNL     1      47.596   5.404  15.186  0.00  0.00    +0.000 S 
BRANCH  11  12
ATOM     12  C   UNL     1      47.457   4.038  16.375  0.00  0.00    +0.000 C 
BRANCH  12  13
ATOM     13  C   UNL     1      48.807   3.575  16.852  0.00  0.00    +0.000 A 
ATOM     14  C   UNL     1      49.231   2.257  16.671  0.00  0.00    +0.000 A 
ATOM     15  C   UNL     1      50.492   1.867  17.114  0.00  0.00    +0.000 A 
ATOM     16  C   UNL     1      51.290   2.814  17.734  0.00  0.00    +0.000 A 
ATOM     17  N   UNL     1      50.915   4.095  17.939  0.00  0.00    +0.000 NA
ATOM     18  C   UNL     1      49.681   4.443  17.501  0.00  0.00    +0.000 A 
ENDBRANCH  12  13
ENDBRANCH  11  12
ENDBRANCH   4  11
TORSDOF 5
ENDMDL
MODEL 7
REMARK VINA RESULT:    -5.049      3.176      7.533
REMARK INTER + INTRA:          -6.689
REMARK INTER:                  -6.484
REMARK INTRA:                  -0.205
REMARK UNBOUND:                -0.312
REMARK  Name = 
REMARK  5 active torsions:
REMARK  status: ('A' for Active; 'I' for Inactive)
REMARK    1  A    between atoms: N_1  and  C_2
REMARK    2  A    between atoms: C_2  and  C_3
REMARK    3  A    between atoms: C_6  and  S_7
REMARK    4  A    between atoms: S_7  and  C_8
REMARK    5  A    between atoms: C_8  and  C_9
REMARK                            x       y       z     vdW  Elec       q    Type
REMARK                         _______ _______ _______ _____ _____    ______ ____
ROOT
ATOM      1  C   UNL     1      48.253   4.566  17.564  0.00  0.00    +0.000 A 
ATOM      2  C   UNL     1      47.242   3.898  16.905  0.00  0.00    +0.000 A 
ATOM      3  N   UNL     1      46.859   4.166  15.639  0.00  0.00    +0.000 NA
ATOM      4  C   UNL     1      47.527   5.145  15.009  0.00  0.00    +0.000 A 
ATOM      5  N   UNL     1      48.507   5.878  15.563  0.00  0.00    +0.000 NA
ATOM      6  C   UNL     1      48.843   5.574  16.833  0.00  0.00    +0.000 A 
ENDROOT
BRANCH   1   7
ATOM      7  C   UNL     1      48.675   4.214  18.952  0.00  0.00    +0.000 C 
BRANCH   7   8
ATOM      8  N   UNL     1      48.280   2.854  19.297  0.00  0.00    +0.000 NA
ATOM      9  H   UNL     1      47.455   2.879  19.894  0.00  0.00    +0.000 HD
ATOM     10  H   UNL     1      49.015   2.416  19.852  0.00  0.00    +0.000 HD
ENDBRANCH   7   8
ENDBRANCH   1   7
BRANCH   4  11
ATOM     11  S   UNL     1      47.179   5.456  13.296  0.00  0.00    +0.000 S 
BRANCH  11  12
ATOM     12  C   UNL     1      45.507   4.757  13.189  0.00  0.00    +0.000 C 
BRANCH  12  13
ATOM     13  C   UNL     1      45.153   4.371  11.778  0.00  0.00    +0.000 A 
ATOM     14  C   UNL     1      44.487   3.176  11.494  0.00  0.00    +0.000 A 
ATOM     15  C   UNL     1      44.164   2.859  10.178  0.00  0.00    +0.000 A 
ATOM     16  C   UNL     1      44.526   3.749   9.181  0.00  0.00    +0.000 A 
ATOM     17  N   UNL     1      45.181   4.908   9.410  0.00  0.00    +0.000 NA
ATOM     18  C   UNL     1      45.485   5.187  10.700  0.00  0.00    +0.000 A 
ENDBRANCH  12  13
ENDBRANCH  11  12
ENDBRANCH   4  11
TORSDOF 5
ENDMDL
MODEL 8
REMARK VINA RESULT:    -4.696      3.509      4.851
REMARK INTER + INTRA:          -6.244
REMARK INTER:                  -5.938
REMARK INTRA:                  -0.306
REMARK UNBOUND:                -0.312
REMARK  Name = 
REMARK  5 active torsions:
REMARK  status: ('A' for Active; 'I' for Inactive)
REMARK    1  A    between atoms: N_1  and  C_2
REMARK    2  A    between atoms: C_2  and  C_3
REMARK    3  A    between atoms: C_6  and  S_7
REMARK    4  A    between atoms: S_7  and  C_8
REMARK    5  A    between atoms: C_8  and  C_9
REMARK                            x       y       z     vdW  Elec       q    Type
REMARK                         _______ _______ _______ _____ _____    ______ ____
ROOT
ATOM      1  C   UNL     1      44.281   4.288  11.599  0.00  0.00    +0.000 A 
ATOM      2  C   UNL     1      44.024   4.843  12.835  0.00  0.00    +0.000 A 
ATOM      3  N   UNL     1      44.422   6.077  13.207  0.00  0.00    +0.000 NA
ATOM      4  C   UNL     1      45.104   6.784  12.292  0.00  0.00    +0.000 A 
ATOM      5  N   UNL     1      45.436   6.331  11.071  0.00  0.00    +0.000 NA
ATOM      6  C   UNL     1      45.020   5.089  10.755  0.00  0.00    +0.000 A 
ENDROOT
BRANCH   1   7
ATOM      7  C   UNL     1      43.789   2.933  11.210  0.00  0.00    +0.000 C 
BRANCH   7   8
ATOM      8  N   UNL     1      43.504   2.116  12.383  0.00  0.00    +0.000 NA
ATOM      9  H   UNL     1      44.350   2.010  12.940  0.00  0.00    +0.000 HD
ATOM     10  H   UNL     1      43.243   1.175  12.089  0.00  0.00    +0.000 HD
ENDBRANCH   7   8
ENDBRANCH   1   7
BRANCH   4  11
ATOM     11  S   UNL     1      45.535   8.467  12.655  0.00  0.00    +0.000 S 
BRANCH  11  12
ATOM     12  C   UNL     1      47.346   8.344  12.593  0.00  0.00    +0.000 C 
BRANCH  12  13
ATOM     13  C   UNL     1      47.921   7.921  13.917  0.00  0.00    +0.000 A 
ATOM     14  C   UNL     1      48.169   8.847  14.933  0.00  0.00    +0.000 A 
ATOM     15  C   UNL     1      48.690   8.417  16.150  0.00  0.00    +0.000 A 
ATOM     16  C   UNL     1      48.954   7.067  16.310  0.00  0.00    +0.000 A 
ATOM     17  N   UNL     1      48.741   6.141  15.350  0.00  0.00    +0.000 NA
ATOM     18  C   UNL     1      48.238   6.590  14.176  0.00  0.00    +0.000 A 
ENDBRANCH  12  13
ENDBRANCH  11  12
ENDBRANCH   4  11
TORSDOF 5
ENDMDL
MODEL 9
REMARK VINA RESULT:    -4.658      4.949      7.818
REMARK INTER + INTRA:          -6.195
REMARK INTER:                  -5.921
REMARK INTRA:                  -0.274
REMARK UNBOUND:                -0.312
REMARK  Name = 
REMARK  5 active torsions:
REMARK  status: ('A' for Active; 'I' for Inactive)
REMARK    1  A    between atoms: N_1  and  C_2
REMARK    2  A    between atoms: C_2  and  C_3
REMARK    3  A    between atoms: C_6  and  S_7
REMARK    4  A    between atoms: S_7  and  C_8
REMARK    5  A    between atoms: C_8  and  C_9
REMARK                            x       y       z     vdW  Elec       q    Type
REMARK                         _______ _______ _______ _____ _____    ______ ____
ROOT
ATOM      1  C   UNL     1      48.612   4.575  18.115  0.00  0.00    +0.000 A 
ATOM      2  C   UNL     1      47.582   3.700  17.843  0.00  0.00    +0.000 A 
ATOM      3  N   UNL     1      46.957   3.615  16.651  0.00  0.00    +0.000 NA
ATOM      4  C   UNL     1      47.393   4.445  15.689  0.00  0.00    +0.000 A 
ATOM      5  N   UNL     1      48.366   5.356  15.853  0.00  0.00    +0.000 NA
ATOM      6  C   UNL     1      48.950   5.403  17.067  0.00  0.00    +0.000 A 
ENDROOT
BRANCH   1   7
ATOM      7  C   UNL     1      49.306   4.612  19.437  0.00  0.00    +0.000 C 
BRANCH   7   8
ATOM      8  N   UNL     1      48.569   3.857  20.443  0.00  0.00    +0.000 NA
ATOM      9  H   UNL     1      47.601   4.174  20.467  0.00  0.00    +0.000 HD
ATOM     10  H   UNL     1      48.951   4.057  21.367  0.00  0.00    +0.000 HD
ENDBRANCH   7   8
ENDBRANCH   1   7
BRANCH   4  11
ATOM     11  S   UNL     1      46.719   4.292  14.054  0.00  0.00    +0.000 S 
BRANCH  11  12
ATOM     12  C   UNL     1      47.598   5.650  13.229  0.00  0.00    +0.000 C 
BRANCH  12  13
ATOM     13  C   UNL     1      46.651   6.716  12.747  0.00  0.00    +0.000 A 
ATOM     14  C   UNL     1      45.671   6.441  11.791  0.00  0.00    +0.000 A 
ATOM     15  C   UNL     1      44.804   7.449  11.379  0.00  0.00    +0.000 A 
ATOM     16  C   UNL     1      44.950   8.708  11.936  0.00  0.00    +0.000 A 
ATOM     17  N   UNL     1      45.891   9.019  12.854  0.00  0.00    +0.000 NA
ATOM     18  C   UNL     1      46.723   8.019  13.232  0.00  0.00    +0.000 A 
ENDBRANCH  12  13
ENDBRANCH  11  12
ENDBRANCH   4  11
TORSDOF 5
ENDMDL
