MODEL 1
REMARK VINA RESULT:    -7.247      0.000      0.000
REMARK INTER + INTRA:         -10.011
REMARK INTER:                  -9.365
REMARK INTRA:                  -0.646
REMARK UNBOUND:                -0.646
REMARK  Name = 
REMARK  6 active torsions:
REMARK  status: ('A' for Active; 'I' for Inactive)
REMARK    1  A    between atoms: C_1  and  S_2
REMARK    2  A    between atoms: S_2  and  C_3
REMARK    3  A    between atoms: C_6  and  C_7
REMARK    4  A    between atoms: C_11  and  C_12
REMARK    5  A    between atoms: C_12  and  N_13
REMARK    6  A    between atoms: N_13  and  C_14
REMARK                            x       y       z     vdW  Elec       q    Type
REMARK                         _______ _______ _______ _____ _____    ______ ____
ROOT
ATOM      1  C   UNL     1      46.018   5.140  12.786  0.00  0.00    +0.000 A 
ATOM      2  N   UNL     1      46.394   6.358  13.247  0.00  0.00    +0.000 NA
ATOM      3  C   UNL     1      45.808   7.453  12.704  0.00  0.00    +0.000 A 
ATOM      4  C   UNL     1      44.836   7.398  11.719  0.00  0.00    +0.000 A 
ATOM      5  C   UNL     1      44.467   6.141  11.243  0.00  0.00    +0.000 A 
ATOM      6  C   UNL     1      45.071   4.979  11.760  0.00  0.00    +0.000 A 
ENDROOT
BRANCH   4   7
ATOM      7  C   UNL     1      44.258   8.663  11.219  0.00  0.00    +0.000 C 
ATOM      8  N   UNL     1      42.964   8.639  10.779  0.00  0.00    +0.000 N 
ATOM      9  O   UNL     1      44.904   9.702  11.224  0.00  0.00    +0.000 OA
ATOM     10  H   UNL     1      42.333   7.867  10.941  0.00  0.00    +0.000 HD
ATOM     11  H   UNL     1      42.558   9.527  10.511  0.00  0.00    +0.000 HD
ENDBRANCH   4   7
BRANCH   1  13
ATOM     12  C   UNL     1      47.152   4.401  15.223  0.00  0.00    +0.000 C 
ATOM     13  S   UNL     1      46.774   3.723  13.586  0.00  0.00    +0.000 S 
ENDBRANCH   1  13
BRANCH   6  14
ATOM     14  C   UNL     1      44.615   3.606  11.320  0.00  0.00    +0.000 C 
BRANCH  14  15
ATOM     15  N   UNL     1      44.126   3.591   9.935  0.00  0.00    +0.000 N 
ATOM     16  H   UNL     1      43.732   4.496   9.680  0.00  0.00    +0.000 HD
BRANCH  15  17
ATOM     17  C   UNL     1      45.060   3.185   8.957  0.00  0.00    +0.000 A 
ATOM     18  C   UNL     1      45.740   4.089   8.126  0.00  0.00    +0.000 A 
ATOM     19  C   UNL     1      46.686   3.648   7.197  0.00  0.00    +0.000 A 
ATOM     20  C   UNL     1      46.989   2.297   7.120  0.00  0.00    +0.000 A 
ATOM     21  F   UNL     1      47.893   1.873   6.227  0.00  0.00    +0.000 F 
ATOM     22  C   UNL     1      46.376   1.385   7.967  0.00  0.00    +0.000 A 
ATOM     23  C   UNL     1      45.429   1.834   8.896  0.00  0.00    +0.000 A 
ENDBRANCH  15  17
ENDBRANCH  14  15
ENDBRANCH   6  14
TORSDOF 5
ENDMDL
MODEL 2
REMARK VINA RESULT:    -7.196      0.118      1.083
REMARK INTER + INTRA:          -9.946
REMARK INTER:                  -9.314
REMARK INTRA:                  -0.631
REMARK UNBOUND:                -0.646
REMARK  Name = 
REMARK  6 active torsions:
REMARK  status: ('A' for Active; 'I' for Inactive)
REMARK    1  A    between atoms: C_1  and  S_2
REMARK    2  A    between atoms: S_2  and  C_3
REMARK    3  A    between atoms: C_6  and  C_7
REMARK    4  A    between atoms: C_11  and  C_12
REMARK    5  A    between atoms: C_12  and  N_13
REMARK    6  A    between atoms: N_13  and  C_14
REMARK                            x       y       z     vdW  Elec       q    Type
REMARK                         _______ _______ _______ _____ _____    ______ ____
ROOT
ATOM      1  C   UNL     1      46.055   5.215  12.787  0.00  0.00    +0.000 A 
ATOM      2  N   UNL     1      46.480   6.420  13.241  0.00  0.00    +0.000 NA
ATOM      3  C   UNL     1      45.908   7.533  12.721  0.00  0.00    +0.000 A 
ATOM      4  C   UNL     1      44.905   7.512  11.767  0.00  0.00    +0.000 A 
ATOM      5  C   UNL     1      44.485   6.268  11.298  0.00  0.00    +0.000 A 
ATOM      6  C   UNL     1      45.072   5.086  11.791  0.00  0.00    +0.000 A 
ENDROOT
BRANCH   4   7
ATOM      7  C   UNL     1      44.347   8.794  11.291  0.00  0.00    +0.000 C 
ATOM      8  N   UNL     1      43.077   8.786  10.788  0.00  0.00    +0.000 N 
ATOM      9  O   UNL     1      44.989   9.834  11.371  0.00  0.00    +0.000 OA
ATOM     10  H   UNL     1      42.441   8.007  10.887  0.00  0.00    +0.000 HD
ATOM     11  H   UNL     1      42.681   9.684  10.536  0.00  0.00    +0.000 HD
ENDBRANCH   4   7
BRANCH   1  13
ATOM     12  C   UNL     1      47.146   4.401  15.220  0.00  0.00    +0.000 C 
ATOM     13  S   UNL     1      46.795   3.774  13.558  0.00  0.00    +0.000 S 
ENDBRANCH   1  13
BRANCH   6  14
ATOM     14  C   UNL     1      44.562   3.729  11.361  0.00  0.00    +0.000 C 
BRANCH  14  15
ATOM     15  N   UNL     1      44.162   3.699   9.948  0.00  0.00    +0.000 N 
ATOM     16  H   UNL     1      43.827   4.613   9.647  0.00  0.00    +0.000 HD
BRANCH  15  17
ATOM     17  C   UNL     1      45.138   3.227   9.042  0.00  0.00    +0.000 A 
ATOM     18  C   UNL     1      45.448   1.868   8.892  0.00  0.00    +0.000 A 
ATOM     19  C   UNL     1      46.394   1.439   7.956  0.00  0.00    +0.000 A 
ATOM     20  C   UNL     1      47.009   2.370   7.133  0.00  0.00    +0.000 A 
ATOM     21  F   UNL     1      47.918   1.961   6.238  0.00  0.00    +0.000 F 
ATOM     22  C   UNL     1      46.681   3.715   7.217  0.00  0.00    +0.000 A 
ATOM     23  C   UNL     1      45.734   4.138   8.157  0.00  0.00    +0.000 A 
ENDBRANCH  15  17
ENDBRANCH  14  15
ENDBRANCH   6  14
TORSDOF 5
ENDMDL
MODEL 3
REMARK VINA RESULT:    -6.776      2.180      2.891
REMARK INTER + INTRA:          -9.403
REMARK INTER:                  -8.822
REMARK INTRA:                  -0.582
REMARK UNBOUND:                -0.646
REMARK  Name = 
REMARK  6 active torsions:
REMARK  status: ('A' for Active; 'I' for Inactive)
REMARK    1  A    between atoms: C_1  and  S_2
REMARK    2  A    between atoms: S_2  and  C_3
REMARK    3  A    between atoms: C_6  and  C_7
REMARK    4  A    between atoms: C_11  and  C_12
REMARK    5  A    between atoms: C_12  and  N_13
REMARK    6  A    between atoms: N_13  and  C_14
REMARK                            x       y       z     vdW  Elec       q    Type
REMARK                         _______ _______ _______ _____ _____    ______ ____
ROOT
ATOM      1  C   UNL     1      44.897   5.253  12.514  0.00  0.00    +0.000 A 
ATOM      2  N   UNL     1      45.600   5.589  13.624  0.00  0.00    +0.000 NA
ATOM      3  C   UNL     1      46.776   6.241  13.459  0.00  0.00    +0.000 A 
ATOM      4  C   UNL     1      47.293   6.599  12.225  0.00  0.00    +0.000 A 
ATOM      5  C   UNL     1      46.569   6.238  11.090  0.00  0.00    +0.000 A 
ATOM      6  C   UNL     1      45.355   5.534  11.215  0.00  0.00    +0.000 A 
ENDROOT
BRANCH   4   7
ATOM      7  C   UNL     1      48.579   7.326  12.176  0.00  0.00    +0.000 C 
ATOM      8  N   UNL     1      49.556   6.947  13.053  0.00  0.00    +0.000 N 
ATOM      9  O   UNL     1      48.773   8.218  11.360  0.00  0.00    +0.000 OA
ATOM     10  H   UNL     1      49.519   6.098  13.598  0.00  0.00    +0.000 HD
ATOM     11  H   UNL     1      50.455   7.403  12.957  0.00  0.00    +0.000 HD
ENDBRANCH   4   7
BRANCH   1  13
ATOM     12  C   UNL     1      43.705   2.738  12.359  0.00  0.00    +0.000 C 
ATOM     13  S   UNL     1      43.315   4.453  12.791  0.00  0.00    +0.000 S 
ENDBRANCH   1  13
BRANCH   6  14
ATOM     14  C   UNL     1      44.513   5.218  10.000  0.00  0.00    +0.000 C 
BRANCH  14  15
ATOM     15  N   UNL     1      45.305   5.170   8.763  0.00  0.00    +0.000 N 
ATOM     16  H   UNL     1      46.110   5.790   8.824  0.00  0.00    +0.000 HD
BRANCH  15  17
ATOM     17  C   UNL     1      45.723   3.885   8.351  0.00  0.00    +0.000 A 
ATOM     18  C   UNL     1      46.753   3.677   7.421  0.00  0.00    +0.000 A 
ATOM     19  C   UNL     1      47.161   2.388   7.069  0.00  0.00    +0.000 A 
ATOM     20  C   UNL     1      46.566   1.294   7.677  0.00  0.00    +0.000 A 
ATOM     21  F   UNL     1      46.954   0.057   7.338  0.00  0.00    +0.000 F 
ATOM     22  C   UNL     1      45.585   1.467   8.642  0.00  0.00    +0.000 A 
ATOM     23  C   UNL     1      45.179   2.761   8.990  0.00  0.00    +0.000 A 
ENDBRANCH  15  17
ENDBRANCH  14  15
ENDBRANCH   6  14
TORSDOF 5
ENDMDL
MODEL 4
REMARK VINA RESULT:    -6.708      2.548      3.814
REMARK INTER + INTRA:          -9.315
REMARK INTER:                  -8.947
REMARK INTRA:                  -0.368
REMARK UNBOUND:                -0.646
REMARK  Name = 
REMARK  6 active torsions:
REMARK  status: ('A' for Active; 'I' for Inactive)
REMARK    1  A    between atoms: C_1  and  S_2
REMARK    2  A    between atoms: S_2  and  C_3
REMARK    3  A    between atoms: C_6  and  C_7
REMARK    4  A    between atoms: C_11  and  C_12
REMARK    5  A    between atoms: C_12  and  N_13
REMARK    6  A    between atoms: N_13  and  C_14
REMARK                            x       y       z     vdW  Elec       q    Type
REMARK                         _______ _______ _______ _____ _____    ______ ____
ROOT
ATOM      1  C   UNL     1      45.064   6.679  12.242  0.00  0.00    +0.000 A 
ATOM      2  N   UNL     1      46.112   7.049  13.018  0.00  0.00    +0.000 NA
ATOM      3  C   UNL     1      46.701   6.102  13.788  0.00  0.00    +0.000 A 
ATOM      4  C   UNL     1      46.306   4.775  13.814  0.00  0.00    +0.000 A 
ATOM      5  C   UNL     1      45.219   4.408  13.022  0.00  0.00    +0.000 A 
ATOM      6  C   UNL     1      44.560   5.367  12.228  0.00  0.00    +0.000 A 
ENDROOT
BRANCH   4   7
ATOM      7  C   UNL     1      47.040   3.831  14.681  0.00  0.00    +0.000 C 
ATOM      8  N   UNL     1      47.000   4.046  16.031  0.00  0.00    +0.000 N 
ATOM      9  O   UNL     1      47.639   2.872  14.212  0.00  0.00    +0.000 OA
ATOM     10  H   UNL     1      46.363   4.692  16.475  0.00  0.00    +0.000 HD
ATOM     11  H   UNL     1      47.444   3.349  16.616  0.00  0.00    +0.000 HD
ENDBRANCH   4   7
BRANCH   1  13
ATOM     12  C   UNL     1      45.101   9.447  11.912  0.00  0.00    +0.000 C 
ATOM     13  S   UNL     1      44.366   7.956  11.192  0.00  0.00    +0.000 S 
ENDBRANCH   1  13
BRANCH   6  14
ATOM     14  C   UNL     1      43.441   4.965  11.294  0.00  0.00    +0.000 C 
BRANCH  14  15
ATOM     15  N   UNL     1      43.785   5.170   9.881  0.00  0.00    +0.000 N 
ATOM     16  H   UNL     1      44.284   6.049   9.753  0.00  0.00    +0.000 HD
BRANCH  15  17
ATOM     17  C   UNL     1      44.503   4.121   9.264  0.00  0.00    +0.000 A 
ATOM     18  C   UNL     1      45.550   4.341   8.357  0.00  0.00    +0.000 A 
ATOM     19  C   UNL     1      46.260   3.275   7.798  0.00  0.00    +0.000 A 
ATOM     20  C   UNL     1      45.952   1.977   8.176  0.00  0.00    +0.000 A 
ATOM     21  F   UNL     1      46.630   0.954   7.639  0.00  0.00    +0.000 F 
ATOM     22  C   UNL     1      44.961   1.730   9.114  0.00  0.00    +0.000 A 
ATOM     23  C   UNL     1      44.253   2.802   9.670  0.00  0.00    +0.000 A 
ENDBRANCH  15  17
ENDBRANCH  14  15
ENDBRANCH   6  14
TORSDOF 5
ENDMDL
MODEL 5
REMARK VINA RESULT:    -6.131      4.384      7.424
REMARK INTER + INTRA:          -8.570
REMARK INTER:                  -8.135
REMARK INTRA:                  -0.435
REMARK UNBOUND:                -0.646
REMARK  Name = 
REMARK  6 active torsions:
REMARK  status: ('A' for Active; 'I' for Inactive)
REMARK    1  A    between atoms: C_1  and  S_2
REMARK    2  A    between atoms: S_2  and  C_3
REMARK    3  A    between atoms: C_6  and  C_7
REMARK    4  A    between atoms: C_11  and  C_12
REMARK    5  A    between atoms: C_12  and  N_13
REMARK    6  A    between atoms: N_13  and  C_14
REMARK                            x       y       z     vdW  Elec       q    Type
REMARK                         _______ _______ _______ _____ _____    ______ ____
ROOT
ATOM      1  C   UNL     1      45.859   6.370  12.360  0.00  0.00    +0.000 A 
ATOM      2  N   UNL     1      44.966   6.408  11.341  0.00  0.00    +0.000 NA
ATOM      3  C   UNL     1      44.412   5.239  10.937  0.00  0.00    +0.000 A 
ATOM      4  C   UNL     1      44.691   4.012  11.516  0.00  0.00    +0.000 A 
ATOM      5  C   UNL     1      45.621   3.984  12.554  0.00  0.00    +0.000 A 
ATOM      6  C   UNL     1      46.242   5.172  12.986  0.00  0.00    +0.000 A 
ENDROOT
BRANCH   4   7
ATOM      7  C   UNL     1      44.008   2.809  10.999  0.00  0.00    +0.000 C 
ATOM      8  N   UNL     1      44.529   2.211   9.886  0.00  0.00    +0.000 N 
ATOM      9  O   UNL     1      43.025   2.346  11.563  0.00  0.00    +0.000 OA
ATOM     10  H   UNL     1      45.441   2.430   9.509  0.00  0.00    +0.000 HD
ATOM     11  H   UNL     1      44.095   1.346   9.588  0.00  0.00    +0.000 HD
ENDBRANCH   4   7
BRANCH   1  13
ATOM     12  C   UNL     1      45.292   9.095  12.200  0.00  0.00    +0.000 C 
ATOM     13  S   UNL     1      46.510   7.953  12.900  0.00  0.00    +0.000 S 
ENDBRANCH   1  13
BRANCH   6  14
ATOM     14  C   UNL     1      47.181   5.170  14.171  0.00  0.00    +0.000 C 
BRANCH  14  15
ATOM     15  N   UNL     1      46.757   4.236  15.224  0.00  0.00    +0.000 N 
ATOM     16  H   UNL     1      46.713   3.283  14.868  0.00  0.00    +0.000 HD
BRANCH  15  17
ATOM     17  C   UNL     1      47.517   4.266  16.414  0.00  0.00    +0.000 A 
ATOM     18  C   UNL     1      47.526   3.214  17.343  0.00  0.00    +0.000 A 
ATOM     19  C   UNL     1      48.322   3.266  18.491  0.00  0.00    +0.000 A 
ATOM     20  C   UNL     1      49.149   4.359  18.697  0.00  0.00    +0.000 A 
ATOM     21  F   UNL     1      49.911   4.413  19.798  0.00  0.00    +0.000 F 
ATOM     22  C   UNL     1      49.207   5.389  17.769  0.00  0.00    +0.000 A 
ATOM     23  C   UNL     1      48.406   5.330  16.622  0.00  0.00    +0.000 A 
ENDBRANCH  15  17
ENDBRANCH  14  15
ENDBRANCH   6  14
TORSDOF 5
ENDMDL
MODEL 6
REMARK VINA RESULT:    -6.052      2.701      3.531
REMARK INTER + INTRA:          -8.467
REMARK INTER:                  -7.849
REMARK INTRA:                  -0.618
REMARK UNBOUND:                -0.646
REMARK  Name = 
REMARK  6 active torsions:
REMARK  status: ('A' for Active; 'I' for Inactive)
REMARK    1  A    between atoms: C_1  and  S_2
REMARK    2  A    between atoms: S_2  and  C_3
REMARK    3  A    between atoms: C_6  and  C_7
REMARK    4  A    between atoms: C_11  and  C_12
REMARK    5  A    between atoms: C_12  and  N_13
REMARK    6  A    between atoms: N_13  and  C_14
REMARK                            x       y       z     vdW  Elec       q    Type
REMARK                         _______ _______ _______ _____ _____    ______ ____
ROOT
ATOM      1  C   UNL     1      47.338   5.933  13.226  0.00  0.00    +0.000 A 
ATOM      2  N   UNL     1      48.586   6.155  13.707  0.00  0.00    +0.000 NA
ATOM      3  C   UNL     1      49.249   7.253  13.271  0.00  0.00    +0.000 A 
ATOM      4  C   UNL     1      48.721   8.171  12.379  0.00  0.00    +0.000 A 
ATOM      5  C   UNL     1      47.442   7.926  11.881  0.00  0.00    +0.000 A 
ATOM      6  C   UNL     1      46.728   6.781  12.285  0.00  0.00    +0.000 A 
ENDROOT
BRANCH   4   7
ATOM      7  C   UNL     1      49.536   9.341  11.994  0.00  0.00    +0.000 C 
ATOM      8  N   UNL     1      49.164  10.562  12.482  0.00  0.00    +0.000 N 
ATOM      9  O   UNL     1      50.528   9.219  11.286  0.00  0.00    +0.000 OA
ATOM     10  H   UNL     1      48.487  10.686  13.222  0.00  0.00    +0.000 HD
ATOM     11  H   UNL     1      49.775  11.342  12.271  0.00  0.00    +0.000 HD
ENDBRANCH   4   7
BRANCH   1  13
ATOM     12  C   UNL     1      47.235   4.360  15.525  0.00  0.00    +0.000 C 
ATOM     13  S   UNL     1      46.478   4.503  13.886  0.00  0.00    +0.000 S 
ENDBRANCH   1  13
BRANCH   6  14
ATOM     14  C   UNL     1      45.305   6.552  11.826  0.00  0.00    +0.000 C 
BRANCH  14  15
ATOM     15  N   UNL     1      45.216   6.271  10.387  0.00  0.00    +0.000 N 
ATOM     16  H   UNL     1      46.011   6.670   9.890  0.00  0.00    +0.000 HD
BRANCH  15  17
ATOM     17  C   UNL     1      45.065   4.912  10.033  0.00  0.00    +0.000 A 
ATOM     18  C   UNL     1      44.342   3.995  10.811  0.00  0.00    +0.000 A 
ATOM     19  C   UNL     1      44.184   2.667  10.405  0.00  0.00    +0.000 A 
ATOM     20  C   UNL     1      44.718   2.256   9.193  0.00  0.00    +0.000 A 
ATOM     21  F   UNL     1      44.570   0.982   8.805  0.00  0.00    +0.000 F 
ATOM     22  C   UNL     1      45.388   3.153   8.375  0.00  0.00    +0.000 A 
ATOM     23  C   UNL     1      45.543   4.482   8.787  0.00  0.00    +0.000 A 
ENDBRANCH  15  17
ENDBRANCH  14  15
ENDBRANCH   6  14
TORSDOF 5
ENDMDL
MODEL 7
REMARK VINA RESULT:    -5.993      3.944      6.698
REMARK INTER + INTRA:          -8.391
REMARK INTER:                  -8.091
REMARK INTRA:                  -0.300
REMARK UNBOUND:                -0.646
REMARK  Name = 
REMARK  6 active torsions:
REMARK  status: ('A' for Active; 'I' for Inactive)
REMARK    1  A    between atoms: C_1  and  S_2
REMARK    2  A    between atoms: S_2  and  C_3
REMARK    3  A    between atoms: C_6  and  C_7
REMARK    4  A    between atoms: C_11  and  C_12
REMARK    5  A    between atoms: C_12  and  N_13
REMARK    6  A    between atoms: N_13  and  C_14
REMARK                            x       y       z     vdW  Elec       q    Type
REMARK                         _______ _______ _______ _____ _____    ______ ____
ROOT
ATOM      1  C   UNL     1      44.586   3.206   9.798  0.00  0.00    +0.000 A 
ATOM      2  N   UNL     1      44.676   1.957   9.278  0.00  0.00    +0.000 NA
ATOM      3  C   UNL     1      45.530   1.757   8.246  0.00  0.00    +0.000 A 
ATOM      4  C   UNL     1      46.329   2.749   7.703  0.00  0.00    +0.000 A 
ATOM      5  C   UNL     1      46.220   4.032   8.236  0.00  0.00    +0.000 A 
ATOM      6  C   UNL     1      45.323   4.290   9.292  0.00  0.00    +0.000 A 
ENDROOT
BRANCH   4   7
ATOM      7  C   UNL     1      47.236   2.402   6.589  0.00  0.00    +0.000 C 
ATOM      8  N   UNL     1      47.199   3.189   5.472  0.00  0.00    +0.000 N 
ATOM      9  O   UNL     1      48.014   1.461   6.673  0.00  0.00    +0.000 OA
ATOM     10  H   UNL     1      46.729   4.084   5.433  0.00  0.00    +0.000 HD
ATOM     11  H   UNL     1      47.877   2.985   4.749  0.00  0.00    +0.000 HD
ENDBRANCH   4   7
BRANCH   1  13
ATOM     12  C   UNL     1      44.627   3.084  12.583  0.00  0.00    +0.000 C 
ATOM     13  S   UNL     1      43.492   3.400  11.207  0.00  0.00    +0.000 S 
ENDBRANCH   1  13
BRANCH   6  14
ATOM     14  C   UNL     1      45.262   5.654   9.942  0.00  0.00    +0.000 C 
BRANCH  14  15
ATOM     15  N   UNL     1      46.111   5.746  11.138  0.00  0.00    +0.000 N 
ATOM     16  H   UNL     1      46.958   5.191  11.025  0.00  0.00    +0.000 HD
BRANCH  15  17
ATOM     17  C   UNL     1      46.450   7.054  11.552  0.00  0.00    +0.000 A 
ATOM     18  C   UNL     1      45.503   7.980  12.012  0.00  0.00    +0.000 A 
ATOM     19  C   UNL     1      45.885   9.252  12.449  0.00  0.00    +0.000 A 
ATOM     20  C   UNL     1      47.229   9.592  12.465  0.00  0.00    +0.000 A 
ATOM     21  F   UNL     1      47.596  10.811  12.880  0.00  0.00    +0.000 F 
ATOM     22  C   UNL     1      48.195   8.678  12.070  0.00  0.00    +0.000 A 
ATOM     23  C   UNL     1      47.805   7.406  11.633  0.00  0.00    +0.000 A 
ENDBRANCH  15  17
ENDBRANCH  14  15
ENDBRANCH   6  14
TORSDOF 5
ENDMDL
MODEL 8
REMARK VINA RESULT:    -5.955      3.746      6.499
REMARK INTER + INTRA:          -8.342
REMARK INTER:                  -8.019
REMARK INTRA:                  -0.323
REMARK UNBOUND:                -0.646
REMARK  Name = 
REMARK  6 active torsions:
REMARK  status: ('A' for Active; 'I' for Inactive)
REMARK    1  A    between atoms: C_1  and  S_2
REMARK    2  A    between atoms: S_2  and  C_3
REMARK    3  A    between atoms: C_6  and  C_7
REMARK    4  A    between atoms: C_11  and  C_12
REMARK    5  A    between atoms: C_12  and  N_13
REMARK    6  A    between atoms: N_13  and  C_14
REMARK                            x       y       z     vdW  Elec       q    Type
REMARK                         _______ _______ _______ _____ _____    ______ ____
ROOT
ATOM      1  C   UNL     1      44.226   4.008  10.717  0.00  0.00    +0.000 A 
ATOM      2  N   UNL     1      44.028   2.823  10.090  0.00  0.00    +0.000 NA
ATOM      3  C   UNL     1      44.713   2.586   8.945  0.00  0.00    +0.000 A 
ATOM      4  C   UNL     1      45.617   3.477   8.390  0.00  0.00    +0.000 A 
ATOM      5  C   UNL     1      45.803   4.698   9.036  0.00  0.00    +0.000 A 
ATOM      6  C   UNL     1      45.089   4.996  10.213  0.00  0.00    +0.000 A 
ENDROOT
BRANCH   4   7
ATOM      7  C   UNL     1      46.318   3.096   7.147  0.00  0.00    +0.000 C 
ATOM      8  N   UNL     1      46.787   1.816   7.049  0.00  0.00    +0.000 N 
ATOM      9  O   UNL     1      46.451   3.889   6.224  0.00  0.00    +0.000 OA
ATOM     10  H   UNL     1      46.529   1.075   7.687  0.00  0.00    +0.000 HD
ATOM     11  H   UNL     1      47.199   1.548   6.163  0.00  0.00    +0.000 HD
ENDBRANCH   4   7
BRANCH   1  13
ATOM     12  C   UNL     1      42.202   5.575  11.822  0.00  0.00    +0.000 C 
ATOM     13  S   UNL     1      43.345   4.242  12.263  0.00  0.00    +0.000 S 
ENDBRANCH   1  13
BRANCH   6  14
ATOM     14  C   UNL     1      45.350   6.276  10.975  0.00  0.00    +0.000 C 
BRANCH  14  15
ATOM     15  N   UNL     1      46.559   6.200  11.807  0.00  0.00    +0.000 N 
ATOM     16  H   UNL     1      47.161   5.436  11.503  0.00  0.00    +0.000 HD
BRANCH  15  17
ATOM     17  C   UNL     1      47.314   7.390  11.905  0.00  0.00    +0.000 A 
ATOM     18  C   UNL     1      48.682   7.455  11.603  0.00  0.00    +0.000 A 
ATOM     19  C   UNL     1      49.384   8.662  11.677  0.00  0.00    +0.000 A 
ATOM     20  C   UNL     1      48.708   9.824  12.016  0.00  0.00    +0.000 A 
ATOM     21  F   UNL     1      49.379  10.981  12.090  0.00  0.00    +0.000 F 
ATOM     22  C   UNL     1      47.343   9.803  12.264  0.00  0.00    +0.000 A 
ATOM     23  C   UNL     1      46.647   8.590  12.189  0.00  0.00    +0.000 A 
ENDBRANCH  15  17
ENDBRANCH  14  15
ENDBRANCH   6  14
TORSDOF 5
ENDMDL
MODEL 9
REMARK VINA RESULT:    -5.726      3.225      4.786
REMARK INTER + INTRA:          -8.046
REMARK INTER:                  -7.438
REMARK INTRA:                  -0.608
REMARK UNBOUND:                -0.646
REMARK  Name = 
REMARK  6 active torsions:
REMARK  status: ('A' for Active; 'I' for Inactive)
REMARK    1  A    between atoms: C_1  and  S_2
REMARK    2  A    between atoms: S_2  and  C_3
REMARK    3  A    between atoms: C_6  and  C_7
REMARK    4  A    between atoms: C_11  and  C_12
REMARK    5  A    between atoms: C_12  and  N_13
REMARK    6  A    between atoms: N_13  and  C_14
REMARK                            x       y       z     vdW  Elec       q    Type
REMARK                         _______ _______ _______ _____ _____    ______ ____
ROOT
ATOM      1  C   UNL     1      48.418   7.626  13.237  0.00  0.00    +0.000 A 
ATOM      2  N   UNL     1      48.985   7.566  14.467  0.00  0.00    +0.000 NA
ATOM      3  C   UNL     1      48.647   6.531  15.274  0.00  0.00    +0.000 A 
ATOM      4  C   UNL     1      47.771   5.523  14.908  0.00  0.00    +0.000 A 
ATOM      5  C   UNL     1      47.184   5.601  13.646  0.00  0.00    +0.000 A 
ATOM      6  C   UNL     1      47.485   6.676  12.787  0.00  0.00    +0.000 A 
ENDROOT
BRANCH   4   7
ATOM      7  C   UNL     1      47.496   4.435  15.870  0.00  0.00    +0.000 C 
ATOM      8  N   UNL     1      47.157   4.787  17.147  0.00  0.00    +0.000 N 
ATOM      9  O   UNL     1      47.542   3.260  15.530  0.00  0.00    +0.000 OA
ATOM     10  H   UNL     1      46.910   5.728  17.420  0.00  0.00    +0.000 HD
ATOM     11  H   UNL     1      46.899   4.035  17.773  0.00  0.00    +0.000 HD
ENDBRANCH   4   7
BRANCH   1  13
ATOM     12  C   UNL     1      50.473   8.298  11.478  0.00  0.00    +0.000 C 
ATOM     13  S   UNL     1      48.951   8.978  12.185  0.00  0.00    +0.000 S 
ENDBRANCH   1  13
BRANCH   6  14
ATOM     14  C   UNL     1      46.930   6.725  11.382  0.00  0.00    +0.000 C 
BRANCH  14  15
ATOM     15  N   UNL     1      45.507   6.361  11.325  0.00  0.00    +0.000 N 
ATOM     16  H   UNL     1      44.957   7.111  10.911  0.00  0.00    +0.000 HD
BRANCH  15  17
ATOM     17  C   UNL     1      45.209   5.140  10.681  0.00  0.00    +0.000 A 
ATOM     18  C   UNL     1      44.462   4.118  11.285  0.00  0.00    +0.000 A 
ATOM     19  C   UNL     1      44.157   2.939  10.598  0.00  0.00    +0.000 A 
ATOM     20  C   UNL     1      44.567   2.793   9.281  0.00  0.00    +0.000 A 
ATOM     21  F   UNL     1      44.278   1.662   8.622  0.00  0.00    +0.000 F 
ATOM     22  C   UNL     1      45.258   3.808   8.637  0.00  0.00    +0.000 A 
ATOM     23  C   UNL     1      45.561   4.986   9.332  0.00  0.00    +0.000 A 
ENDBRANCH  15  17
ENDBRANCH  14  15
ENDBRANCH   6  14
TORSDOF 5
ENDMDL
