MODEL 1
REMARK VINA RESULT:    -7.537      0.000      0.000
REMARK INTER + INTRA:          -9.863
REMARK INTER:                  -9.300
REMARK INTRA:                  -0.563
REMARK UNBOUND:                -0.563
REMARK  Name = 
REMARK  4 active torsions:
REMARK  status: ('A' for Active; 'I' for Inactive)
REMARK    1  A    between atoms: C_2  and  C_5
REMARK    2  A    between atoms: C_7  and  N_8
REMARK    3  A    between atoms: N_8  and  C_9
REMARK    4  A    between atoms: C_9  and  C_10
REMARK                            x       y       z     vdW  Elec       q    Type
REMARK                         _______ _______ _______ _____ _____    ______ ____
ROOT
ATOM      1  C   UNL     1      44.541   5.066  12.099  0.00  0.00    +0.000 A 
ATOM      2  C   UNL     1      44.569   4.910  10.716  0.00  0.00    +0.000 A 
ATOM      3  C   UNL     1      45.622   5.447   9.991  0.00  0.00    +0.000 A 
ATOM      4  N   UNL     1      46.600   6.154  10.596  0.00  0.00    +0.000 NA
ATOM      5  C   UNL     1      46.579   6.367  11.935  0.00  0.00    +0.000 A 
ATOM      6  N   UNL     1      47.597   7.094  12.517  0.00  0.00    +0.000 N 
ATOM      7  C   UNL     1      47.445   7.837  13.775  0.00  0.00    +0.000 C 
ATOM      8  C   UNL     1      47.738   9.343  13.573  0.00  0.00    +0.000 C 
ATOM      9  N   UNL     1      49.031   9.617  12.914  0.00  0.00    +0.000 NA
ATOM     10  C   UNL     1      49.052   8.901  11.619  0.00  0.00    +0.000 C 
ATOM     11  C   UNL     1      48.818   7.381  11.752  0.00  0.00    +0.000 C 
ATOM     12  C   UNL     1      45.562   5.807  12.702  0.00  0.00    +0.000 A 
ATOM     13  H   UNL     1      49.773   9.231  13.499  0.00  0.00    +0.000 HD
ENDROOT
BRANCH   1  15
ATOM     14  F   UNL     1      42.396   5.211  13.161  0.00  0.00    +0.000 F 
ATOM     15  C   UNL     1      43.483   4.420  12.945  0.00  0.00    +0.000 C 
ATOM     16  F   UNL     1      43.943   4.072  14.178  0.00  0.00    +0.000 F 
ATOM     17  F   UNL     1      43.004   3.272  12.390  0.00  0.00    +0.000 F 
ENDBRANCH   1  15
BRANCH   3  18
ATOM     18  N   UNL     1      45.680   5.148   8.629  0.00  0.00    +0.000 N 
ATOM     19  H   UNL     1      46.593   5.324   8.226  0.00  0.00    +0.000 HD
BRANCH  18  20
ATOM     20  C   UNL     1      45.023   3.947   8.144  0.00  0.00    +0.000 C 
BRANCH  20  21
ATOM     21  C   UNL     1      45.991   2.973   7.515  0.00  0.00    +0.000 A 
ATOM     22  C   UNL     1      46.747   3.332   6.398  0.00  0.00    +0.000 A 
ATOM     23  C   UNL     1      47.676   2.428   5.906  0.00  0.00    +0.000 A 
ATOM     24  N   UNL     1      47.896   1.207   6.439  0.00  0.00    +0.000 NA
ATOM     25  C   UNL     1      47.150   0.873   7.513  0.00  0.00    +0.000 A 
ATOM     26  C   UNL     1      46.198   1.706   8.076  0.00  0.00    +0.000 A 
ENDBRANCH  20  21
ENDBRANCH  18  20
ENDBRANCH   3  18
TORSDOF 4
ENDMDL
MODEL 2
REMARK VINA RESULT:    -7.166      3.977      5.088
REMARK INTER + INTRA:          -9.405
REMARK INTER:                  -8.880
REMARK INTRA:                  -0.525
REMARK UNBOUND:                -0.563
REMARK  Name = 
REMARK  4 active torsions:
REMARK  status: ('A' for Active; 'I' for Inactive)
REMARK    1  A    between atoms: C_2  and  C_5
REMARK    2  A    between atoms: C_7  and  N_8
REMARK    3  A    between atoms: N_8  and  C_9
REMARK    4  A    between atoms: C_9  and  C_10
REMARK                            x       y       z     vdW  Elec       q    Type
REMARK                         _______ _______ _______ _____ _____    ______ ____
ROOT
ATOM      1  C   UNL     1      47.605   6.512  13.143  0.00  0.00    +0.000 A 
ATOM      2  C   UNL     1      46.671   5.635  12.598  0.00  0.00    +0.000 A 
ATOM      3  C   UNL     1      46.164   4.608  13.380  0.00  0.00    +0.000 A 
ATOM      4  N   UNL     1      46.589   4.417  14.648  0.00  0.00    +0.000 NA
ATOM      5  C   UNL     1      47.533   5.222  15.193  0.00  0.00    +0.000 A 
ATOM      6  N   UNL     1      47.942   4.996  16.492  0.00  0.00    +0.000 N 
ATOM      7  C   UNL     1      49.258   5.394  17.009  0.00  0.00    +0.000 C 
ATOM      8  C   UNL     1      50.047   4.170  17.529  0.00  0.00    +0.000 C 
ATOM      9  N   UNL     1      49.297   3.340  18.492  0.00  0.00    +0.000 NA
ATOM     10  C   UNL     1      48.033   2.914  17.850  0.00  0.00    +0.000 C 
ATOM     11  C   UNL     1      47.167   4.091  17.353  0.00  0.00    +0.000 C 
ATOM     12  C   UNL     1      48.035   6.290  14.455  0.00  0.00    +0.000 A 
ATOM     13  H   UNL     1      49.061   3.922  19.296  0.00  0.00    +0.000 HD
ENDROOT
BRANCH   1  15
ATOM     14  F   UNL     1      49.100   8.382  13.020  0.00  0.00    +0.000 F 
ATOM     15  C   UNL     1      48.111   7.700  12.379  0.00  0.00    +0.000 C 
ATOM     16  F   UNL     1      47.132   8.612  12.126  0.00  0.00    +0.000 F 
ATOM     17  F   UNL     1      48.622   7.357  11.164  0.00  0.00    +0.000 F 
ENDBRANCH   1  15
BRANCH   3  18
ATOM     18  N   UNL     1      45.131   3.841  12.838  0.00  0.00    +0.000 N 
ATOM     19  H   UNL     1      44.603   3.339  13.543  0.00  0.00    +0.000 HD
BRANCH  18  20
ATOM     20  C   UNL     1      44.332   4.398  11.762  0.00  0.00    +0.000 C 
BRANCH  20  21
ATOM     21  C   UNL     1      44.723   3.850  10.410  0.00  0.00    +0.000 A 
ATOM     22  C   UNL     1      45.234   4.687   9.416  0.00  0.00    +0.000 A 
ATOM     23  C   UNL     1      45.648   4.123   8.220  0.00  0.00    +0.000 A 
ATOM     24  N   UNL     1      45.583   2.801   7.947  0.00  0.00    +0.000 NA
ATOM     25  C   UNL     1      45.078   2.008   8.915  0.00  0.00    +0.000 A 
ATOM     26  C   UNL     1      44.638   2.478  10.141  0.00  0.00    +0.000 A 
ENDBRANCH  20  21
ENDBRANCH  18  20
ENDBRANCH   3  18
TORSDOF 4
ENDMDL
MODEL 3
REMARK VINA RESULT:    -6.871      4.915      7.905
REMARK INTER + INTRA:          -9.041
REMARK INTER:                  -8.444
REMARK INTRA:                  -0.597
REMARK UNBOUND:                -0.563
REMARK  Name = 
REMARK  4 active torsions:
REMARK  status: ('A' for Active; 'I' for Inactive)
REMARK    1  A    between atoms: C_2  and  C_5
REMARK    2  A    between atoms: C_7  and  N_8
REMARK    3  A    between atoms: N_8  and  C_9
REMARK    4  A    between atoms: C_9  and  C_10
REMARK                            x       y       z     vdW  Elec       q    Type
REMARK                         _______ _______ _______ _____ _____    ______ ____
ROOT
ATOM      1  C   UNL     1      47.907   6.369  14.053  0.00  0.00    +0.000 A 
ATOM      2  C   UNL     1      47.963   5.582  15.200  0.00  0.00    +0.000 A 
ATOM      3  C   UNL     1      47.221   4.412  15.260  0.00  0.00    +0.000 A 
ATOM      4  N   UNL     1      46.413   4.042  14.243  0.00  0.00    +0.000 NA
ATOM      5  C   UNL     1      46.298   4.810  13.132  0.00  0.00    +0.000 A 
ATOM      6  N   UNL     1      45.462   4.398  12.113  0.00  0.00    +0.000 N 
ATOM      7  C   UNL     1      44.839   5.320  11.154  0.00  0.00    +0.000 C 
ATOM      8  C   UNL     1      43.296   5.221  11.207  0.00  0.00    +0.000 C 
ATOM      9  N   UNL     1      42.780   3.844  11.075  0.00  0.00    +0.000 NA
ATOM     10  C   UNL     1      43.394   3.016  12.137  0.00  0.00    +0.000 C 
ATOM     11  C   UNL     1      44.937   3.025  12.110  0.00  0.00    +0.000 C 
ATOM     12  C   UNL     1      47.059   5.968  13.016  0.00  0.00    +0.000 A 
ATOM     13  H   UNL     1      43.084   3.476  10.174  0.00  0.00    +0.000 HD
ENDROOT
BRANCH   1  15
ATOM     14  F   UNL     1      48.725   8.125  12.639  0.00  0.00    +0.000 F 
ATOM     15  C   UNL     1      48.766   7.589  13.891  0.00  0.00    +0.000 C 
ATOM     16  F   UNL     1      50.079   7.340  14.149  0.00  0.00    +0.000 F 
ATOM     17  F   UNL     1      48.405   8.593  14.737  0.00  0.00    +0.000 F 
ENDBRANCH   1  15
BRANCH   3  18
ATOM     18  N   UNL     1      47.414   3.587  16.369  0.00  0.00    +0.000 N 
ATOM     19  H   UNL     1      47.584   2.620  16.116  0.00  0.00    +0.000 HD
BRANCH  18  20
ATOM     20  C   UNL     1      48.216   4.075  17.477  0.00  0.00    +0.000 C 
BRANCH  20  21
ATOM     21  C   UNL     1      49.591   3.452  17.513  0.00  0.00    +0.000 A 
ATOM     22  C   UNL     1      50.683   4.151  18.030  0.00  0.00    +0.000 A 
ATOM     23  C   UNL     1      51.908   3.506  18.110  0.00  0.00    +0.000 A 
ATOM     24  N   UNL     1      52.117   2.232  17.710  0.00  0.00    +0.000 NA
ATOM     25  C   UNL     1      51.053   1.575  17.205  0.00  0.00    +0.000 A 
ATOM     26  C   UNL     1      49.791   2.133  17.084  0.00  0.00    +0.000 A 
ENDBRANCH  20  21
ENDBRANCH  18  20
ENDBRANCH   3  18
TORSDOF 4
ENDMDL
MODEL 4
REMARK VINA RESULT:    -6.605      3.896      6.434
REMARK INTER + INTRA:          -8.713
REMARK INTER:                  -8.115
REMARK INTRA:                  -0.598
REMARK UNBOUND:                -0.563
REMARK  Name = 
REMARK  4 active torsions:
REMARK  status: ('A' for Active; 'I' for Inactive)
REMARK    1  A    between atoms: C_2  and  C_5
REMARK    2  A    between atoms: C_7  and  N_8
REMARK    3  A    between atoms: N_8  and  C_9
REMARK    4  A    between atoms: C_9  and  C_10
REMARK                            x       y       z     vdW  Elec       q    Type
REMARK                         _______ _______ _______ _____ _____    ______ ____
ROOT
ATOM      1  C   UNL     1      45.970   5.297  12.166  0.00  0.00    +0.000 A 
ATOM      2  C   UNL     1      46.068   4.343  13.174  0.00  0.00    +0.000 A 
ATOM      3  C   UNL     1      46.964   4.541  14.215  0.00  0.00    +0.000 A 
ATOM      4  N   UNL     1      47.772   5.622  14.247  0.00  0.00    +0.000 NA
ATOM      5  C   UNL     1      47.737   6.546  13.256  0.00  0.00    +0.000 A 
ATOM      6  N   UNL     1      48.578   7.638  13.325  0.00  0.00    +0.000 N 
ATOM      7  C   UNL     1      49.032   8.387  12.145  0.00  0.00    +0.000 C 
ATOM      8  C   UNL     1      50.575   8.374  12.035  0.00  0.00    +0.000 C 
ATOM      9  N   UNL     1      51.266   8.800  13.268  0.00  0.00    +0.000 NA
ATOM     10  C   UNL     1      50.813   7.932  14.377  0.00  0.00    +0.000 C 
ATOM     11  C   UNL     1      49.283   7.938  14.579  0.00  0.00    +0.000 C 
ATOM     12  C   UNL     1      46.822   6.405  12.218  0.00  0.00    +0.000 A 
ATOM     13  H   UNL     1      50.978   9.756  13.478  0.00  0.00    +0.000 HD
ENDROOT
BRANCH   1  15
ATOM     14  F   UNL     1      44.173   4.072  11.157  0.00  0.00    +0.000 F 
ATOM     15  C   UNL     1      44.949   5.187  11.072  0.00  0.00    +0.000 C 
ATOM     16  F   UNL     1      45.514   5.156   9.834  0.00  0.00    +0.000 F 
ATOM     17  F   UNL     1      44.086   6.241  11.060  0.00  0.00    +0.000 F 
ENDBRANCH   1  15
BRANCH   3  18
ATOM     18  N   UNL     1      46.929   3.629  15.271  0.00  0.00    +0.000 N 
ATOM     19  H   UNL     1      47.296   2.719  15.017  0.00  0.00    +0.000 HD
BRANCH  18  20
ATOM     20  C   UNL     1      47.294   4.081  16.602  0.00  0.00    +0.000 C 
BRANCH  20  21
ATOM     21  C   UNL     1      48.693   3.664  16.991  0.00  0.00    +0.000 A 
ATOM     22  C   UNL     1      49.114   2.340  16.845  0.00  0.00    +0.000 A 
ATOM     23  C   UNL     1      50.430   2.026  17.145  0.00  0.00    +0.000 A 
ATOM     24  N   UNL     1      51.341   2.924  17.579  0.00  0.00    +0.000 NA
ATOM     25  C   UNL     1      50.914   4.196  17.722  0.00  0.00    +0.000 A 
ATOM     26  C   UNL     1      49.620   4.608  17.449  0.00  0.00    +0.000 A 
ENDBRANCH  20  21
ENDBRANCH  18  20
ENDBRANCH   3  18
TORSDOF 4
ENDMDL
MODEL 5
REMARK VINA RESULT:    -6.250      4.613      8.562
REMARK INTER + INTRA:          -8.275
REMARK INTER:                  -7.631
REMARK INTRA:                  -0.644
REMARK UNBOUND:                -0.563
REMARK  Name = 
REMARK  4 active torsions:
REMARK  status: ('A' for Active; 'I' for Inactive)
REMARK    1  A    between atoms: C_2  and  C_5
REMARK    2  A    between atoms: C_7  and  N_8
REMARK    3  A    between atoms: N_8  and  C_9
REMARK    4  A    between atoms: C_9  and  C_10
REMARK                            x       y       z     vdW  Elec       q    Type
REMARK                         _______ _______ _______ _____ _____    ______ ____
ROOT
ATOM      1  C   UNL     1      47.871   6.772  13.751  0.00  0.00    +0.000 A 
ATOM      2  C   UNL     1      48.083   6.029  14.909  0.00  0.00    +0.000 A 
ATOM      3  C   UNL     1      47.444   4.807  15.062  0.00  0.00    +0.000 A 
ATOM      4  N   UNL     1      46.587   4.344  14.127  0.00  0.00    +0.000 NA
ATOM      5  C   UNL     1      46.320   5.065  13.010  0.00  0.00    +0.000 A 
ATOM      6  N   UNL     1      45.438   4.558  12.077  0.00  0.00    +0.000 N 
ATOM      7  C   UNL     1      44.666   5.397  11.151  0.00  0.00    +0.000 C 
ATOM      8  C   UNL     1      43.146   5.182  11.337  0.00  0.00    +0.000 C 
ATOM      9  N   UNL     1      42.732   3.766  11.285  0.00  0.00    +0.000 NA
ATOM     10  C   UNL     1      43.495   3.022  12.311  0.00  0.00    +0.000 C 
ATOM     11  C   UNL     1      45.026   3.149  12.153  0.00  0.00    +0.000 C 
ATOM     12  C   UNL     1      46.974   6.274  12.801  0.00  0.00    +0.000 A 
ATOM     13  H   UNL     1      42.989   3.394  10.370  0.00  0.00    +0.000 HD
ENDROOT
BRANCH   1  15
ATOM     14  F   UNL     1      47.984   9.157  13.963  0.00  0.00    +0.000 F 
ATOM     15  C   UNL     1      48.614   8.048  13.486  0.00  0.00    +0.000 C 
ATOM     16  F   UNL     1      48.808   8.271  12.157  0.00  0.00    +0.000 F 
ATOM     17  F   UNL     1      49.855   8.054  14.048  0.00  0.00    +0.000 F 
ENDBRANCH   1  15
BRANCH   3  18
ATOM     18  N   UNL     1      47.793   4.036  16.171  0.00  0.00    +0.000 N 
ATOM     19  H   UNL     1      48.796   3.968  16.304  0.00  0.00    +0.000 HD
BRANCH  18  20
ATOM     20  C   UNL     1      47.027   4.180  17.396  0.00  0.00    +0.000 C 
BRANCH  20  21
ATOM     21  C   UNL     1      47.771   4.960  18.455  0.00  0.00    +0.000 A 
ATOM     22  C   UNL     1      47.156   6.011  19.138  0.00  0.00    +0.000 A 
ATOM     23  C   UNL     1      47.857   6.644  20.152  0.00  0.00    +0.000 A 
ATOM     24  N   UNL     1      49.112   6.311  20.523  0.00  0.00    +0.000 NA
ATOM     25  C   UNL     1      49.694   5.299  19.847  0.00  0.00    +0.000 A 
ATOM     26  C   UNL     1      49.076   4.607  18.819  0.00  0.00    +0.000 A 
ENDBRANCH  20  21
ENDBRANCH  18  20
ENDBRANCH   3  18
TORSDOF 4
ENDMDL
MODEL 6
REMARK VINA RESULT:    -6.215      3.539      5.006
REMARK INTER + INTRA:          -8.231
REMARK INTER:                  -7.768
REMARK INTRA:                  -0.464
REMARK UNBOUND:                -0.563
REMARK  Name = 
REMARK  4 active torsions:
REMARK  status: ('A' for Active; 'I' for Inactive)
REMARK    1  A    between atoms: C_2  and  C_5
REMARK    2  A    between atoms: C_7  and  N_8
REMARK    3  A    between atoms: N_8  and  C_9
REMARK    4  A    between atoms: C_9  and  C_10
REMARK                            x       y       z     vdW  Elec       q    Type
REMARK                         _______ _______ _______ _____ _____    ______ ____
ROOT
ATOM      1  C   UNL     1      48.105   4.216  16.801  0.00  0.00    +0.000 A 
ATOM      2  C   UNL     1      47.277   3.702  15.806  0.00  0.00    +0.000 A 
ATOM      3  C   UNL     1      47.076   4.432  14.644  0.00  0.00    +0.000 A 
ATOM      4  N   UNL     1      47.633   5.650  14.476  0.00  0.00    +0.000 NA
ATOM      5  C   UNL     1      48.405   6.201  15.445  0.00  0.00    +0.000 A 
ATOM      6  N   UNL     1      48.958   7.448  15.236  0.00  0.00    +0.000 N 
ATOM      7  C   UNL     1      49.331   8.362  16.324  0.00  0.00    +0.000 C 
ATOM      8  C   UNL     1      48.569   9.704  16.211  0.00  0.00    +0.000 C 
ATOM      9  N   UNL     1      48.676  10.342  14.884  0.00  0.00    +0.000 NA
ATOM     10  C   UNL     1      48.195   9.380  13.867  0.00  0.00    +0.000 C 
ATOM     11  C   UNL     1      48.949   8.034  13.888  0.00  0.00    +0.000 C 
ATOM     12  C   UNL     1      48.665   5.482  16.607  0.00  0.00    +0.000 A 
ATOM     13  H   UNL     1      49.662  10.528  14.700  0.00  0.00    +0.000 HD
ENDROOT
BRANCH   1  15
ATOM     14  F   UNL     1      47.516   2.478  18.345  0.00  0.00    +0.000 F 
ATOM     15  C   UNL     1      48.441   3.428  18.032  0.00  0.00    +0.000 C 
ATOM     16  F   UNL     1      48.559   4.213  19.138  0.00  0.00    +0.000 F 
ATOM     17  F   UNL     1      49.627   2.768  17.918  0.00  0.00    +0.000 F 
ENDBRANCH   1  15
BRANCH   3  18
ATOM     18  N   UNL     1      46.353   3.818  13.620  0.00  0.00    +0.000 N 
ATOM     19  H   UNL     1      46.263   2.816  13.748  0.00  0.00    +0.000 HD
BRANCH  18  20
ATOM     20  C   UNL     1      45.162   4.474  13.108  0.00  0.00    +0.000 C 
BRANCH  20  21
ATOM     21  C   UNL     1      45.027   4.338  11.610  0.00  0.00    +0.000 A 
ATOM     22  C   UNL     1      45.527   5.319  10.752  0.00  0.00    +0.000 A 
ATOM     23  C   UNL     1      45.444   5.110   9.384  0.00  0.00    +0.000 A 
ATOM     24  N   UNL     1      44.900   4.009   8.821  0.00  0.00    +0.000 NA
ATOM     25  C   UNL     1      44.414   3.075   9.665  0.00  0.00    +0.000 A 
ATOM     26  C   UNL     1      44.450   3.194  11.044  0.00  0.00    +0.000 A 
ENDBRANCH  20  21
ENDBRANCH  18  20
ENDBRANCH   3  18
TORSDOF 4
ENDMDL
MODEL 7
REMARK VINA RESULT:    -5.925      4.489      6.530
REMARK INTER + INTRA:          -7.874
REMARK INTER:                  -7.392
REMARK INTRA:                  -0.482
REMARK UNBOUND:                -0.563
REMARK  Name = 
REMARK  4 active torsions:
REMARK  status: ('A' for Active; 'I' for Inactive)
REMARK    1  A    between atoms: C_2  and  C_5
REMARK    2  A    between atoms: C_7  and  N_8
REMARK    3  A    between atoms: N_8  and  C_9
REMARK    4  A    between atoms: C_9  and  C_10
REMARK                            x       y       z     vdW  Elec       q    Type
REMARK                         _______ _______ _______ _____ _____    ______ ____
ROOT
ATOM      1  C   UNL     1      49.316   8.169  14.432  0.00  0.00    +0.000 A 
ATOM      2  C   UNL     1      48.603   7.723  13.323  0.00  0.00    +0.000 A 
ATOM      3  C   UNL     1      47.906   6.526  13.397  0.00  0.00    +0.000 A 
ATOM      4  N   UNL     1      47.940   5.764  14.512  0.00  0.00    +0.000 NA
ATOM      5  C   UNL     1      48.664   6.145  15.592  0.00  0.00    +0.000 A 
ATOM      6  N   UNL     1      48.673   5.339  16.713  0.00  0.00    +0.000 N 
ATOM      7  C   UNL     1      49.769   5.324  17.692  0.00  0.00    +0.000 C 
ATOM      8  C   UNL     1      50.391   3.913  17.811  0.00  0.00    +0.000 C 
ATOM      9  N   UNL     1      49.404   2.843  18.060  0.00  0.00    +0.000 NA
ATOM     10  C   UNL     1      48.397   2.881  16.977  0.00  0.00    +0.000 C 
ATOM     11  C   UNL     1      47.695   4.249  16.836  0.00  0.00    +0.000 C 
ATOM     12  C   UNL     1      49.342   7.359  15.572  0.00  0.00    +0.000 A 
ATOM     13  H   UNL     1      48.929   3.049  18.940  0.00  0.00    +0.000 HD
ENDROOT
BRANCH   1  15
ATOM     14  F   UNL     1      49.832  10.218  13.299  0.00  0.00    +0.000 F 
ATOM     15  C   UNL     1      50.004   9.503  14.445  0.00  0.00    +0.000 C 
ATOM     16  F   UNL     1      51.349   9.394  14.619  0.00  0.00    +0.000 F 
ATOM     17  F   UNL     1      49.563  10.305  15.454  0.00  0.00    +0.000 F 
ENDBRANCH   1  15
BRANCH   3  18
ATOM     18  N   UNL     1      47.096   6.189  12.312  0.00  0.00    +0.000 N 
ATOM     19  H   UNL     1      47.402   5.346  11.840  0.00  0.00    +0.000 HD
BRANCH  18  20
ATOM     20  C   UNL     1      45.656   6.325  12.441  0.00  0.00    +0.000 C 
BRANCH  20  21
ATOM     21  C   UNL     1      44.915   5.096  11.969  0.00  0.00    +0.000 A 
ATOM     22  C   UNL     1      44.227   4.282  12.870  0.00  0.00    +0.000 A 
ATOM     23  C   UNL     1      43.500   3.210  12.376  0.00  0.00    +0.000 A 
ATOM     24  N   UNL     1      43.419   2.894  11.065  0.00  0.00    +0.000 NA
ATOM     25  C   UNL     1      44.098   3.686  10.209  0.00  0.00    +0.000 A 
ATOM     26  C   UNL     1      44.851   4.778  10.606  0.00  0.00    +0.000 A 
ENDBRANCH  20  21
ENDBRANCH  18  20
ENDBRANCH   3  18
TORSDOF 4
ENDMDL
MODEL 8
REMARK VINA RESULT:    -5.768      3.203      6.549
REMARK INTER + INTRA:          -7.680
REMARK INTER:                  -7.111
REMARK INTRA:                  -0.569
REMARK UNBOUND:                -0.563
REMARK  Name = 
REMARK  4 active torsions:
REMARK  status: ('A' for Active; 'I' for Inactive)
REMARK    1  A    between atoms: C_2  and  C_5
REMARK    2  A    between atoms: C_7  and  N_8
REMARK    3  A    between atoms: N_8  and  C_9
REMARK    4  A    between atoms: C_9  and  C_10
REMARK                            x       y       z     vdW  Elec       q    Type
REMARK                         _______ _______ _______ _____ _____    ______ ____
ROOT
ATOM      1  C   UNL     1      47.336   4.846  15.003  0.00  0.00    +0.000 A 
ATOM      2  C   UNL     1      47.944   6.060  14.695  0.00  0.00    +0.000 A 
ATOM      3  C   UNL     1      47.506   6.783  13.596  0.00  0.00    +0.000 A 
ATOM      4  N   UNL     1      46.527   6.312  12.793  0.00  0.00    +0.000 NA
ATOM      5  C   UNL     1      45.947   5.111  13.036  0.00  0.00    +0.000 A 
ATOM      6  N   UNL     1      44.950   4.663  12.193  0.00  0.00    +0.000 N 
ATOM      7  C   UNL     1      44.628   3.243  12.000  0.00  0.00    +0.000 C 
ATOM      8  C   UNL     1      44.786   2.832  10.517  0.00  0.00    +0.000 C 
ATOM      9  N   UNL     1      44.058   3.703   9.574  0.00  0.00    +0.000 NA
ATOM     10  C   UNL     1      44.514   5.095   9.782  0.00  0.00    +0.000 C 
ATOM     11  C   UNL     1      44.335   5.591  11.233  0.00  0.00    +0.000 C 
ATOM     12  C   UNL     1      46.330   4.377  14.153  0.00  0.00    +0.000 A 
ATOM     13  H   UNL     1      43.065   3.659   9.804  0.00  0.00    +0.000 HD
ENDROOT
BRANCH   1  15
ATOM     14  F   UNL     1      47.908   2.746  16.009  0.00  0.00    +0.000 F 
ATOM     15  C   UNL     1      47.698   4.072  16.236  0.00  0.00    +0.000 C 
ATOM     16  F   UNL     1      46.733   4.139  17.195  0.00  0.00    +0.000 F 
ATOM     17  F   UNL     1      48.837   4.534  16.824  0.00  0.00    +0.000 F 
ENDBRANCH   1  15
BRANCH   3  18
ATOM     18  N   UNL     1      48.049   8.054  13.407  0.00  0.00    +0.000 N 
ATOM     19  H   UNL     1      48.904   8.198  13.933  0.00  0.00    +0.000 HD
BRANCH  18  20
ATOM     20  C   UNL     1      48.053   8.626  12.073  0.00  0.00    +0.000 C 
BRANCH  20  21
ATOM     21  C   UNL     1      49.451   8.827  11.535  0.00  0.00    +0.000 A 
ATOM     22  C   UNL     1      49.940  10.107  11.266  0.00  0.00    +0.000 A 
ATOM     23  C   UNL     1      51.254  10.240  10.846  0.00  0.00    +0.000 A 
ATOM     24  N   UNL     1      52.100   9.202  10.671  0.00  0.00    +0.000 NA
ATOM     25  C   UNL     1      51.608   7.972  10.927  0.00  0.00    +0.000 A 
ATOM     26  C   UNL     1      50.310   7.736  11.349  0.00  0.00    +0.000 A 
ENDBRANCH  20  21
ENDBRANCH  18  20
ENDBRANCH   3  18
TORSDOF 4
ENDMDL
MODEL 9
REMARK VINA RESULT:    -5.696      3.591      5.931
REMARK INTER + INTRA:          -7.591
REMARK INTER:                  -7.012
REMARK INTRA:                  -0.579
REMARK UNBOUND:                -0.563
REMARK  Name = 
REMARK  4 active torsions:
REMARK  status: ('A' for Active; 'I' for Inactive)
REMARK    1  A    between atoms: C_2  and  C_5
REMARK    2  A    between atoms: C_7  and  N_8
REMARK    3  A    between atoms: N_8  and  C_9
REMARK    4  A    between atoms: C_9  and  C_10
REMARK                            x       y       z     vdW  Elec       q    Type
REMARK                         _______ _______ _______ _____ _____    ______ ____
ROOT
ATOM      1  C   UNL     1      45.212   4.609  12.282  0.00  0.00    +0.000 A 
ATOM      2  C   UNL     1      45.105   5.929  11.853  0.00  0.00    +0.000 A 
ATOM      3  C   UNL     1      45.878   6.908  12.459  0.00  0.00    +0.000 A 
ATOM      4  N   UNL     1      46.703   6.612  13.486  0.00  0.00    +0.000 NA
ATOM      5  C   UNL     1      46.795   5.346  13.962  0.00  0.00    +0.000 A 
ATOM      6  N   UNL     1      47.650   5.083  15.013  0.00  0.00    +0.000 N 
ATOM      7  C   UNL     1      47.467   3.962  15.946  0.00  0.00    +0.000 C 
ATOM      8  C   UNL     1      47.324   4.466  17.401  0.00  0.00    +0.000 C 
ATOM      9  N   UNL     1      48.404   5.377  17.828  0.00  0.00    +0.000 NA
ATOM     10  C   UNL     1      48.449   6.515  16.884  0.00  0.00    +0.000 C 
ATOM     11  C   UNL     1      48.645   6.088  15.413  0.00  0.00    +0.000 C 
ATOM     12  C   UNL     1      46.068   4.329  13.352  0.00  0.00    +0.000 A 
ATOM     13  H   UNL     1      49.289   4.874  17.758  0.00  0.00    +0.000 HD
ENDROOT
BRANCH   1  15
ATOM     14  F   UNL     1      45.265   2.743  10.778  0.00  0.00    +0.000 F 
ATOM     15  C   UNL     1      44.478   3.494  11.597  0.00  0.00    +0.000 C 
ATOM     16  F   UNL     1      43.453   3.944  10.822  0.00  0.00    +0.000 F 
ATOM     17  F   UNL     1      43.920   2.620  12.480  0.00  0.00    +0.000 F 
ENDBRANCH   1  15
BRANCH   3  18
ATOM     18  N   UNL     1      45.840   8.188  11.905  0.00  0.00    +0.000 N 
ATOM     19  H   UNL     1      44.941   8.411  11.492  0.00  0.00    +0.000 HD
BRANCH  18  20
ATOM     20  C   UNL     1      46.468   9.284  12.621  0.00  0.00    +0.000 C 
BRANCH  20  21
ATOM     21  C   UNL     1      47.729   9.768  11.945  0.00  0.00    +0.000 A 
ATOM     22  C   UNL     1      47.752  10.979  11.250  0.00  0.00    +0.000 A 
ATOM     23  C   UNL     1      48.953  11.414  10.712  0.00  0.00    +0.000 A 
ATOM     24  N   UNL     1      50.115  10.733  10.813  0.00  0.00    +0.000 NA
ATOM     25  C   UNL     1      50.073   9.561  11.480  0.00  0.00    +0.000 A 
ATOM     26  C   UNL     1      48.923   9.043  12.051  0.00  0.00    +0.000 A 
ENDBRANCH  20  21
ENDBRANCH  18  20
ENDBRANCH   3  18
TORSDOF 4
ENDMDL
