MODEL 1
REMARK VINA RESULT:    -6.889      0.000      0.000
REMARK INTER + INTRA:          -8.009
REMARK INTER:                  -7.695
REMARK INTRA:                  -0.314
REMARK UNBOUND:                -0.314
REMARK  Name = 
REMARK  4 active torsions:
REMARK  status: ('A' for Active; 'I' for Inactive)
REMARK    1  A    between atoms: C_1  and  C_2
REMARK    2  A    between atoms: C_9  and  C_10
REMARK    3  A    between atoms: C_13  and  C_14
REMARK    4  A    between atoms: C_21  and  C_22
REMARK                            x       y       z     vdW  Elec       q    Type
REMARK                         _______ _______ _______ _____ _____    ______ ____
ROOT
ATOM      1  C   UNL     1      48.550   7.971  19.257  0.00  0.00    +0.000 C 
ATOM      2  C   UNL     1      49.695   6.973  19.118  0.00  0.00    +0.000 C 
ATOM      3  C   UNL     1      50.356   6.986  17.723  0.00  0.00    +0.000 C 
ATOM      4  N   UNL     1      49.621   6.147  16.783  0.00  0.00    +0.000 N 
ATOM      5  C   UNL     1      49.016   6.670  15.672  0.00  0.00    +0.000 A 
ATOM      6  N   UNL     1      49.225   7.955  15.357  0.00  0.00    +0.000 NA
ATOM      7  C   UNL     1      48.637   8.434  14.248  0.00  0.00    +0.000 A 
ATOM      8  C   UNL     1      47.834   7.679  13.434  0.00  0.00    +0.000 A 
ATOM      9  C   UNL     1      47.649   6.368  13.818  0.00  0.00    +0.000 A 
ATOM     10  N   UNL     1      48.243   5.866  14.925  0.00  0.00    +0.000 NA
ATOM     11  C   UNL     1      49.332   4.796  17.247  0.00  0.00    +0.000 C 
ATOM     12  C   UNL     1      48.630   4.833  18.617  0.00  0.00    +0.000 C 
ATOM     13  C   UNL     1      47.143   5.172  18.524  0.00  0.00    +0.000 C 
ATOM     14  O   UNL     1      49.318   5.661  19.571  0.00  0.00    +0.000 OA
ENDROOT
BRANCH   9  15
ATOM     15  C   UNL     1      46.773   5.442  13.072  0.00  0.00    +0.000 A 
ATOM     16  C   UNL     1      46.500   4.143  13.512  0.00  0.00    +0.000 A 
ATOM     17  N   UNL     1      45.660   3.281  12.874  0.00  0.00    +0.000 NA
ATOM     18  C   UNL     1      45.089   3.781  11.744  0.00  0.00    +0.000 A 
ATOM     19  C   UNL     1      45.353   5.061  11.283  0.00  0.00    +0.000 A 
ATOM     20  N   UNL     1      46.197   5.912  11.928  0.00  0.00    +0.000 NA
BRANCH  18  21
ATOM     21  C   UNL     1      44.136   2.911  11.003  0.00  0.00    +0.000 C 
ATOM     22  N   UNL     1      44.630   2.310   9.879  0.00  0.00    +0.000 N 
ATOM     23  O   UNL     1      42.985   2.736  11.380  0.00  0.00    +0.000 OA
ATOM     24  H   UNL     1      45.592   2.466   9.599  0.00  0.00    +0.000 HD
ATOM     25  H   UNL     1      44.038   1.692   9.343  0.00  0.00    +0.000 HD
ENDBRANCH  18  21
ENDBRANCH   9  15
TORSDOF 2
ENDMDL
MODEL 2
REMARK VINA RESULT:    -6.514      1.980      7.331
REMARK INTER + INTRA:          -7.590
REMARK INTER:                  -7.273
REMARK INTRA:                  -0.317
REMARK UNBOUND:                -0.314
REMARK  Name = 
REMARK  4 active torsions:
REMARK  status: ('A' for Active; 'I' for Inactive)
REMARK    1  A    between atoms: C_1  and  C_2
REMARK    2  A    between atoms: C_9  and  C_10
REMARK    3  A    between atoms: C_13  and  C_14
REMARK    4  A    between atoms: C_21  and  C_22
REMARK                            x       y       z     vdW  Elec       q    Type
REMARK                         _______ _______ _______ _____ _____    ______ ____
ROOT
ATOM      1  C   UNL     1      45.013   3.937   9.397  0.00  0.00    +0.000 C 
ATOM      2  C   UNL     1      43.822   4.664  10.014  0.00  0.00    +0.000 C 
ATOM      3  C   UNL     1      44.204   5.986  10.715  0.00  0.00    +0.000 C 
ATOM      4  N   UNL     1      44.659   5.746  12.080  0.00  0.00    +0.000 N 
ATOM      5  C   UNL     1      45.935   6.043  12.476  0.00  0.00    +0.000 A 
ATOM      6  N   UNL     1      46.743   6.705  11.637  0.00  0.00    +0.000 NA
ATOM      7  C   UNL     1      47.982   7.003  12.062  0.00  0.00    +0.000 A 
ATOM      8  C   UNL     1      48.459   6.659  13.299  0.00  0.00    +0.000 A 
ATOM      9  C   UNL     1      47.584   5.970  14.112  0.00  0.00    +0.000 A 
ATOM     10  N   UNL     1      46.328   5.672  13.704  0.00  0.00    +0.000 NA
ATOM     11  C   UNL     1      43.777   4.921  12.896  0.00  0.00    +0.000 C 
ATOM     12  C   UNL     1      43.464   3.594  12.180  0.00  0.00    +0.000 C 
ATOM     13  C   UNL     1      44.595   2.572  12.280  0.00  0.00    +0.000 C 
ATOM     14  O   UNL     1      43.022   3.785  10.824  0.00  0.00    +0.000 OA
ENDROOT
BRANCH   9  15
ATOM     15  C   UNL     1      47.964   5.489  15.455  0.00  0.00    +0.000 A 
ATOM     16  C   UNL     1      48.902   6.150  16.256  0.00  0.00    +0.000 A 
ATOM     17  N   UNL     1      49.240   5.760  17.516  0.00  0.00    +0.000 NA
ATOM     18  C   UNL     1      48.587   4.650  17.958  0.00  0.00    +0.000 A 
ATOM     19  C   UNL     1      47.663   3.973  17.179  0.00  0.00    +0.000 A 
ATOM     20  N   UNL     1      47.336   4.370  15.920  0.00  0.00    +0.000 NA
BRANCH  18  21
ATOM     21  C   UNL     1      48.880   4.175  19.338  0.00  0.00    +0.000 C 
ATOM     22  N   UNL     1      48.296   2.992  19.697  0.00  0.00    +0.000 N 
ATOM     23  O   UNL     1      49.606   4.798  20.101  0.00  0.00    +0.000 OA
ATOM     24  H   UNL     1      47.709   2.493  19.037  0.00  0.00    +0.000 HD
ATOM     25  H   UNL     1      48.473   2.607  20.613  0.00  0.00    +0.000 HD
ENDBRANCH  18  21
ENDBRANCH   9  15
TORSDOF 2
ENDMDL
MODEL 3
REMARK VINA RESULT:    -6.150      1.630      1.913
REMARK INTER + INTRA:          -7.183
REMARK INTER:                  -6.869
REMARK INTRA:                  -0.314
REMARK UNBOUND:                -0.314
REMARK  Name = 
REMARK  4 active torsions:
REMARK  status: ('A' for Active; 'I' for Inactive)
REMARK    1  A    between atoms: C_1  and  C_2
REMARK    2  A    between atoms: C_9  and  C_10
REMARK    3  A    between atoms: C_13  and  C_14
REMARK    4  A    between atoms: C_21  and  C_22
REMARK                            x       y       z     vdW  Elec       q    Type
REMARK                         _______ _______ _______ _____ _____    ______ ____
ROOT
ATOM      1  C   UNL     1      50.389   8.492  18.728  0.00  0.00    +0.000 C 
ATOM      2  C   UNL     1      50.791   7.023  18.802  0.00  0.00    +0.000 C 
ATOM      3  C   UNL     1      51.172   6.419  17.433  0.00  0.00    +0.000 C 
ATOM      4  N   UNL     1      49.988   5.973  16.706  0.00  0.00    +0.000 N 
ATOM      5  C   UNL     1      49.623   6.534  15.512  0.00  0.00    +0.000 A 
ATOM      6  N   UNL     1      50.447   7.409  14.921  0.00  0.00    +0.000 NA
ATOM      7  C   UNL     1      50.072   7.926  13.738  0.00  0.00    +0.000 A 
ATOM      8  C   UNL     1      48.894   7.608  13.116  0.00  0.00    +0.000 A 
ATOM      9  C   UNL     1      48.084   6.711  13.780  0.00  0.00    +0.000 A 
ATOM     10  N   UNL     1      48.451   6.172  14.966  0.00  0.00    +0.000 NA
ATOM     11  C   UNL     1      49.081   5.114  17.457  0.00  0.00    +0.000 C 
ATOM     12  C   UNL     1      48.690   5.778  18.791  0.00  0.00    +0.000 C 
ATOM     13  C   UNL     1      47.620   6.856  18.637  0.00  0.00    +0.000 C 
ATOM     14  O   UNL     1      49.830   6.243  19.535  0.00  0.00    +0.000 OA
ENDROOT
BRANCH   9  15
ATOM     15  C   UNL     1      46.762   6.306  13.262  0.00  0.00    +0.000 A 
ATOM     16  C   UNL     1      46.082   7.033  12.279  0.00  0.00    +0.000 A 
ATOM     17  N   UNL     1      44.884   6.662  11.745  0.00  0.00    +0.000 NA
ATOM     18  C   UNL     1      44.377   5.503  12.248  0.00  0.00    +0.000 A 
ATOM     19  C   UNL     1      45.027   4.773  13.230  0.00  0.00    +0.000 A 
ATOM     20  N   UNL     1      46.221   5.155  13.757  0.00  0.00    +0.000 NA
BRANCH  18  21
ATOM     21  C   UNL     1      43.084   5.014  11.698  0.00  0.00    +0.000 C 
ATOM     22  N   UNL     1      42.043   5.897  11.749  0.00  0.00    +0.000 N 
ATOM     23  O   UNL     1      42.961   3.893  11.220  0.00  0.00    +0.000 OA
ATOM     24  H   UNL     1      42.179   6.823  12.140  0.00  0.00    +0.000 HD
ATOM     25  H   UNL     1      41.144   5.631  11.373  0.00  0.00    +0.000 HD
ENDBRANCH  18  21
ENDBRANCH   9  15
TORSDOF 2
ENDMDL
MODEL 4
REMARK VINA RESULT:    -5.565      2.231      7.338
REMARK INTER + INTRA:          -6.529
REMARK INTER:                  -6.216
REMARK INTRA:                  -0.314
REMARK UNBOUND:                -0.314
REMARK  Name = 
REMARK  4 active torsions:
REMARK  status: ('A' for Active; 'I' for Inactive)
REMARK    1  A    between atoms: C_1  and  C_2
REMARK    2  A    between atoms: C_9  and  C_10
REMARK    3  A    between atoms: C_13  and  C_14
REMARK    4  A    between atoms: C_21  and  C_22
REMARK                            x       y       z     vdW  Elec       q    Type
REMARK                         _______ _______ _______ _____ _____    ______ ____
ROOT
ATOM      1  C   UNL     1      44.208   4.471   9.547  0.00  0.00    +0.000 C 
ATOM      2  C   UNL     1      43.133   4.614  10.620  0.00  0.00    +0.000 C 
ATOM      3  C   UNL     1      43.231   5.932  11.418  0.00  0.00    +0.000 C 
ATOM      4  N   UNL     1      44.190   5.817  12.511  0.00  0.00    +0.000 N 
ATOM      5  C   UNL     1      45.324   6.582  12.558  0.00  0.00    +0.000 A 
ATOM      6  N   UNL     1      45.488   7.564  11.661  0.00  0.00    +0.000 NA
ATOM      7  C   UNL     1      46.600   8.313  11.746  0.00  0.00    +0.000 A 
ATOM      8  C   UNL     1      47.570   8.119  12.693  0.00  0.00    +0.000 A 
ATOM      9  C   UNL     1      47.349   7.087  13.580  0.00  0.00    +0.000 A 
ATOM     10  N   UNL     1      46.229   6.329  13.516  0.00  0.00    +0.000 NA
ATOM     11  C   UNL     1      44.014   4.657  13.377  0.00  0.00    +0.000 C 
ATOM     12  C   UNL     1      43.971   3.363  12.543  0.00  0.00    +0.000 C 
ATOM     13  C   UNL     1      45.352   2.884  12.101  0.00  0.00    +0.000 C 
ATOM     14  O   UNL     1      43.044   3.439  11.446  0.00  0.00    +0.000 OA
ENDROOT
BRANCH   9  15
ATOM     15  C   UNL     1      48.324   6.722  14.627  0.00  0.00    +0.000 A 
ATOM     16  C   UNL     1      48.096   5.688  15.542  0.00  0.00    +0.000 A 
ATOM     17  N   UNL     1      48.993   5.294  16.489  0.00  0.00    +0.000 NA
ATOM     18  C   UNL     1      50.160   5.995  16.487  0.00  0.00    +0.000 A 
ATOM     19  C   UNL     1      50.403   7.030  15.598  0.00  0.00    +0.000 A 
ATOM     20  N   UNL     1      49.498   7.416  14.659  0.00  0.00    +0.000 NA
BRANCH  18  21
ATOM     21  C   UNL     1      51.204   5.609  17.474  0.00  0.00    +0.000 C 
ATOM     22  N   UNL     1      51.550   6.570  18.382  0.00  0.00    +0.000 N 
ATOM     23  O   UNL     1      51.717   4.497  17.479  0.00  0.00    +0.000 OA
ATOM     24  H   UNL     1      51.099   7.478  18.360  0.00  0.00    +0.000 HD
ATOM     25  H   UNL     1      52.239   6.362  19.091  0.00  0.00    +0.000 HD
ENDBRANCH  18  21
ENDBRANCH   9  15
TORSDOF 2
ENDMDL
MODEL 5
REMARK VINA RESULT:    -5.411      2.622      7.769
REMARK INTER + INTRA:          -6.357
REMARK INTER:                  -6.047
REMARK INTRA:                  -0.311
REMARK UNBOUND:                -0.314
REMARK  Name = 
REMARK  4 active torsions:
REMARK  status: ('A' for Active; 'I' for Inactive)
REMARK    1  A    between atoms: C_1  and  C_2
REMARK    2  A    between atoms: C_9  and  C_10
REMARK    3  A    between atoms: C_13  and  C_14
REMARK    4  A    between atoms: C_21  and  C_22
REMARK                            x       y       z     vdW  Elec       q    Type
REMARK                         _______ _______ _______ _____ _____    ______ ____
ROOT
ATOM      1  C   UNL     1      43.206   5.141  13.171  0.00  0.00    +0.000 C 
ATOM      2  C   UNL     1      44.071   4.752  11.976  0.00  0.00    +0.000 C 
ATOM      3  C   UNL     1      45.355   3.991  12.368  0.00  0.00    +0.000 C 
ATOM      4  N   UNL     1      46.424   4.913  12.736  0.00  0.00    +0.000 N 
ATOM      5  C   UNL     1      46.953   4.935  13.998  0.00  0.00    +0.000 A 
ATOM      6  N   UNL     1      46.588   3.992  14.877  0.00  0.00    +0.000 NA
ATOM      7  C   UNL     1      47.142   4.025  16.101  0.00  0.00    +0.000 A 
ATOM      8  C   UNL     1      48.048   4.974  16.493  0.00  0.00    +0.000 A 
ATOM      9  C   UNL     1      48.374   5.924  15.548  0.00  0.00    +0.000 A 
ATOM     10  N   UNL     1      47.835   5.899  14.307  0.00  0.00    +0.000 NA
ATOM     11  C   UNL     1      46.683   5.982  11.779  0.00  0.00    +0.000 C 
ATOM     12  C   UNL     1      45.385   6.745  11.457  0.00  0.00    +0.000 C 
ATOM     13  C   UNL     1      44.987   7.745  12.540  0.00  0.00    +0.000 C 
ATOM     14  O   UNL     1      44.300   5.870  11.099  0.00  0.00    +0.000 OA
ENDROOT
BRANCH   9  15
ATOM     15  C   UNL     1      49.298   7.039  15.834  0.00  0.00    +0.000 A 
ATOM     16  C   UNL     1      48.992   8.059  16.742  0.00  0.00    +0.000 A 
ATOM     17  N   UNL     1      49.841   9.075  17.064  0.00  0.00    +0.000 NA
ATOM     18  C   UNL     1      51.042   9.032  16.425  0.00  0.00    +0.000 A 
ATOM     19  C   UNL     1      51.362   8.039  15.514  0.00  0.00    +0.000 A 
ATOM     20  N   UNL     1      50.505   7.031  15.197  0.00  0.00    +0.000 NA
BRANCH  18  21
ATOM     21  C   UNL     1      52.036  10.092  16.742  0.00  0.00    +0.000 C 
ATOM     22  N   UNL     1      51.680  10.967  17.730  0.00  0.00    +0.000 N 
ATOM     23  O   UNL     1      53.112  10.172  16.162  0.00  0.00    +0.000 OA
ATOM     24  H   UNL     1      50.787  10.868  18.200  0.00  0.00    +0.000 HD
ATOM     25  H   UNL     1      52.322  11.697  18.005  0.00  0.00    +0.000 HD
ENDBRANCH  18  21
ENDBRANCH   9  15
TORSDOF 2
ENDMDL
MODEL 6
REMARK VINA RESULT:    -5.186      2.080      2.809
REMARK INTER + INTRA:          -6.107
REMARK INTER:                  -5.790
REMARK INTRA:                  -0.317
REMARK UNBOUND:                -0.314
REMARK  Name = 
REMARK  4 active torsions:
REMARK  status: ('A' for Active; 'I' for Inactive)
REMARK    1  A    between atoms: C_1  and  C_2
REMARK    2  A    between atoms: C_9  and  C_10
REMARK    3  A    between atoms: C_13  and  C_14
REMARK    4  A    between atoms: C_21  and  C_22
REMARK                            x       y       z     vdW  Elec       q    Type
REMARK                         _______ _______ _______ _____ _____    ______ ____
ROOT
ATOM      1  C   UNL     1      49.709  10.894  17.153  0.00  0.00    +0.000 C 
ATOM      2  C   UNL     1      50.877   9.969  16.824  0.00  0.00    +0.000 C 
ATOM      3  C   UNL     1      51.047   9.708  15.312  0.00  0.00    +0.000 C 
ATOM      4  N   UNL     1      50.174   8.631  14.860  0.00  0.00    +0.000 N 
ATOM      5  C   UNL     1      49.178   8.847  13.946  0.00  0.00    +0.000 A 
ATOM      6  N   UNL     1      49.096  10.038  13.338  0.00  0.00    +0.000 NA
ATOM      7  C   UNL     1      48.123  10.213  12.428  0.00  0.00    +0.000 A 
ATOM      8  C   UNL     1      47.214   9.242  12.099  0.00  0.00    +0.000 A 
ATOM      9  C   UNL     1      47.344   8.042  12.766  0.00  0.00    +0.000 A 
ATOM     10  N   UNL     1      48.326   7.845  13.678  0.00  0.00    +0.000 NA
ATOM     11  C   UNL     1      50.239   7.404  15.645  0.00  0.00    +0.000 C 
ATOM     12  C   UNL     1      50.014   7.706  17.138  0.00  0.00    +0.000 C 
ATOM     13  C   UNL     1      48.544   7.915  17.497  0.00  0.00    +0.000 C 
ATOM     14  O   UNL     1      50.850   8.772  17.622  0.00  0.00    +0.000 OA
ENDROOT
BRANCH   9  15
ATOM     15  C   UNL     1      46.413   6.916  12.558  0.00  0.00    +0.000 A 
ATOM     16  C   UNL     1      45.638   6.782  11.400  0.00  0.00    +0.000 A 
ATOM     17  N   UNL     1      44.806   5.732  11.156  0.00  0.00    +0.000 NA
ATOM     18  C   UNL     1      44.777   4.793  12.141  0.00  0.00    +0.000 A 
ATOM     19  C   UNL     1      45.527   4.910  13.300  0.00  0.00    +0.000 A 
ATOM     20  N   UNL     1      46.352   5.966  13.535  0.00  0.00    +0.000 NA
BRANCH  18  21
ATOM     21  C   UNL     1      43.912   3.599  11.938  0.00  0.00    +0.000 C 
ATOM     22  N   UNL     1      44.349   2.441  12.517  0.00  0.00    +0.000 N 
ATOM     23  O   UNL     1      42.869   3.651  11.299  0.00  0.00    +0.000 OA
ATOM     24  H   UNL     1      45.212   2.433  13.050  0.00  0.00    +0.000 HD
ATOM     25  H   UNL     1      43.796   1.601  12.432  0.00  0.00    +0.000 HD
ENDBRANCH  18  21
ENDBRANCH   9  15
TORSDOF 2
ENDMDL
MODEL 7
REMARK VINA RESULT:    -5.109      3.155      5.279
REMARK INTER + INTRA:          -6.020
REMARK INTER:                  -5.718
REMARK INTRA:                  -0.302
REMARK UNBOUND:                -0.314
REMARK  Name = 
REMARK  4 active torsions:
REMARK  status: ('A' for Active; 'I' for Inactive)
REMARK    1  A    between atoms: C_1  and  C_2
REMARK    2  A    between atoms: C_9  and  C_10
REMARK    3  A    between atoms: C_13  and  C_14
REMARK    4  A    between atoms: C_21  and  C_22
REMARK                            x       y       z     vdW  Elec       q    Type
REMARK                         _______ _______ _______ _____ _____    ______ ____
ROOT
ATOM      1  C   UNL     1      49.906   2.152  17.122  0.00  0.00    +0.000 C 
ATOM      2  C   UNL     1      49.038   2.892  18.135  0.00  0.00    +0.000 C 
ATOM      3  C   UNL     1      47.677   3.345  17.565  0.00  0.00    +0.000 C 
ATOM      4  N   UNL     1      47.797   4.618  16.861  0.00  0.00    +0.000 N 
ATOM      5  C   UNL     1      47.545   4.726  15.520  0.00  0.00    +0.000 A 
ATOM      6  N   UNL     1      47.033   3.676  14.864  0.00  0.00    +0.000 NA
ATOM      7  C   UNL     1      46.775   3.819  13.553  0.00  0.00    +0.000 A 
ATOM      8  C   UNL     1      47.014   4.976  12.859  0.00  0.00    +0.000 A 
ATOM      9  C   UNL     1      47.551   6.016  13.588  0.00  0.00    +0.000 A 
ATOM     10  N   UNL     1      47.806   5.893  14.911  0.00  0.00    +0.000 NA
ATOM     11  C   UNL     1      48.468   5.679  17.602  0.00  0.00    +0.000 C 
ATOM     12  C   UNL     1      49.841   5.199  18.108  0.00  0.00    +0.000 C 
ATOM     13  C   UNL     1      50.919   5.203  17.027  0.00  0.00    +0.000 C 
ATOM     14  O   UNL     1      49.768   3.939  18.799  0.00  0.00    +0.000 OA
ENDROOT
BRANCH   9  15
ATOM     15  C   UNL     1      47.908   7.310  12.973  0.00  0.00    +0.000 A 
ATOM     16  C   UNL     1      47.427   8.532  13.453  0.00  0.00    +0.000 A 
ATOM     17  N   UNL     1      47.774   9.745  12.940  0.00  0.00    +0.000 NA
ATOM     18  C   UNL     1      48.646   9.688  11.896  0.00  0.00    +0.000 A 
ATOM     19  C   UNL     1      49.128   8.489  11.397  0.00  0.00    +0.000 A 
ATOM     20  N   UNL     1      48.771   7.283  11.915  0.00  0.00    +0.000 NA
BRANCH  18  21
ATOM     21  C   UNL     1      49.097  10.973  11.296  0.00  0.00    +0.000 C 
ATOM     22  N   UNL     1      48.267  11.515  10.356  0.00  0.00    +0.000 N 
ATOM     23  O   UNL     1      50.143  11.516  11.629  0.00  0.00    +0.000 OA
ATOM     24  H   UNL     1      47.401  11.047  10.110  0.00  0.00    +0.000 HD
ATOM     25  H   UNL     1      48.508  12.396   9.926  0.00  0.00    +0.000 HD
ENDBRANCH  18  21
ENDBRANCH   9  15
TORSDOF 2
ENDMDL
MODEL 8
REMARK VINA RESULT:    -4.868      2.555      7.995
REMARK INTER + INTRA:          -5.751
REMARK INTER:                  -5.428
REMARK INTRA:                  -0.323
REMARK UNBOUND:                -0.314
REMARK  Name = 
REMARK  4 active torsions:
REMARK  status: ('A' for Active; 'I' for Inactive)
REMARK    1  A    between atoms: C_1  and  C_2
REMARK    2  A    between atoms: C_9  and  C_10
REMARK    3  A    between atoms: C_13  and  C_14
REMARK    4  A    between atoms: C_21  and  C_22
REMARK                            x       y       z     vdW  Elec       q    Type
REMARK                         _______ _______ _______ _____ _____    ______ ____
ROOT
ATOM      1  C   UNL     1      44.121   5.543  13.058  0.00  0.00    +0.000 C 
ATOM      2  C   UNL     1      45.228   5.083  12.114  0.00  0.00    +0.000 C 
ATOM      3  C   UNL     1      46.288   4.192  12.796  0.00  0.00    +0.000 C 
ATOM      4  N   UNL     1      47.304   4.998  13.463  0.00  0.00    +0.000 N 
ATOM      5  C   UNL     1      47.484   4.952  14.819  0.00  0.00    +0.000 A 
ATOM      6  N   UNL     1      46.816   4.039  15.537  0.00  0.00    +0.000 NA
ATOM      7  C   UNL     1      47.030   4.003  16.863  0.00  0.00    +0.000 A 
ATOM      8  C   UNL     1      47.888   4.851  17.512  0.00  0.00    +0.000 A 
ATOM      9  C   UNL     1      48.537   5.775  16.721  0.00  0.00    +0.000 A 
ATOM     10  N   UNL     1      48.341   5.818  15.382  0.00  0.00    +0.000 NA
ATOM     11  C   UNL     1      47.904   6.047  12.647  0.00  0.00    +0.000 C 
ATOM     12  C   UNL     1      46.813   6.940  12.028  0.00  0.00    +0.000 C 
ATOM     13  C   UNL     1      46.241   7.962  13.008  0.00  0.00    +0.000 C 
ATOM     14  O   UNL     1      45.783   6.182  11.369  0.00  0.00    +0.000 OA
ENDROOT
BRANCH   9  15
ATOM     15  C   UNL     1      49.455   6.788  17.278  0.00  0.00    +0.000 A 
ATOM     16  C   UNL     1      49.996   7.822  16.506  0.00  0.00    +0.000 A 
ATOM     17  N   UNL     1      50.807   8.799  16.999  0.00  0.00    +0.000 NA
ATOM     18  C   UNL     1      51.064   8.700  18.332  0.00  0.00    +0.000 A 
ATOM     19  C   UNL     1      50.549   7.679  19.114  0.00  0.00    +0.000 A 
ATOM     20  N   UNL     1      49.743   6.706  18.610  0.00  0.00    +0.000 NA
BRANCH  18  21
ATOM     21  C   UNL     1      51.921   9.746  18.954  0.00  0.00    +0.000 C 
ATOM     22  N   UNL     1      51.625  10.066  20.249  0.00  0.00    +0.000 N 
ATOM     23  O   UNL     1      52.840  10.281  18.347  0.00  0.00    +0.000 OA
ATOM     24  H   UNL     1      50.864   9.597  20.729  0.00  0.00    +0.000 HD
ATOM     25  H   UNL     1      52.182  10.755  20.733  0.00  0.00    +0.000 HD
ENDBRANCH  18  21
ENDBRANCH   9  15
TORSDOF 2
ENDMDL
MODEL 9
REMARK VINA RESULT:    -4.439     10.360     12.913
REMARK INTER + INTRA:          -5.272
REMARK INTER:                  -4.954
REMARK INTRA:                  -0.318
REMARK UNBOUND:                -0.314
REMARK  Name = 
REMARK  4 active torsions:
REMARK  status: ('A' for Active; 'I' for Inactive)
REMARK    1  A    between atoms: C_1  and  C_2
REMARK    2  A    between atoms: C_9  and  C_10
REMARK    3  A    between atoms: C_13  and  C_14
REMARK    4  A    between atoms: C_21  and  C_22
REMARK                            x       y       z     vdW  Elec       q    Type
REMARK                         _______ _______ _______ _____ _____    ______ ____
ROOT
ATOM      1  C   UNL     1      39.924  -2.842  10.983  0.00  0.00    +0.000 C 
ATOM      2  C   UNL     1      39.071  -3.870  11.720  0.00  0.00    +0.000 C 
ATOM      3  C   UNL     1      37.667  -3.350  12.096  0.00  0.00    +0.000 C 
ATOM      4  N   UNL     1      37.700  -2.602  13.348  0.00  0.00    +0.000 N 
ATOM      5  C   UNL     1      37.383  -1.271  13.400  0.00  0.00    +0.000 A 
ATOM      6  N   UNL     1      36.889  -0.673  12.308  0.00  0.00    +0.000 NA
ATOM      7  C   UNL     1      36.565   0.628  12.396  0.00  0.00    +0.000 A 
ATOM      8  C   UNL     1      36.721   1.369  13.538  0.00  0.00    +0.000 A 
ATOM      9  C   UNL     1      37.245   0.700  14.624  0.00  0.00    +0.000 A 
ATOM     10  N   UNL     1      37.565  -0.614  14.556  0.00  0.00    +0.000 NA
ATOM     11  C   UNL     1      38.357  -3.276  14.460  0.00  0.00    +0.000 C 
ATOM     12  C   UNL     1      39.771  -3.733  14.056  0.00  0.00    +0.000 C 
ATOM     13  C   UNL     1      40.798  -2.603  14.070  0.00  0.00    +0.000 C 
ATOM     14  O   UNL     1      39.785  -4.466  12.818  0.00  0.00    +0.000 OA
ENDROOT
BRANCH   9  15
ATOM     15  C   UNL     1      37.517   1.371  15.910  0.00  0.00    +0.000 A 
ATOM     16  C   UNL     1      37.901   0.672  17.060  0.00  0.00    +0.000 A 
ATOM     17  N   UNL     1      38.206   1.265  18.248  0.00  0.00    +0.000 NA
ATOM     18  C   UNL     1      38.108   2.622  18.243  0.00  0.00    +0.000 A 
ATOM     19  C   UNL     1      37.719   3.334  17.120  0.00  0.00    +0.000 A 
ATOM     20  N   UNL     1      37.414   2.731  15.940  0.00  0.00    +0.000 NA
BRANCH  18  21
ATOM     21  C   UNL     1      38.451   3.348  19.496  0.00  0.00    +0.000 C 
ATOM     22  N   UNL     1      39.767   3.313  19.864  0.00  0.00    +0.000 N 
ATOM     23  O   UNL     1      37.610   3.947  20.153  0.00  0.00    +0.000 OA
ATOM     24  H   UNL     1      40.443   2.818  19.292  0.00  0.00    +0.000 HD
ATOM     25  H   UNL     1      40.066   3.803  20.695  0.00  0.00    +0.000 HD
ENDBRANCH  18  21
ENDBRANCH   9  15
TORSDOF 2
ENDMDL
