MODEL 1
REMARK VINA RESULT:    -7.798      0.000      0.000
REMARK INTER + INTRA:         -12.537
REMARK INTER:                 -11.445
REMARK INTRA:                  -1.093
REMARK UNBOUND:                -1.093
REMARK  Name = 
REMARK  9 active torsions:
REMARK  status: ('A' for Active; 'I' for Inactive)
REMARK    1  A    between atoms: C_1  and  O_2
REMARK    2  A    between atoms: O_2  and  C_3
REMARK    3  A    between atoms: C_10  and  C_11
REMARK    4  A    between atoms: N_13  and  C_14
REMARK    5  A    between atoms: C_14  and  C_15
REMARK    6  A    between atoms: C_18  and  C_19
REMARK    7  A    between atoms: C_19  and  N_20
REMARK    8  A    between atoms: N_20  and  C_21
REMARK    9  A    between atoms: C_21  and  C_22
REMARK                            x       y       z     vdW  Elec       q    Type
REMARK                         _______ _______ _______ _____ _____    ______ ____
ROOT
ATOM      1  C   UNL     1      48.013   6.765  13.234  0.00  0.00    +0.000 C 
ENDROOT
BRANCH   1   2
ATOM      2  C   UNL     1      46.820   6.035  12.676  0.00  0.00    +0.000 A 
ATOM      3  C   UNL     1      46.197   5.018  13.411  0.00  0.00    +0.000 A 
ATOM      4  C   UNL     1      45.133   4.294  12.866  0.00  0.00    +0.000 A 
ATOM      5  C   UNL     1      44.663   4.576  11.577  0.00  0.00    +0.000 A 
ATOM      6  C   UNL     1      45.280   5.601  10.847  0.00  0.00    +0.000 A 
ATOM      7  C   UNL     1      46.350   6.319  11.388  0.00  0.00    +0.000 A 
BRANCH   5   8
ATOM      8  C   UNL     1      43.535   3.779  10.960  0.00  0.00    +0.000 C 
BRANCH   8   9
ATOM      9  N   UNL     1      43.775   3.312   9.596  0.00  0.00    +0.000 NA
ATOM     10  H   UNL     1      44.187   4.062   9.041  0.00  0.00    +0.000 HD
BRANCH   9  11
ATOM     11  C   UNL     1      44.683   2.163   9.538  0.00  0.00    +0.000 C 
BRANCH  11  12
ATOM     12  C   UNL     1      45.673   2.306   8.404  0.00  0.00    +0.000 A 
ATOM     13  C   UNL     1      45.790   3.507   7.710  0.00  0.00    +0.000 A 
ATOM     14  N   UNL     1      46.671   3.689   6.697  0.00  0.00    +0.000 NA
ATOM     15  C   UNL     1      47.453   2.624   6.417  0.00  0.00    +0.000 A 
ATOM     16  C   UNL     1      47.359   1.431   7.111  0.00  0.00    +0.000 A 
ATOM     17  N   UNL     1      46.476   1.244   8.118  0.00  0.00    +0.000 NA
ENDBRANCH  11  12
ENDBRANCH   9  11
ENDBRANCH   8   9
ENDBRANCH   5   8
ENDBRANCH   1   2
BRANCH   1  20
ATOM     18  C   UNL     1      49.107   6.947  15.423  0.00  0.00    +0.000 C 
ATOM     19  O   UNL     1      50.210   7.017  14.884  0.00  0.00    +0.000 OA
ATOM     20  N   UNL     1      47.967   6.812  14.676  0.00  0.00    +0.000 N 
ATOM     21  H   UNL     1      47.064   6.735  15.128  0.00  0.00    +0.000 HD
BRANCH  18  29
ATOM     22  C   UNL     1      48.924   4.546  17.907  0.00  0.00    +0.000 A 
ATOM     23  N   UNL     1      48.812   3.849  19.056  0.00  0.00    +0.000 NA
ATOM     24  C   UNL     1      48.680   4.527  20.200  0.00  0.00    +0.000 A 
ATOM     25  N   UNL     1      48.644   5.846  20.343  0.00  0.00    +0.000 NA
ATOM     26  C   UNL     1      48.752   6.505  19.177  0.00  0.00    +0.000 A 
ATOM     27  S   UNL     1      48.722   8.202  19.179  0.00  0.00    +0.000 S 
ATOM     28  C   UNL     1      48.888   8.254  17.490  0.00  0.00    +0.000 A 
ATOM     29  C   UNL     1      48.970   7.001  16.889  0.00  0.00    +0.000 A 
ATOM     30  C   UNL     1      48.894   5.952  17.905  0.00  0.00    +0.000 A 
BRANCH  22  32
ATOM     31  C   UNL     1      47.882   3.188  16.304  0.00  0.00    +0.000 C 
ATOM     32  O   UNL     1      49.079   3.840  16.729  0.00  0.00    +0.000 OA
ENDBRANCH  22  32
ENDBRANCH  18  29
ENDBRANCH   1  20
TORSDOF 8
ENDMDL
MODEL 2
REMARK VINA RESULT:    -7.292      1.562      2.691
REMARK INTER + INTRA:         -11.795
REMARK INTER:                 -10.876
REMARK INTRA:                  -0.919
REMARK UNBOUND:                -1.093
REMARK  Name = 
REMARK  9 active torsions:
REMARK  status: ('A' for Active; 'I' for Inactive)
REMARK    1  A    between atoms: C_1  and  O_2
REMARK    2  A    between atoms: O_2  and  C_3
REMARK    3  A    between atoms: C_10  and  C_11
REMARK    4  A    between atoms: N_13  and  C_14
REMARK    5  A    between atoms: C_14  and  C_15
REMARK    6  A    between atoms: C_18  and  C_19
REMARK    7  A    between atoms: C_19  and  N_20
REMARK    8  A    between atoms: N_20  and  C_21
REMARK    9  A    between atoms: C_21  and  C_22
REMARK                            x       y       z     vdW  Elec       q    Type
REMARK                         _______ _______ _______ _____ _____    ______ ____
ROOT
ATOM      1  C   UNL     1      48.056   6.504  13.724  0.00  0.00    +0.000 C 
ENDROOT
BRANCH   1   2
ATOM      2  C   UNL     1      46.841   5.957  13.022  0.00  0.00    +0.000 A 
ATOM      3  C   UNL     1      46.477   4.613  13.169  0.00  0.00    +0.000 A 
ATOM      4  C   UNL     1      45.389   4.088  12.464  0.00  0.00    +0.000 A 
ATOM      5  C   UNL     1      44.637   4.899  11.604  0.00  0.00    +0.000 A 
ATOM      6  C   UNL     1      44.996   6.247  11.468  0.00  0.00    +0.000 A 
ATOM      7  C   UNL     1      46.089   6.769  12.165  0.00  0.00    +0.000 A 
BRANCH   5   8
ATOM      8  C   UNL     1      43.479   4.338  10.809  0.00  0.00    +0.000 C 
BRANCH   8   9
ATOM      9  N   UNL     1      43.843   3.372   9.774  0.00  0.00    +0.000 NA
ATOM     10  H   UNL     1      43.001   2.953   9.380  0.00  0.00    +0.000 HD
BRANCH   9  11
ATOM     11  C   UNL     1      44.599   3.975   8.672  0.00  0.00    +0.000 C 
BRANCH  11  12
ATOM     12  C   UNL     1      45.639   3.019   8.136  0.00  0.00    +0.000 A 
ATOM     13  C   UNL     1      45.619   1.673   8.492  0.00  0.00    +0.000 A 
ATOM     14  N   UNL     1      46.519   0.774   8.027  0.00  0.00    +0.000 NA
ATOM     15  C   UNL     1      47.436   1.270   7.167  0.00  0.00    +0.000 A 
ATOM     16  C   UNL     1      47.456   2.602   6.791  0.00  0.00    +0.000 A 
ATOM     17  N   UNL     1      46.562   3.503   7.259  0.00  0.00    +0.000 NA
ENDBRANCH  11  12
ENDBRANCH   9  11
ENDBRANCH   8   9
ENDBRANCH   5   8
ENDBRANCH   1   2
BRANCH   1  20
ATOM     18  C   UNL     1      48.971   6.478  16.000  0.00  0.00    +0.000 C 
ATOM     19  O   UNL     1      50.118   6.512  15.558  0.00  0.00    +0.000 OA
ATOM     20  N   UNL     1      47.892   6.462  15.158  0.00  0.00    +0.000 N 
ATOM     21  H   UNL     1      46.951   6.413  15.530  0.00  0.00    +0.000 HD
BRANCH  18  29
ATOM     22  C   UNL     1      47.798   8.802  18.280  0.00  0.00    +0.000 A 
ATOM     23  N   UNL     1      47.397   9.489  19.369  0.00  0.00    +0.000 NA
ATOM     24  C   UNL     1      47.399   8.863  20.550  0.00  0.00    +0.000 A 
ATOM     25  N   UNL     1      47.762   7.608  20.785  0.00  0.00    +0.000 NA
ATOM     26  C   UNL     1      48.161   6.960  19.678  0.00  0.00    +0.000 A 
ATOM     27  S   UNL     1      48.662   5.343  19.801  0.00  0.00    +0.000 S 
ATOM     28  C   UNL     1      48.979   5.265  18.136  0.00  0.00    +0.000 A 
ATOM     29  C   UNL     1      48.716   6.448  17.451  0.00  0.00    +0.000 A 
ATOM     30  C   UNL     1      48.219   7.463  18.380  0.00  0.00    +0.000 A 
BRANCH  22  32
ATOM     31  C   UNL     1      48.985  10.154  16.775  0.00  0.00    +0.000 C 
ATOM     32  O   UNL     1      47.777   9.447  17.058  0.00  0.00    +0.000 OA
ENDBRANCH  22  32
ENDBRANCH  18  29
ENDBRANCH   1  20
TORSDOF 8
ENDMDL
MODEL 3
REMARK VINA RESULT:    -7.165      1.337      1.793
REMARK INTER + INTRA:         -11.608
REMARK INTER:                 -10.651
REMARK INTRA:                  -0.957
REMARK UNBOUND:                -1.093
REMARK  Name = 
REMARK  9 active torsions:
REMARK  status: ('A' for Active; 'I' for Inactive)
REMARK    1  A    between atoms: C_1  and  O_2
REMARK    2  A    between atoms: O_2  and  C_3
REMARK    3  A    between atoms: C_10  and  C_11
REMARK    4  A    between atoms: N_13  and  C_14
REMARK    5  A    between atoms: C_14  and  C_15
REMARK    6  A    between atoms: C_18  and  C_19
REMARK    7  A    between atoms: C_19  and  N_20
REMARK    8  A    between atoms: N_20  and  C_21
REMARK    9  A    between atoms: C_21  and  C_22
REMARK                            x       y       z     vdW  Elec       q    Type
REMARK                         _______ _______ _______ _____ _____    ______ ____
ROOT
ATOM      1  C   UNL     1      48.267   6.008  13.930  0.00  0.00    +0.000 C 
ENDROOT
BRANCH   1   2
ATOM      2  C   UNL     1      47.000   5.827  13.137  0.00  0.00    +0.000 A 
ATOM      3  C   UNL     1      46.028   4.905  13.546  0.00  0.00    +0.000 A 
ATOM      4  C   UNL     1      44.883   4.686  12.774  0.00  0.00    +0.000 A 
ATOM      5  C   UNL     1      44.682   5.391  11.579  0.00  0.00    +0.000 A 
ATOM      6  C   UNL     1      45.650   6.322  11.178  0.00  0.00    +0.000 A 
ATOM      7  C   UNL     1      46.799   6.533  11.945  0.00  0.00    +0.000 A 
BRANCH   5   8
ATOM      8  C   UNL     1      43.466   5.142  10.716  0.00  0.00    +0.000 C 
BRANCH   8   9
ATOM      9  N   UNL     1      43.739   4.533   9.415  0.00  0.00    +0.000 NA
ATOM     10  H   UNL     1      44.449   5.073   8.922  0.00  0.00    +0.000 HD
BRANCH   9  11
ATOM     11  C   UNL     1      44.223   3.153   9.523  0.00  0.00    +0.000 C 
BRANCH  11  12
ATOM     12  C   UNL     1      45.369   2.900   8.570  0.00  0.00    +0.000 A 
ATOM     13  C   UNL     1      45.938   1.634   8.463  0.00  0.00    +0.000 A 
ATOM     14  N   UNL     1      46.955   1.353   7.614  0.00  0.00    +0.000 NA
ATOM     15  C   UNL     1      47.372   2.388   6.854  0.00  0.00    +0.000 A 
ATOM     16  C   UNL     1      46.804   3.647   6.939  0.00  0.00    +0.000 A 
ATOM     17  N   UNL     1      45.792   3.932   7.789  0.00  0.00    +0.000 NA
ENDBRANCH  11  12
ENDBRANCH   9  11
ENDBRANCH   8   9
ENDBRANCH   5   8
ENDBRANCH   1   2
BRANCH   1  20
ATOM     18  C   UNL     1      49.008   6.962  16.066  0.00  0.00    +0.000 C 
ATOM     19  O   UNL     1      50.132   6.493  15.905  0.00  0.00    +0.000 OA
ATOM     20  N   UNL     1      48.021   6.761  15.138  0.00  0.00    +0.000 N 
ATOM     21  H   UNL     1      47.092   7.134  15.288  0.00  0.00    +0.000 HD
BRANCH  18  29
ATOM     22  C   UNL     1      47.847   6.165  19.227  0.00  0.00    +0.000 A 
ATOM     23  N   UNL     1      47.392   6.154  20.496  0.00  0.00    +0.000 NA
ATOM     24  C   UNL     1      47.276   7.320  21.139  0.00  0.00    +0.000 A 
ATOM     25  N   UNL     1      47.563   8.524  20.660  0.00  0.00    +0.000 NA
ATOM     26  C   UNL     1      48.007   8.495  19.393  0.00  0.00    +0.000 A 
ATOM     27  S   UNL     1      48.419   9.951  18.625  0.00  0.00    +0.000 S 
ATOM     28  C   UNL     1      48.837   9.136  17.197  0.00  0.00    +0.000 A 
ATOM     29  C   UNL     1      48.678   7.755  17.264  0.00  0.00    +0.000 A 
ATOM     30  C   UNL     1      48.185   7.372  18.586  0.00  0.00    +0.000 A 
BRANCH  22  32
ATOM     31  C   UNL     1      49.263   4.353  18.768  0.00  0.00    +0.000 C 
ATOM     32  O   UNL     1      47.984   4.956  18.572  0.00  0.00    +0.000 OA
ENDBRANCH  22  32
ENDBRANCH  18  29
ENDBRANCH   1  20
TORSDOF 8
ENDMDL
MODEL 4
REMARK VINA RESULT:    -7.097      1.579      3.159
REMARK INTER + INTRA:         -11.509
REMARK INTER:                 -10.418
REMARK INTRA:                  -1.091
REMARK UNBOUND:                -1.093
REMARK  Name = 
REMARK  9 active torsions:
REMARK  status: ('A' for Active; 'I' for Inactive)
REMARK    1  A    between atoms: C_1  and  O_2
REMARK    2  A    between atoms: O_2  and  C_3
REMARK    3  A    between atoms: C_10  and  C_11
REMARK    4  A    between atoms: N_13  and  C_14
REMARK    5  A    between atoms: C_14  and  C_15
REMARK    6  A    between atoms: C_18  and  C_19
REMARK    7  A    between atoms: C_19  and  N_20
REMARK    8  A    between atoms: N_20  and  C_21
REMARK    9  A    between atoms: C_21  and  C_22
REMARK                            x       y       z     vdW  Elec       q    Type
REMARK                         _______ _______ _______ _____ _____    ______ ____
ROOT
ATOM      1  C   UNL     1      47.363   4.002  15.301  0.00  0.00    +0.000 C 
ENDROOT
BRANCH   1   2
ATOM      2  C   UNL     1      46.796   4.442  13.977  0.00  0.00    +0.000 A 
ATOM      3  C   UNL     1      47.068   5.721  13.474  0.00  0.00    +0.000 A 
ATOM      4  C   UNL     1      46.487   6.154  12.278  0.00  0.00    +0.000 A 
ATOM      5  C   UNL     1      45.629   5.315  11.556  0.00  0.00    +0.000 A 
ATOM      6  C   UNL     1      45.368   4.031  12.055  0.00  0.00    +0.000 A 
ATOM      7  C   UNL     1      45.941   3.602  13.255  0.00  0.00    +0.000 A 
BRANCH   5   8
ATOM      8  C   UNL     1      44.966   5.782  10.279  0.00  0.00    +0.000 C 
BRANCH   8   9
ATOM      9  N   UNL     1      45.552   5.258   9.046  0.00  0.00    +0.000 NA
ATOM     10  H   UNL     1      46.520   4.985   9.211  0.00  0.00    +0.000 HD
BRANCH   9  11
ATOM     11  C   UNL     1      44.838   4.085   8.530  0.00  0.00    +0.000 C 
BRANCH  11  12
ATOM     12  C   UNL     1      45.805   3.023   8.057  0.00  0.00    +0.000 A 
ATOM     13  C   UNL     1      45.643   1.695   8.442  0.00  0.00    +0.000 A 
ATOM     14  N   UNL     1      46.473   0.704   8.033  0.00  0.00    +0.000 NA
ATOM     15  C   UNL     1      47.465   1.091   7.202  0.00  0.00    +0.000 A 
ATOM     16  C   UNL     1      47.625   2.405   6.799  0.00  0.00    +0.000 A 
ATOM     17  N   UNL     1      46.802   3.397   7.210  0.00  0.00    +0.000 NA
ENDBRANCH  11  12
ENDBRANCH   9  11
ENDBRANCH   8   9
ENDBRANCH   5   8
ENDBRANCH   1   2
BRANCH   1  20
ATOM     18  C   UNL     1      48.665   5.246  16.968  0.00  0.00    +0.000 C 
ATOM     19  O   UNL     1      49.544   4.388  16.947  0.00  0.00    +0.000 OA
ATOM     20  N   UNL     1      47.545   5.127  16.189  0.00  0.00    +0.000 N 
ATOM     21  H   UNL     1      46.816   5.828  16.227  0.00  0.00    +0.000 HD
BRANCH  18  29
ATOM     22  C   UNL     1      48.831   8.650  16.369  0.00  0.00    +0.000 A 
ATOM     23  N   UNL     1      48.932   9.994  16.436  0.00  0.00    +0.000 NA
ATOM     24  C   UNL     1      49.042  10.563  17.640  0.00  0.00    +0.000 A 
ATOM     25  N   UNL     1      49.066   9.944  18.813  0.00  0.00    +0.000 NA
ATOM     26  C   UNL     1      48.969   8.609  18.706  0.00  0.00    +0.000 A 
ATOM     27  S   UNL     1      48.986   7.661  20.114  0.00  0.00    +0.000 S 
ATOM     28  C   UNL     1      48.844   6.232  19.211  0.00  0.00    +0.000 A 
ATOM     29  C   UNL     1      48.780   6.433  17.835  0.00  0.00    +0.000 A 
ATOM     30  C   UNL     1      48.850   7.862  17.535  0.00  0.00    +0.000 A 
BRANCH  22  32
ATOM     31  C   UNL     1      49.951   7.795  14.495  0.00  0.00    +0.000 C 
ATOM     32  O   UNL     1      48.698   8.067  15.124  0.00  0.00    +0.000 OA
ENDBRANCH  22  32
ENDBRANCH  18  29
ENDBRANCH   1  20
TORSDOF 8
ENDMDL
MODEL 5
REMARK VINA RESULT:    -6.749      2.323      4.002
REMARK INTER + INTRA:         -10.998
REMARK INTER:                  -9.817
REMARK INTRA:                  -1.181
REMARK UNBOUND:                -1.093
REMARK  Name = 
REMARK  9 active torsions:
REMARK  status: ('A' for Active; 'I' for Inactive)
REMARK    1  A    between atoms: C_1  and  O_2
REMARK    2  A    between atoms: O_2  and  C_3
REMARK    3  A    between atoms: C_10  and  C_11
REMARK    4  A    between atoms: N_13  and  C_14
REMARK    5  A    between atoms: C_14  and  C_15
REMARK    6  A    between atoms: C_18  and  C_19
REMARK    7  A    between atoms: C_19  and  N_20
REMARK    8  A    between atoms: N_20  and  C_21
REMARK    9  A    between atoms: C_21  and  C_22
REMARK                            x       y       z     vdW  Elec       q    Type
REMARK                         _______ _______ _______ _____ _____    ______ ____
ROOT
ATOM      1  C   UNL     1      47.134   4.667  14.925  0.00  0.00    +0.000 C 
ENDROOT
BRANCH   1   2
ATOM      2  C   UNL     1      46.228   4.620  13.723  0.00  0.00    +0.000 A 
ATOM      3  C   UNL     1      45.527   5.761  13.313  0.00  0.00    +0.000 A 
ATOM      4  C   UNL     1      44.634   5.700  12.239  0.00  0.00    +0.000 A 
ATOM      5  C   UNL     1      44.429   4.499  11.547  0.00  0.00    +0.000 A 
ATOM      6  C   UNL     1      45.140   3.361  11.952  0.00  0.00    +0.000 A 
ATOM      7  C   UNL     1      46.026   3.419  13.031  0.00  0.00    +0.000 A 
BRANCH   5   8
ATOM      8  C   UNL     1      43.441   4.410  10.406  0.00  0.00    +0.000 C 
BRANCH   8   9
ATOM      9  N   UNL     1      43.840   3.537   9.303  0.00  0.00    +0.000 NA
ATOM     10  H   UNL     1      43.033   3.335   8.712  0.00  0.00    +0.000 HD
BRANCH   9  11
ATOM     11  C   UNL     1      44.877   4.131   8.454  0.00  0.00    +0.000 C 
BRANCH  11  12
ATOM     12  C   UNL     1      45.869   3.087   7.993  0.00  0.00    +0.000 A 
ATOM     13  C   UNL     1      45.743   1.760   8.395  0.00  0.00    +0.000 A 
ATOM     14  N   UNL     1      46.596   0.786   7.997  0.00  0.00    +0.000 NA
ATOM     15  C   UNL     1      47.577   1.187   7.159  0.00  0.00    +0.000 A 
ATOM     16  C   UNL     1      47.703   2.500   6.740  0.00  0.00    +0.000 A 
ATOM     17  N   UNL     1      46.856   3.475   7.139  0.00  0.00    +0.000 NA
ENDBRANCH  11  12
ENDBRANCH   9  11
ENDBRANCH   8   9
ENDBRANCH   5   8
ENDBRANCH   1   2
BRANCH   1  20
ATOM     18  C   UNL     1      48.664   6.281  15.964  0.00  0.00    +0.000 C 
ATOM     19  O   UNL     1      48.450   5.795  17.073  0.00  0.00    +0.000 OA
ATOM     20  N   UNL     1      48.044   5.785  14.847  0.00  0.00    +0.000 N 
ATOM     21  H   UNL     1      48.211   6.204  13.940  0.00  0.00    +0.000 HD
BRANCH  18  29
ATOM     22  C   UNL     1      48.491   9.287  14.260  0.00  0.00    +0.000 A 
ATOM     23  N   UNL     1      48.710  10.491  13.692  0.00  0.00    +0.000 NA
ATOM     24  C   UNL     1      49.882  11.093  13.911  0.00  0.00    +0.000 A 
ATOM     25  N   UNL     1      50.889  10.632  14.643  0.00  0.00    +0.000 NA
ATOM     26  C   UNL     1      50.637   9.430  15.187  0.00  0.00    +0.000 A 
ATOM     27  S   UNL     1      51.821   8.694  16.154  0.00  0.00    +0.000 S 
ATOM     28  C   UNL     1      50.830   7.343  16.422  0.00  0.00    +0.000 A 
ATOM     29  C   UNL     1      49.590   7.414  15.795  0.00  0.00    +0.000 A 
ATOM     30  C   UNL     1      49.474   8.672  15.058  0.00  0.00    +0.000 A 
BRANCH  22  32
ATOM     31  C   UNL     1      46.650   9.076  12.825  0.00  0.00    +0.000 C 
ATOM     32  O   UNL     1      47.271   8.676  14.046  0.00  0.00    +0.000 OA
ENDBRANCH  22  32
ENDBRANCH  18  29
ENDBRANCH   1  20
TORSDOF 8
ENDMDL
MODEL 6
REMARK VINA RESULT:    -6.533      2.164      3.190
REMARK INTER + INTRA:         -10.681
REMARK INTER:                  -9.848
REMARK INTRA:                  -0.834
REMARK UNBOUND:                -1.093
REMARK  Name = 
REMARK  9 active torsions:
REMARK  status: ('A' for Active; 'I' for Inactive)
REMARK    1  A    between atoms: C_1  and  O_2
REMARK    2  A    between atoms: O_2  and  C_3
REMARK    3  A    between atoms: C_10  and  C_11
REMARK    4  A    between atoms: N_13  and  C_14
REMARK    5  A    between atoms: C_14  and  C_15
REMARK    6  A    between atoms: C_18  and  C_19
REMARK    7  A    between atoms: C_19  and  N_20
REMARK    8  A    between atoms: N_20  and  C_21
REMARK    9  A    between atoms: C_21  and  C_22
REMARK                            x       y       z     vdW  Elec       q    Type
REMARK                         _______ _______ _______ _____ _____    ______ ____
ROOT
ATOM      1  C   UNL     1      47.494   5.192  14.632  0.00  0.00    +0.000 C 
ENDROOT
BRANCH   1   2
ATOM      2  C   UNL     1      46.546   5.102  13.465  0.00  0.00    +0.000 A 
ATOM      3  C   UNL     1      46.704   5.936  12.351  0.00  0.00    +0.000 A 
ATOM      4  C   UNL     1      45.785   5.901  11.298  0.00  0.00    +0.000 A 
ATOM      5  C   UNL     1      44.693   5.024  11.332  0.00  0.00    +0.000 A 
ATOM      6  C   UNL     1      44.543   4.181  12.442  0.00  0.00    +0.000 A 
ATOM      7  C   UNL     1      45.456   4.223  13.499  0.00  0.00    +0.000 A 
BRANCH   5   8
ATOM      8  C   UNL     1      43.672   4.998  10.216  0.00  0.00    +0.000 C 
BRANCH   8   9
ATOM      9  N   UNL     1      44.097   4.309   8.999  0.00  0.00    +0.000 NA
ATOM     10  H   UNL     1      44.916   4.774   8.606  0.00  0.00    +0.000 HD
BRANCH   9  11
ATOM     11  C   UNL     1      44.450   2.905   9.232  0.00  0.00    +0.000 C 
BRANCH  11  12
ATOM     12  C   UNL     1      45.613   2.483   8.364  0.00  0.00    +0.000 A 
ATOM     13  C   UNL     1      46.341   3.426   7.643  0.00  0.00    +0.000 A 
ATOM     14  N   UNL     1      47.400   3.100   6.864  0.00  0.00    +0.000 NA
ATOM     15  C   UNL     1      47.721   1.788   6.849  0.00  0.00    +0.000 A 
ATOM     16  C   UNL     1      47.016   0.844   7.574  0.00  0.00    +0.000 A 
ATOM     17  N   UNL     1      45.955   1.165   8.348  0.00  0.00    +0.000 NA
ENDBRANCH  11  12
ENDBRANCH   9  11
ENDBRANCH   8   9
ENDBRANCH   5   8
ENDBRANCH   1   2
BRANCH   1  20
ATOM     18  C   UNL     1      49.064   6.838  15.552  0.00  0.00    +0.000 C 
ATOM     19  O   UNL     1      49.751   5.938  16.032  0.00  0.00    +0.000 OA
ATOM     20  N   UNL     1      47.923   6.553  14.850  0.00  0.00    +0.000 N 
ATOM     21  H   UNL     1      47.352   7.300  14.475  0.00  0.00    +0.000 HD
BRANCH  18  29
ATOM     22  C   UNL     1      49.482   8.907  18.293  0.00  0.00    +0.000 A 
ATOM     23  N   UNL     1      49.693   9.926  19.151  0.00  0.00    +0.000 NA
ATOM     24  C   UNL     1      50.029  11.119  18.650  0.00  0.00    +0.000 A 
ATOM     25  N   UNL     1      50.183  11.429  17.369  0.00  0.00    +0.000 NA
ATOM     26  C   UNL     1      49.958  10.391  16.546  0.00  0.00    +0.000 A 
ATOM     27  S   UNL     1      50.110  10.615  14.871  0.00  0.00    +0.000 S 
ATOM     28  C   UNL     1      49.698   8.997  14.569  0.00  0.00    +0.000 A 
ATOM     29  C   UNL     1      49.439   8.253  15.716  0.00  0.00    +0.000 A 
ATOM     30  C   UNL     1      49.601   9.092  16.903  0.00  0.00    +0.000 A 
BRANCH  22  32
ATOM     31  C   UNL     1      47.747   7.492  18.990  0.00  0.00    +0.000 C 
ATOM     32  O   UNL     1      49.153   7.671  18.816  0.00  0.00    +0.000 OA
ENDBRANCH  22  32
ENDBRANCH  18  29
ENDBRANCH   1  20
TORSDOF 8
ENDMDL
MODEL 7
REMARK VINA RESULT:    -6.527      2.302      2.894
REMARK INTER + INTRA:         -10.672
REMARK INTER:                  -9.481
REMARK INTRA:                  -1.191
REMARK UNBOUND:                -1.093
REMARK  Name = 
REMARK  9 active torsions:
REMARK  status: ('A' for Active; 'I' for Inactive)
REMARK    1  A    between atoms: C_1  and  O_2
REMARK    2  A    between atoms: O_2  and  C_3
REMARK    3  A    between atoms: C_10  and  C_11
REMARK    4  A    between atoms: N_13  and  C_14
REMARK    5  A    between atoms: C_14  and  C_15
REMARK    6  A    between atoms: C_18  and  C_19
REMARK    7  A    between atoms: C_19  and  N_20
REMARK    8  A    between atoms: N_20  and  C_21
REMARK    9  A    between atoms: C_21  and  C_22
REMARK                            x       y       z     vdW  Elec       q    Type
REMARK                         _______ _______ _______ _____ _____    ______ ____
ROOT
ATOM      1  C   UNL     1      48.626   9.046  12.578  0.00  0.00    +0.000 C 
ENDROOT
BRANCH   1   2
ATOM      2  C   UNL     1      47.366   8.293  12.238  0.00  0.00    +0.000 A 
ATOM      3  C   UNL     1      46.110   8.887  12.416  0.00  0.00    +0.000 A 
ATOM      4  C   UNL     1      44.939   8.165  12.165  0.00  0.00    +0.000 A 
ATOM      5  C   UNL     1      44.999   6.837  11.721  0.00  0.00    +0.000 A 
ATOM      6  C   UNL     1      46.258   6.250  11.532  0.00  0.00    +0.000 A 
ATOM      7  C   UNL     1      47.428   6.968  11.792  0.00  0.00    +0.000 A 
BRANCH   5   8
ATOM      8  C   UNL     1      43.742   6.033  11.478  0.00  0.00    +0.000 C 
BRANCH   8   9
ATOM      9  N   UNL     1      43.647   5.409  10.159  0.00  0.00    +0.000 NA
ATOM     10  H   UNL     1      44.384   5.767   9.553  0.00  0.00    +0.000 HD
BRANCH   9  11
ATOM     11  C   UNL     1      43.781   3.950  10.210  0.00  0.00    +0.000 C 
BRANCH  11  12
ATOM     12  C   UNL     1      44.822   3.462   9.227  0.00  0.00    +0.000 A 
ATOM     13  C   UNL     1      45.165   2.115   9.166  0.00  0.00    +0.000 A 
ATOM     14  N   UNL     1      46.079   1.626   8.293  0.00  0.00    +0.000 NA
ATOM     15  C   UNL     1      46.627   2.540   7.463  0.00  0.00    +0.000 A 
ATOM     16  C   UNL     1      46.281   3.880   7.502  0.00  0.00    +0.000 A 
ATOM     17  N   UNL     1      45.373   4.371   8.376  0.00  0.00    +0.000 NA
ENDBRANCH  11  12
ENDBRANCH   9  11
ENDBRANCH   8   9
ENDBRANCH   5   8
ENDBRANCH   1   2
BRANCH   1  20
ATOM     18  C   UNL     1      50.108   8.758  14.512  0.00  0.00    +0.000 C 
ATOM     19  O   UNL     1      49.926   9.926  14.847  0.00  0.00    +0.000 OA
ATOM     20  N   UNL     1      49.507   8.244  13.394  0.00  0.00    +0.000 N 
ATOM     21  H   UNL     1      49.677   7.286  13.114  0.00  0.00    +0.000 HD
BRANCH  18  29
ATOM     22  C   UNL     1      49.565   5.884  16.361  0.00  0.00    +0.000 A 
ATOM     23  N   UNL     1      49.648   4.791  17.147  0.00  0.00    +0.000 NA
ATOM     24  C   UNL     1      50.844   4.452  17.640  0.00  0.00    +0.000 A 
ATOM     25  N   UNL     1      51.993   5.084  17.441  0.00  0.00    +0.000 NA
ATOM     26  C   UNL     1      51.870   6.169  16.659  0.00  0.00    +0.000 A 
ATOM     27  S   UNL     1      53.247   7.096  16.305  0.00  0.00    +0.000 S 
ATOM     28  C   UNL     1      52.336   8.178  15.367  0.00  0.00    +0.000 A 
ATOM     29  C   UNL     1      50.981   7.868  15.298  0.00  0.00    +0.000 A 
ATOM     30  C   UNL     1      50.705   6.657  16.071  0.00  0.00    +0.000 A 
BRANCH  22  32
ATOM     31  C   UNL     1      47.702   5.142  15.146  0.00  0.00    +0.000 C 
ATOM     32  O   UNL     1      48.331   6.220  15.839  0.00  0.00    +0.000 OA
ENDBRANCH  22  32
ENDBRANCH  18  29
ENDBRANCH   1  20
TORSDOF 8
ENDMDL
MODEL 8
REMARK VINA RESULT:    -6.334      3.379      4.736
REMARK INTER + INTRA:         -10.389
REMARK INTER:                  -9.590
REMARK INTRA:                  -0.799
REMARK UNBOUND:                -1.093
REMARK  Name = 
REMARK  9 active torsions:
REMARK  status: ('A' for Active; 'I' for Inactive)
REMARK    1  A    between atoms: C_1  and  O_2
REMARK    2  A    between atoms: O_2  and  C_3
REMARK    3  A    between atoms: C_10  and  C_11
REMARK    4  A    between atoms: N_13  and  C_14
REMARK    5  A    between atoms: C_14  and  C_15
REMARK    6  A    between atoms: C_18  and  C_19
REMARK    7  A    between atoms: C_19  and  N_20
REMARK    8  A    between atoms: N_20  and  C_21
REMARK    9  A    between atoms: C_21  and  C_22
REMARK                            x       y       z     vdW  Elec       q    Type
REMARK                         _______ _______ _______ _____ _____    ______ ____
ROOT
ATOM      1  C   UNL     1      47.900   6.210  14.131  0.00  0.00    +0.000 C 
ENDROOT
BRANCH   1   2
ATOM      2  C   UNL     1      46.816   5.809  13.165  0.00  0.00    +0.000 A 
ATOM      3  C   UNL     1      46.801   6.317  11.859  0.00  0.00    +0.000 A 
ATOM      4  C   UNL     1      45.759   5.999  10.983  0.00  0.00    +0.000 A 
ATOM      5  C   UNL     1      44.713   5.161  11.392  0.00  0.00    +0.000 A 
ATOM      6  C   UNL     1      44.736   4.645  12.695  0.00  0.00    +0.000 A 
ATOM      7  C   UNL     1      45.773   4.970  13.573  0.00  0.00    +0.000 A 
BRANCH   5   8
ATOM      8  C   UNL     1      43.561   4.835  10.467  0.00  0.00    +0.000 C 
BRANCH   8   9
ATOM      9  N   UNL     1      43.936   4.202   9.204  0.00  0.00    +0.000 NA
ATOM     10  H   UNL     1      44.681   4.736   8.757  0.00  0.00    +0.000 HD
BRANCH   9  11
ATOM     11  C   UNL     1      44.413   2.827   9.376  0.00  0.00    +0.000 C 
BRANCH  11  12
ATOM     12  C   UNL     1      45.560   2.525   8.438  0.00  0.00    +0.000 A 
ATOM     13  C   UNL     1      46.157   3.541   7.697  0.00  0.00    +0.000 A 
ATOM     14  N   UNL     1      47.197   3.325   6.855  0.00  0.00    +0.000 NA
ATOM     15  C   UNL     1      47.634   2.048   6.797  0.00  0.00    +0.000 A 
ATOM     16  C   UNL     1      47.060   1.033   7.542  0.00  0.00    +0.000 A 
ATOM     17  N   UNL     1      46.019   1.245   8.379  0.00  0.00    +0.000 NA
ENDBRANCH  11  12
ENDBRANCH   9  11
ENDBRANCH   8   9
ENDBRANCH   5   8
ENDBRANCH   1   2
BRANCH   1  20
ATOM     18  C   UNL     1      49.865   7.676  14.226  0.00  0.00    +0.000 C 
ATOM     19  O   UNL     1      49.993   7.455  15.428  0.00  0.00    +0.000 OA
ATOM     20  N   UNL     1      48.847   7.105  13.510  0.00  0.00    +0.000 N 
ATOM     21  H   UNL     1      48.737   7.307  12.524  0.00  0.00    +0.000 HD
BRANCH  18  29
ATOM     22  C   UNL     1      53.293   8.132  14.320  0.00  0.00    +0.000 A 
ATOM     23  N   UNL     1      54.572   8.532  14.160  0.00  0.00    +0.000 NA
ATOM     24  C   UNL     1      54.827   9.504  13.280  0.00  0.00    +0.000 A 
ATOM     25  N   UNL     1      53.944  10.143  12.522  0.00  0.00    +0.000 NA
ATOM     26  C   UNL     1      52.683   9.722  12.713  0.00  0.00    +0.000 A 
ATOM     27  S   UNL     1      51.428  10.436  11.823  0.00  0.00    +0.000 S 
ATOM     28  C   UNL     1      50.269   9.452  12.578  0.00  0.00    +0.000 A 
ATOM     29  C   UNL     1      50.798   8.566  13.512  0.00  0.00    +0.000 A 
ATOM     30  C   UNL     1      52.249   8.727  13.587  0.00  0.00    +0.000 A 
BRANCH  22  32
ATOM     31  C   UNL     1      54.215   6.435  15.650  0.00  0.00    +0.000 C 
ATOM     32  O   UNL     1      53.036   7.114  15.218  0.00  0.00    +0.000 OA
ENDBRANCH  22  32
ENDBRANCH  18  29
ENDBRANCH   1  20
TORSDOF 8
ENDMDL
MODEL 9
REMARK VINA RESULT:    -5.838      1.894      2.650
REMARK INTER + INTRA:          -9.661
REMARK INTER:                  -8.425
REMARK INTRA:                  -1.236
REMARK UNBOUND:                -1.093
REMARK  Name = 
REMARK  9 active torsions:
REMARK  status: ('A' for Active; 'I' for Inactive)
REMARK    1  A    between atoms: C_1  and  O_2
REMARK    2  A    between atoms: O_2  and  C_3
REMARK    3  A    between atoms: C_10  and  C_11
REMARK    4  A    between atoms: N_13  and  C_14
REMARK    5  A    between atoms: C_14  and  C_15
REMARK    6  A    between atoms: C_18  and  C_19
REMARK    7  A    between atoms: C_19  and  N_20
REMARK    8  A    between atoms: N_20  and  C_21
REMARK    9  A    between atoms: C_21  and  C_22
REMARK                            x       y       z     vdW  Elec       q    Type
REMARK                         _______ _______ _______ _____ _____    ______ ____
ROOT
ATOM      1  C   UNL     1      50.406   7.989  13.872  0.00  0.00    +0.000 C 
ENDROOT
BRANCH   1   2
ATOM      2  C   UNL     1      49.005   7.879  13.327  0.00  0.00    +0.000 A 
ATOM      3  C   UNL     1      47.937   8.516  13.972  0.00  0.00    +0.000 A 
ATOM      4  C   UNL     1      46.628   8.359  13.507  0.00  0.00    +0.000 A 
ATOM      5  C   UNL     1      46.360   7.568  12.382  0.00  0.00    +0.000 A 
ATOM      6  C   UNL     1      47.432   6.942  11.730  0.00  0.00    +0.000 A 
ATOM      7  C   UNL     1      48.739   7.091  12.201  0.00  0.00    +0.000 A 
BRANCH   5   8
ATOM      8  C   UNL     1      44.946   7.361  11.886  0.00  0.00    +0.000 C 
BRANCH   8   9
ATOM      9  N   UNL     1      44.826   6.593  10.648  0.00  0.00    +0.000 NA
ATOM     10  H   UNL     1      45.723   6.574  10.164  0.00  0.00    +0.000 HD
BRANCH   9  11
ATOM     11  C   UNL     1      44.413   5.205  10.878  0.00  0.00    +0.000 C 
BRANCH  11  12
ATOM     12  C   UNL     1      44.950   4.290   9.801  0.00  0.00    +0.000 A 
ATOM     13  C   UNL     1      45.667   4.805   8.724  0.00  0.00    +0.000 A 
ATOM     14  N   UNL     1      46.182   4.026   7.742  0.00  0.00    +0.000 NA
ATOM     15  C   UNL     1      45.970   2.700   7.890  0.00  0.00    +0.000 A 
ATOM     16  C   UNL     1      45.273   2.175   8.964  0.00  0.00    +0.000 A 
ATOM     17  N   UNL     1      44.753   2.951   9.942  0.00  0.00    +0.000 NA
ENDBRANCH  11  12
ENDBRANCH   9  11
ENDBRANCH   8   9
ENDBRANCH   5   8
ENDBRANCH   1   2
BRANCH   1  20
ATOM     18  C   UNL     1      50.653   8.071  16.311  0.00  0.00    +0.000 C 
ATOM     19  O   UNL     1      50.703   9.299  16.282  0.00  0.00    +0.000 OA
ATOM     20  N   UNL     1      50.516   7.344  15.159  0.00  0.00    +0.000 N 
ATOM     21  H   UNL     1      50.495   6.332  15.190  0.00  0.00    +0.000 HD
BRANCH  18  29
ATOM     22  C   UNL     1      48.752   5.585  17.788  0.00  0.00    +0.000 A 
ATOM     23  N   UNL     1      48.203   4.653  18.594  0.00  0.00    +0.000 NA
ATOM     24  C   UNL     1      48.790   4.405  19.769  0.00  0.00    +0.000 A 
ATOM     25  N   UNL     1      49.882   4.985  20.251  0.00  0.00    +0.000 NA
ATOM     26  C   UNL     1      50.396   5.910  19.423  0.00  0.00    +0.000 A 
ATOM     27  S   UNL     1      51.795   6.751  19.887  0.00  0.00    +0.000 S 
ATOM     28  C   UNL     1      51.791   7.647  18.446  0.00  0.00    +0.000 A 
ATOM     29  C   UNL     1      50.743   7.335  17.585  0.00  0.00    +0.000 A 
ATOM     30  C   UNL     1      49.909   6.288  18.173  0.00  0.00    +0.000 A 
BRANCH  22  32
ATOM     31  C   UNL     1      47.626   4.646  15.958  0.00  0.00    +0.000 C 
ATOM     32  O   UNL     1      48.153   5.825  16.566  0.00  0.00    +0.000 OA
ENDBRANCH  22  32
ENDBRANCH  18  29
ENDBRANCH   1  20
TORSDOF 8
ENDMDL
