MODEL 1
REMARK VINA RESULT:    -8.319      0.000      0.000
REMARK INTER + INTRA:         -11.387
REMARK INTER:                 -10.751
REMARK INTRA:                  -0.635
REMARK UNBOUND:                -0.635
REMARK  Name = 
REMARK  5 active torsions:
REMARK  status: ('A' for Active; 'I' for Inactive)
REMARK    1  A    between atoms: C_2  and  C_4
REMARK    2  A    between atoms: C_8  and  C_9
REMARK    3  A    between atoms: C_9  and  C_10
REMARK    4  A    between atoms: C_10  and  C_11
REMARK    5  A    between atoms: C_13  and  C_14
REMARK                            x       y       z     vdW  Elec       q    Type
REMARK                         _______ _______ _______ _____ _____    ______ ____
ROOT
ATOM      1  C   UNL     1      43.840   4.082  11.543  0.00  0.00    +0.000 C 
ENDROOT
BRANCH   1   2
ATOM      2  C   UNL     1      45.105   4.337  12.329  0.00  0.00    +0.000 A 
ATOM      3  C   UNL     1      45.753   5.551  12.188  0.00  0.00    +0.000 A 
ATOM      4  C   UNL     1      46.951   5.726  12.862  0.00  0.00    +0.000 A 
ATOM      5  N   UNL     1      47.483   4.741  13.617  0.00  0.00    +0.000 NA
ATOM      6  C   UNL     1      46.784   3.597  13.686  0.00  0.00    +0.000 A 
ATOM      7  N   UNL     1      45.618   3.340  13.074  0.00  0.00    +0.000 NA
BRANCH   4   8
ATOM      8  C   UNL     1      47.734   6.975  12.774  0.00  0.00    +0.000 A 
ATOM      9  C   UNL     1      47.206   8.145  12.206  0.00  0.00    +0.000 A 
ATOM     10  C   UNL     1      48.001   9.279  12.117  0.00  0.00    +0.000 A 
ATOM     11  N   UNL     1      49.274   9.338  12.553  0.00  0.00    +0.000 NA
ATOM     12  C   UNL     1      49.770   8.217  13.114  0.00  0.00    +0.000 A 
ATOM     13  C   UNL     1      49.051   7.038  13.247  0.00  0.00    +0.000 A 
ENDBRANCH   4   8
ENDBRANCH   1   2
BRANCH   1  14
ATOM     14  C   UNL     1      43.906   2.858  10.624  0.00  0.00    +0.000 C 
BRANCH  14  19
ATOM     15  C   UNL     1      46.431   2.208   7.829  0.00  0.00    +0.000 A 
ATOM     16  C   UNL     1      46.611   3.498   7.315  0.00  0.00    +0.000 A 
ATOM     17  C   UNL     1      45.947   4.578   7.897  0.00  0.00    +0.000 A 
ATOM     18  C   UNL     1      45.092   4.374   8.982  0.00  0.00    +0.000 A 
ATOM     19  C   UNL     1      44.887   3.086   9.495  0.00  0.00    +0.000 A 
ATOM     20  C   UNL     1      45.560   2.004   8.908  0.00  0.00    +0.000 A 
BRANCH  15  22
ATOM     21  N   UNL     1      46.773  -0.200   7.721  0.00  0.00    +0.000 N 
ATOM     22  C   UNL     1      47.117   1.031   7.237  0.00  0.00    +0.000 C 
ATOM     23  O   UNL     1      47.931   1.150   6.330  0.00  0.00    +0.000 OA
ATOM     24  H   UNL     1      47.167  -0.999   7.239  0.00  0.00    +0.000 HD
ATOM     25  H   UNL     1      45.941  -0.350   8.275  0.00  0.00    +0.000 HD
ENDBRANCH  15  22
ENDBRANCH  14  19
ENDBRANCH   1  14
TORSDOF 5
ENDMDL
MODEL 2
REMARK VINA RESULT:    -7.847      2.594      6.544
REMARK INTER + INTRA:         -10.776
REMARK INTER:                 -10.463
REMARK INTRA:                  -0.312
REMARK UNBOUND:                -0.635
REMARK  Name = 
REMARK  5 active torsions:
REMARK  status: ('A' for Active; 'I' for Inactive)
REMARK    1  A    between atoms: C_2  and  C_4
REMARK    2  A    between atoms: C_8  and  C_9
REMARK    3  A    between atoms: C_9  and  C_10
REMARK    4  A    between atoms: C_10  and  C_11
REMARK    5  A    between atoms: C_13  and  C_14
REMARK                            x       y       z     vdW  Elec       q    Type
REMARK                         _______ _______ _______ _____ _____    ______ ____
ROOT
ATOM      1  C   UNL     1      43.694   6.227  11.606  0.00  0.00    +0.000 C 
ENDROOT
BRANCH   1   2
ATOM      2  C   UNL     1      43.863   4.795  11.154  0.00  0.00    +0.000 A 
ATOM      3  C   UNL     1      44.677   4.521  10.070  0.00  0.00    +0.000 A 
ATOM      4  C   UNL     1      44.751   3.209   9.632  0.00  0.00    +0.000 A 
ATOM      5  N   UNL     1      44.039   2.228  10.227  0.00  0.00    +0.000 NA
ATOM      6  C   UNL     1      43.272   2.593  11.266  0.00  0.00    +0.000 A 
ATOM      7  N   UNL     1      43.141   3.834  11.761  0.00  0.00    +0.000 NA
BRANCH   4   8
ATOM      8  C   UNL     1      45.579   2.805   8.477  0.00  0.00    +0.000 A 
ATOM      9  C   UNL     1      45.922   3.705   7.457  0.00  0.00    +0.000 A 
ATOM     10  C   UNL     1      46.672   3.260   6.377  0.00  0.00    +0.000 A 
ATOM     11  N   UNL     1      47.107   1.993   6.239  0.00  0.00    +0.000 NA
ATOM     12  C   UNL     1      46.790   1.137   7.232  0.00  0.00    +0.000 A 
ATOM     13  C   UNL     1      46.047   1.491   8.348  0.00  0.00    +0.000 A 
ENDBRANCH   4   8
ENDBRANCH   1   2
BRANCH   1  14
ATOM     14  C   UNL     1      44.892   7.129  11.298  0.00  0.00    +0.000 C 
BRANCH  14  19
ATOM     15  C   UNL     1      47.091   5.545  13.993  0.00  0.00    +0.000 A 
ATOM     16  C   UNL     1      48.110   6.496  14.113  0.00  0.00    +0.000 A 
ATOM     17  C   UNL     1      48.064   7.664  13.351  0.00  0.00    +0.000 A 
ATOM     18  C   UNL     1      47.011   7.880  12.460  0.00  0.00    +0.000 A 
ATOM     19  C   UNL     1      45.993   6.926  12.316  0.00  0.00    +0.000 A 
ATOM     20  C   UNL     1      46.043   5.756  13.087  0.00  0.00    +0.000 A 
BRANCH  15  22
ATOM     21  N   UNL     1      46.798   4.381  16.112  0.00  0.00    +0.000 N 
ATOM     22  C   UNL     1      47.105   4.287  14.783  0.00  0.00    +0.000 C 
ATOM     23  O   UNL     1      47.348   3.204  14.265  0.00  0.00    +0.000 OA
ATOM     24  H   UNL     1      46.707   3.507  16.616  0.00  0.00    +0.000 HD
ATOM     25  H   UNL     1      46.353   5.198  16.507  0.00  0.00    +0.000 HD
ENDBRANCH  15  22
ENDBRANCH  14  19
ENDBRANCH   1  14
TORSDOF 5
ENDMDL
MODEL 3
REMARK VINA RESULT:    -7.739      1.429      2.053
REMARK INTER + INTRA:         -10.636
REMARK INTER:                  -9.877
REMARK INTRA:                  -0.759
REMARK UNBOUND:                -0.635
REMARK  Name = 
REMARK  5 active torsions:
REMARK  status: ('A' for Active; 'I' for Inactive)
REMARK    1  A    between atoms: C_2  and  C_4
REMARK    2  A    between atoms: C_8  and  C_9
REMARK    3  A    between atoms: C_9  and  C_10
REMARK    4  A    between atoms: C_10  and  C_11
REMARK    5  A    between atoms: C_13  and  C_14
REMARK                            x       y       z     vdW  Elec       q    Type
REMARK                         _______ _______ _______ _____ _____    ______ ____
ROOT
ATOM      1  C   UNL     1      44.609   5.245  11.197  0.00  0.00    +0.000 C 
ENDROOT
BRANCH   1   2
ATOM      2  C   UNL     1      45.692   5.351  12.245  0.00  0.00    +0.000 A 
ATOM      3  C   UNL     1      46.741   6.230  12.044  0.00  0.00    +0.000 A 
ATOM      4  C   UNL     1      47.758   6.248  12.985  0.00  0.00    +0.000 A 
ATOM      5  N   UNL     1      47.741   5.423  14.054  0.00  0.00    +0.000 NA
ATOM      6  C   UNL     1      46.686   4.602  14.158  0.00  0.00    +0.000 A 
ATOM      7  N   UNL     1      45.656   4.518  13.301  0.00  0.00    +0.000 NA
BRANCH   4   8
ATOM      8  C   UNL     1      48.932   7.137  12.866  0.00  0.00    +0.000 A 
ATOM      9  C   UNL     1      49.724   7.475  13.973  0.00  0.00    +0.000 A 
ATOM     10  C   UNL     1      50.793   8.344  13.808  0.00  0.00    +0.000 A 
ATOM     11  N   UNL     1      51.135   8.896  12.627  0.00  0.00    +0.000 NA
ATOM     12  C   UNL     1      50.382   8.552  11.563  0.00  0.00    +0.000 A 
ATOM     13  C   UNL     1      49.296   7.692  11.632  0.00  0.00    +0.000 A 
ENDBRANCH   4   8
ENDBRANCH   1   2
BRANCH   1  14
ATOM     14  C   UNL     1      45.112   5.373   9.756  0.00  0.00    +0.000 C 
BRANCH  14  19
ATOM     15  C   UNL     1      46.482   2.568   7.550  0.00  0.00    +0.000 A 
ATOM     16  C   UNL     1      45.827   1.452   8.084  0.00  0.00    +0.000 A 
ATOM     17  C   UNL     1      44.916   1.614   9.128  0.00  0.00    +0.000 A 
ATOM     18  C   UNL     1      44.667   2.884   9.652  0.00  0.00    +0.000 A 
ATOM     19  C   UNL     1      45.330   4.009   9.140  0.00  0.00    +0.000 A 
ATOM     20  C   UNL     1      46.242   3.840   8.088  0.00  0.00    +0.000 A 
BRANCH  15  22
ATOM     21  N   UNL     1      47.301   3.270   5.367  0.00  0.00    +0.000 N 
ATOM     22  C   UNL     1      47.461   2.439   6.440  0.00  0.00    +0.000 C 
ATOM     23  O   UNL     1      48.392   1.646   6.493  0.00  0.00    +0.000 OA
ATOM     24  H   UNL     1      48.032   3.247   4.667  0.00  0.00    +0.000 HD
ATOM     25  H   UNL     1      46.712   4.091   5.402  0.00  0.00    +0.000 HD
ENDBRANCH  15  22
ENDBRANCH  14  19
ENDBRANCH   1  14
TORSDOF 5
ENDMDL
MODEL 4
REMARK VINA RESULT:    -7.666      1.510      1.990
REMARK INTER + INTRA:         -10.542
REMARK INTER:                 -10.343
REMARK INTRA:                  -0.199
REMARK UNBOUND:                -0.635
REMARK  Name = 
REMARK  5 active torsions:
REMARK  status: ('A' for Active; 'I' for Inactive)
REMARK    1  A    between atoms: C_2  and  C_4
REMARK    2  A    between atoms: C_8  and  C_9
REMARK    3  A    between atoms: C_9  and  C_10
REMARK    4  A    between atoms: C_10  and  C_11
REMARK    5  A    between atoms: C_13  and  C_14
REMARK                            x       y       z     vdW  Elec       q    Type
REMARK                         _______ _______ _______ _____ _____    ______ ____
ROOT
ATOM      1  C   UNL     1      43.357   3.827  11.153  0.00  0.00    +0.000 C 
ENDROOT
BRANCH   1   2
ATOM      2  C   UNL     1      44.315   4.604  12.026  0.00  0.00    +0.000 A 
ATOM      3  C   UNL     1      44.539   5.942  11.757  0.00  0.00    +0.000 A 
ATOM      4  C   UNL     1      45.481   6.607  12.525  0.00  0.00    +0.000 A 
ATOM      5  N   UNL     1      46.173   5.971  13.494  0.00  0.00    +0.000 NA
ATOM      6  C   UNL     1      45.892   4.672  13.675  0.00  0.00    +0.000 A 
ATOM      7  N   UNL     1      44.996   3.948  12.984  0.00  0.00    +0.000 NA
BRANCH   4   8
ATOM      8  C   UNL     1      45.809   8.032  12.318  0.00  0.00    +0.000 A 
ATOM      9  C   UNL     1      47.044   8.575  12.705  0.00  0.00    +0.000 A 
ATOM     10  C   UNL     1      47.283   9.929  12.519  0.00  0.00    +0.000 A 
ATOM     11  N   UNL     1      46.392  10.779  11.974  0.00  0.00    +0.000 NA
ATOM     12  C   UNL     1      45.214  10.249  11.586  0.00  0.00    +0.000 A 
ATOM     13  C   UNL     1      44.886   8.909  11.731  0.00  0.00    +0.000 A 
ENDBRANCH   4   8
ENDBRANCH   1   2
BRANCH   1  14
ATOM     14  C   UNL     1      43.968   2.585  10.498  0.00  0.00    +0.000 C 
BRANCH  14  19
ATOM     15  C   UNL     1      46.538   2.354   7.678  0.00  0.00    +0.000 A 
ATOM     16  C   UNL     1      46.641   3.695   7.288  0.00  0.00    +0.000 A 
ATOM     17  C   UNL     1      45.910   4.673   7.961  0.00  0.00    +0.000 A 
ATOM     18  C   UNL     1      45.065   4.317   9.014  0.00  0.00    +0.000 A 
ATOM     19  C   UNL     1      44.937   2.976   9.404  0.00  0.00    +0.000 A 
ATOM     20  C   UNL     1      45.677   1.998   8.725  0.00  0.00    +0.000 A 
BRANCH  15  22
ATOM     21  N   UNL     1      48.310   1.671   6.154  0.00  0.00    +0.000 N 
ATOM     22  C   UNL     1      47.297   1.281   6.984  0.00  0.00    +0.000 C 
ATOM     23  O   UNL     1      47.051   0.097   7.170  0.00  0.00    +0.000 OA
ATOM     24  H   UNL     1      48.886   0.932   5.770  0.00  0.00    +0.000 HD
ATOM     25  H   UNL     1      48.698   2.604   6.175  0.00  0.00    +0.000 HD
ENDBRANCH  15  22
ENDBRANCH  14  19
ENDBRANCH   1  14
TORSDOF 5
ENDMDL
MODEL 5
REMARK VINA RESULT:    -7.380      3.233      7.199
REMARK INTER + INTRA:         -10.172
REMARK INTER:                  -9.485
REMARK INTRA:                  -0.687
REMARK UNBOUND:                -0.635
REMARK  Name = 
REMARK  5 active torsions:
REMARK  status: ('A' for Active; 'I' for Inactive)
REMARK    1  A    between atoms: C_2  and  C_4
REMARK    2  A    between atoms: C_8  and  C_9
REMARK    3  A    between atoms: C_9  and  C_10
REMARK    4  A    between atoms: C_10  and  C_11
REMARK    5  A    between atoms: C_13  and  C_14
REMARK                            x       y       z     vdW  Elec       q    Type
REMARK                         _______ _______ _______ _____ _____    ______ ____
ROOT
ATOM      1  C   UNL     1      45.481   6.422  12.647  0.00  0.00    +0.000 C 
ENDROOT
BRANCH   1   2
ATOM      2  C   UNL     1      44.851   5.301  11.853  0.00  0.00    +0.000 A 
ATOM      3  C   UNL     1      45.540   4.767  10.778  0.00  0.00    +0.000 A 
ATOM      4  C   UNL     1      44.904   3.795  10.023  0.00  0.00    +0.000 A 
ATOM      5  N   UNL     1      43.648   3.391  10.310  0.00  0.00    +0.000 NA
ATOM      6  C   UNL     1      43.060   3.973  11.366  0.00  0.00    +0.000 A 
ATOM      7  N   UNL     1      43.598   4.917  12.155  0.00  0.00    +0.000 NA
BRANCH   4   8
ATOM      8  C   UNL     1      45.539   3.165   8.847  0.00  0.00    +0.000 A 
ATOM      9  C   UNL     1      45.783   1.785   8.784  0.00  0.00    +0.000 A 
ATOM     10  C   UNL     1      46.416   1.254   7.669  0.00  0.00    +0.000 A 
ATOM     11  N   UNL     1      46.818   1.989   6.615  0.00  0.00    +0.000 NA
ATOM     12  C   UNL     1      46.564   3.312   6.672  0.00  0.00    +0.000 A 
ATOM     13  C   UNL     1      45.937   3.931   7.743  0.00  0.00    +0.000 A 
ENDBRANCH   4   8
ENDBRANCH   1   2
BRANCH   1  14
ATOM     14  C   UNL     1      47.012   6.429  12.622  0.00  0.00    +0.000 C 
BRANCH  14  19
ATOM     15  C   UNL     1      47.869   4.733  15.938  0.00  0.00    +0.000 A 
ATOM     16  C   UNL     1      48.721   5.678  16.520  0.00  0.00    +0.000 A 
ATOM     17  C   UNL     1      48.986   6.877  15.857  0.00  0.00    +0.000 A 
ATOM     18  C   UNL     1      48.414   7.130  14.609  0.00  0.00    +0.000 A 
ATOM     19  C   UNL     1      47.573   6.183  14.005  0.00  0.00    +0.000 A 
ATOM     20  C   UNL     1      47.308   4.982  14.678  0.00  0.00    +0.000 A 
BRANCH  15  22
ATOM     21  N   UNL     1      48.500   2.452  16.509  0.00  0.00    +0.000 N 
ATOM     22  C   UNL     1      47.564   3.443  16.610  0.00  0.00    +0.000 C 
ATOM     23  O   UNL     1      46.536   3.280  17.254  0.00  0.00    +0.000 OA
ATOM     24  H   UNL     1      48.331   1.617  17.057  0.00  0.00    +0.000 HD
ATOM     25  H   UNL     1      49.448   2.631  16.210  0.00  0.00    +0.000 HD
ENDBRANCH  15  22
ENDBRANCH  14  19
ENDBRANCH   1  14
TORSDOF 5
ENDMDL
MODEL 6
REMARK VINA RESULT:    -7.364      2.920      6.934
REMARK INTER + INTRA:         -10.151
REMARK INTER:                  -9.508
REMARK INTRA:                  -0.643
REMARK UNBOUND:                -0.635
REMARK  Name = 
REMARK  5 active torsions:
REMARK  status: ('A' for Active; 'I' for Inactive)
REMARK    1  A    between atoms: C_2  and  C_4
REMARK    2  A    between atoms: C_8  and  C_9
REMARK    3  A    between atoms: C_9  and  C_10
REMARK    4  A    between atoms: C_10  and  C_11
REMARK    5  A    between atoms: C_13  and  C_14
REMARK                            x       y       z     vdW  Elec       q    Type
REMARK                         _______ _______ _______ _____ _____    ______ ____
ROOT
ATOM      1  C   UNL     1      43.680   3.052  12.240  0.00  0.00    +0.000 C 
ENDROOT
BRANCH   1   2
ATOM      2  C   UNL     1      43.971   3.505  10.828  0.00  0.00    +0.000 A 
ATOM      3  C   UNL     1      44.870   2.785  10.061  0.00  0.00    +0.000 A 
ATOM      4  C   UNL     1      45.175   3.270   8.799  0.00  0.00    +0.000 A 
ATOM      5  N   UNL     1      44.631   4.416   8.336  0.00  0.00    +0.000 NA
ATOM      6  C   UNL     1      43.778   5.047   9.156  0.00  0.00    +0.000 A 
ATOM      7  N   UNL     1      43.421   4.652  10.389  0.00  0.00    +0.000 NA
BRANCH   4   8
ATOM      8  C   UNL     1      46.129   2.590   7.899  0.00  0.00    +0.000 A 
ATOM      9  C   UNL     1      46.438   1.228   8.036  0.00  0.00    +0.000 A 
ATOM     10  C   UNL     1      47.370   0.651   7.184  0.00  0.00    +0.000 A 
ATOM     11  N   UNL     1      48.010   1.323   6.209  0.00  0.00    +0.000 NA
ATOM     12  C   UNL     1      47.695   2.627   6.070  0.00  0.00    +0.000 A 
ATOM     13  C   UNL     1      46.777   3.288   6.872  0.00  0.00    +0.000 A 
ENDBRANCH   4   8
ENDBRANCH   1   2
BRANCH   1  14
ATOM     14  C   UNL     1      43.634   4.186  13.268  0.00  0.00    +0.000 C 
BRANCH  14  19
ATOM     15  C   UNL     1      46.116   7.076  12.966  0.00  0.00    +0.000 A 
ATOM     16  C   UNL     1      47.307   6.460  13.367  0.00  0.00    +0.000 A 
ATOM     17  C   UNL     1      47.313   5.105  13.697  0.00  0.00    +0.000 A 
ATOM     18  C   UNL     1      46.131   4.364  13.641  0.00  0.00    +0.000 A 
ATOM     19  C   UNL     1      44.926   4.973  13.260  0.00  0.00    +0.000 A 
ATOM     20  C   UNL     1      44.928   6.335  12.926  0.00  0.00    +0.000 A 
BRANCH  15  22
ATOM     21  N   UNL     1      44.922   9.197  12.919  0.00  0.00    +0.000 N 
ATOM     22  C   UNL     1      46.067   8.518  12.610  0.00  0.00    +0.000 C 
ATOM     23  O   UNL     1      47.021   9.086  12.093  0.00  0.00    +0.000 OA
ATOM     24  H   UNL     1      44.940  10.199  12.769  0.00  0.00    +0.000 HD
ATOM     25  H   UNL     1      44.233   8.832  13.560  0.00  0.00    +0.000 HD
ENDBRANCH  15  22
ENDBRANCH  14  19
ENDBRANCH   1  14
TORSDOF 5
ENDMDL
MODEL 7
REMARK VINA RESULT:    -7.326      2.925      7.041
REMARK INTER + INTRA:         -10.102
REMARK INTER:                  -9.316
REMARK INTRA:                  -0.786
REMARK UNBOUND:                -0.635
REMARK  Name = 
REMARK  5 active torsions:
REMARK  status: ('A' for Active; 'I' for Inactive)
REMARK    1  A    between atoms: C_2  and  C_4
REMARK    2  A    between atoms: C_8  and  C_9
REMARK    3  A    between atoms: C_9  and  C_10
REMARK    4  A    between atoms: C_10  and  C_11
REMARK    5  A    between atoms: C_13  and  C_14
REMARK                            x       y       z     vdW  Elec       q    Type
REMARK                         _______ _______ _______ _____ _____    ______ ____
ROOT
ATOM      1  C   UNL     1      45.252   5.336  13.238  0.00  0.00    +0.000 C 
ENDROOT
BRANCH   1   2
ATOM      2  C   UNL     1      44.758   4.291  12.266  0.00  0.00    +0.000 A 
ATOM      3  C   UNL     1      45.447   4.092  11.082  0.00  0.00    +0.000 A 
ATOM      4  C   UNL     1      44.925   3.182  10.177  0.00  0.00    +0.000 A 
ATOM      5  N   UNL     1      43.774   2.522  10.428  0.00  0.00    +0.000 NA
ATOM      6  C   UNL     1      43.176   2.787  11.599  0.00  0.00    +0.000 A 
ATOM      7  N   UNL     1      43.608   3.647  12.535  0.00  0.00    +0.000 NA
BRANCH   4   8
ATOM      8  C   UNL     1      45.569   2.899   8.878  0.00  0.00    +0.000 A 
ATOM      9  C   UNL     1      45.980   1.607   8.517  0.00  0.00    +0.000 A 
ATOM     10  C   UNL     1      46.613   1.407   7.298  0.00  0.00    +0.000 A 
ATOM     11  N   UNL     1      46.863   2.392   6.414  0.00  0.00    +0.000 NA
ATOM     12  C   UNL     1      46.449   3.629   6.758  0.00  0.00    +0.000 A 
ATOM     13  C   UNL     1      45.808   3.923   7.952  0.00  0.00    +0.000 A 
ENDBRANCH   4   8
ENDBRANCH   1   2
BRANCH   1  14
ATOM     14  C   UNL     1      46.772   5.525  13.242  0.00  0.00    +0.000 C 
BRANCH  14  19
ATOM     15  C   UNL     1      46.493   9.154  12.077  0.00  0.00    +0.000 A 
ATOM     16  C   UNL     1      47.841   9.519  11.983  0.00  0.00    +0.000 A 
ATOM     17  C   UNL     1      48.836   8.581  12.259  0.00  0.00    +0.000 A 
ATOM     18  C   UNL     1      48.490   7.283  12.642  0.00  0.00    +0.000 A 
ATOM     19  C   UNL     1      47.144   6.909  12.759  0.00  0.00    +0.000 A 
ATOM     20  C   UNL     1      46.148   7.856  12.477  0.00  0.00    +0.000 A 
BRANCH  15  22
ATOM     21  N   UNL     1      44.283  10.046  12.573  0.00  0.00    +0.000 N 
ATOM     22  C   UNL     1      45.403  10.124  11.795  0.00  0.00    +0.000 C 
ATOM     23  O   UNL     1      45.513  10.980  10.926  0.00  0.00    +0.000 OA
ATOM     24  H   UNL     1      43.593  10.777  12.443  0.00  0.00    +0.000 HD
ATOM     25  H   UNL     1      44.263   9.534  13.443  0.00  0.00    +0.000 HD
ENDBRANCH  15  22
ENDBRANCH  14  19
ENDBRANCH   1  14
TORSDOF 5
ENDMDL
MODEL 8
REMARK VINA RESULT:    -7.305      1.884      3.064
REMARK INTER + INTRA:         -10.076
REMARK INTER:                  -9.535
REMARK INTRA:                  -0.541
REMARK UNBOUND:                -0.635
REMARK  Name = 
REMARK  5 active torsions:
REMARK  status: ('A' for Active; 'I' for Inactive)
REMARK    1  A    between atoms: C_2  and  C_4
REMARK    2  A    between atoms: C_8  and  C_9
REMARK    3  A    between atoms: C_9  and  C_10
REMARK    4  A    between atoms: C_10  and  C_11
REMARK    5  A    between atoms: C_13  and  C_14
REMARK                            x       y       z     vdW  Elec       q    Type
REMARK                         _______ _______ _______ _____ _____    ______ ____
ROOT
ATOM      1  C   UNL     1      43.837   4.168  11.709  0.00  0.00    +0.000 C 
ENDROOT
BRANCH   1   2
ATOM      2  C   UNL     1      45.093   4.858  12.188  0.00  0.00    +0.000 A 
ATOM      3  C   UNL     1      45.677   4.449  13.373  0.00  0.00    +0.000 A 
ATOM      4  C   UNL     1      46.782   5.151  13.825  0.00  0.00    +0.000 A 
ATOM      5  N   UNL     1      47.265   6.214  13.146  0.00  0.00    +0.000 NA
ATOM      6  C   UNL     1      46.627   6.539  12.012  0.00  0.00    +0.000 A 
ATOM      7  N   UNL     1      45.555   5.917  11.497  0.00  0.00    +0.000 NA
BRANCH   4   8
ATOM      8  C   UNL     1      47.478   4.809  15.083  0.00  0.00    +0.000 A 
ATOM      9  C   UNL     1      47.369   3.541  15.672  0.00  0.00    +0.000 A 
ATOM     10  C   UNL     1      48.015   3.288  16.874  0.00  0.00    +0.000 A 
ATOM     11  N   UNL     1      48.763   4.197  17.528  0.00  0.00    +0.000 NA
ATOM     12  C   UNL     1      48.880   5.409  16.947  0.00  0.00    +0.000 A 
ATOM     13  C   UNL     1      48.272   5.752  15.749  0.00  0.00    +0.000 A 
ENDBRANCH   4   8
ENDBRANCH   1   2
BRANCH   1  14
ATOM     14  C   UNL     1      44.076   2.796  11.073  0.00  0.00    +0.000 C 
BRANCH  14  19
ATOM     15  C   UNL     1      46.150   2.052   7.949  0.00  0.00    +0.000 A 
ATOM     16  C   UNL     1      45.832   3.149   7.139  0.00  0.00    +0.000 A 
ATOM     17  C   UNL     1      44.980   4.144   7.618  0.00  0.00    +0.000 A 
ATOM     18  C   UNL     1      44.432   4.042   8.899  0.00  0.00    +0.000 A 
ATOM     19  C   UNL     1      44.726   2.940   9.714  0.00  0.00    +0.000 A 
ATOM     20  C   UNL     1      45.587   1.944   9.228  0.00  0.00    +0.000 A 
BRANCH  15  22
ATOM     21  N   UNL     1      46.666  -0.317   7.728  0.00  0.00    +0.000 N 
ATOM     22  C   UNL     1      47.051   0.970   7.476  0.00  0.00    +0.000 C 
ATOM     23  O   UNL     1      48.078   1.213   6.856  0.00  0.00    +0.000 OA
ATOM     24  H   UNL     1      47.231  -1.046   7.310  0.00  0.00    +0.000 HD
ATOM     25  H   UNL     1      45.723  -0.555   8.004  0.00  0.00    +0.000 HD
ENDBRANCH  15  22
ENDBRANCH  14  19
ENDBRANCH   1  14
TORSDOF 5
ENDMDL
MODEL 9
REMARK VINA RESULT:    -7.165      2.595      6.747
REMARK INTER + INTRA:          -9.894
REMARK INTER:                  -9.115
REMARK INTRA:                  -0.780
REMARK UNBOUND:                -0.635
REMARK  Name = 
REMARK  5 active torsions:
REMARK  status: ('A' for Active; 'I' for Inactive)
REMARK    1  A    between atoms: C_2  and  C_4
REMARK    2  A    between atoms: C_8  and  C_9
REMARK    3  A    between atoms: C_9  and  C_10
REMARK    4  A    between atoms: C_10  and  C_11
REMARK    5  A    between atoms: C_13  and  C_14
REMARK                            x       y       z     vdW  Elec       q    Type
REMARK                         _______ _______ _______ _____ _____    ______ ____
ROOT
ATOM      1  C   UNL     1      44.632   5.698  12.871  0.00  0.00    +0.000 C 
ENDROOT
BRANCH   1   2
ATOM      2  C   UNL     1      44.396   4.459  12.039  0.00  0.00    +0.000 A 
ATOM      3  C   UNL     1      45.129   4.276  10.880  0.00  0.00    +0.000 A 
ATOM      4  C   UNL     1      44.836   3.170  10.098  0.00  0.00    +0.000 A 
ATOM      5  N   UNL     1      43.856   2.307  10.442  0.00  0.00    +0.000 NA
ATOM      6  C   UNL     1      43.196   2.572  11.579  0.00  0.00    +0.000 A 
ATOM      7  N   UNL     1      43.413   3.613  12.399  0.00  0.00    +0.000 NA
BRANCH   4   8
ATOM      8  C   UNL     1      45.545   2.883   8.835  0.00  0.00    +0.000 A 
ATOM      9  C   UNL     1      45.981   1.591   8.504  0.00  0.00    +0.000 A 
ATOM     10  C   UNL     1      46.675   1.387   7.320  0.00  0.00    +0.000 A 
ATOM     11  N   UNL     1      46.963   2.367   6.442  0.00  0.00    +0.000 NA
ATOM     12  C   UNL     1      46.525   3.603   6.756  0.00  0.00    +0.000 A 
ATOM     13  C   UNL     1      45.824   3.902   7.914  0.00  0.00    +0.000 A 
ENDBRANCH   4   8
ENDBRANCH   1   2
BRANCH   1  14
ATOM     14  C   UNL     1      44.523   7.010  12.091  0.00  0.00    +0.000 C 
BRANCH  14  19
ATOM     15  C   UNL     1      48.146   8.006  12.794  0.00  0.00    +0.000 A 
ATOM     16  C   UNL     1      48.131   9.362  12.448  0.00  0.00    +0.000 A 
ATOM     17  C   UNL     1      46.944   9.960  12.025  0.00  0.00    +0.000 A 
ATOM     18  C   UNL     1      45.773   9.205  11.933  0.00  0.00    +0.000 A 
ATOM     19  C   UNL     1      45.776   7.841  12.259  0.00  0.00    +0.000 A 
ATOM     20  C   UNL     1      46.972   7.247  12.686  0.00  0.00    +0.000 A 
BRANCH  15  22
ATOM     21  N   UNL     1      50.530   7.586  12.536  0.00  0.00    +0.000 N 
ATOM     22  C   UNL     1      49.390   7.331  13.246  0.00  0.00    +0.000 C 
ATOM     23  O   UNL     1      49.406   6.604  14.230  0.00  0.00    +0.000 OA
ATOM     24  H   UNL     1      51.389   7.206  12.913  0.00  0.00    +0.000 HD
ATOM     25  H   UNL     1      50.604   8.360  11.891  0.00  0.00    +0.000 HD
ENDBRANCH  15  22
ENDBRANCH  14  19
ENDBRANCH   1  14
TORSDOF 5
ENDMDL
