MODEL 1
REMARK VINA RESULT:    -7.968      0.000      0.000
REMARK INTER + INTRA:         -10.238
REMARK INTER:                  -9.831
REMARK INTRA:                  -0.407
REMARK UNBOUND:                -0.407
REMARK  Name = 
REMARK  4 active torsions:
REMARK  status: ('A' for Active; 'I' for Inactive)
REMARK    1  A    between atoms: C_2  and  C_4
REMARK    2  A    between atoms: C_7  and  O_8
REMARK    3  A    between atoms: O_8  and  C_9
REMARK    4  A    between atoms: C_9  and  C_10
REMARK                            x       y       z     vdW  Elec       q    Type
REMARK                         _______ _______ _______ _____ _____    ______ ____
ROOT
ATOM      1  C   UNL     1      46.406   2.512   7.659  0.00  0.00    +0.000 A 
ATOM      2  C   UNL     1      45.490   1.861   8.489  0.00  0.00    +0.000 A 
ATOM      3  C   UNL     1      44.550   2.619   9.190  0.00  0.00    +0.000 A 
ATOM      4  C   UNL     1      44.579   3.999   9.055  0.00  0.00    +0.000 A 
ATOM      5  N   UNL     1      45.457   4.651   8.262  0.00  0.00    +0.000 NA
ATOM      6  C   UNL     1      46.354   3.895   7.586  0.00  0.00    +0.000 A 
ENDROOT
BRANCH   1   8
ATOM      7  N   UNL     1      48.519   2.534   6.466  0.00  0.00    +0.000 N 
ATOM      8  C   UNL     1      47.441   1.803   6.876  0.00  0.00    +0.000 C 
ATOM      9  O   UNL     1      47.352   0.607   6.638  0.00  0.00    +0.000 OA
ATOM     10  H   UNL     1      49.269   2.015   6.025  0.00  0.00    +0.000 HD
ATOM     11  H   UNL     1      48.747   3.439   6.856  0.00  0.00    +0.000 HD
ENDBRANCH   1   8
BRANCH   4  12
ATOM     12  O   UNL     1      43.636   4.730   9.750  0.00  0.00    +0.000 OA
BRANCH  12  13
ATOM     13  C   UNL     1      43.455   4.215  11.076  0.00  0.00    +0.000 C 
BRANCH  13  14
ATOM     14  C   UNL     1      44.623   4.557  11.966  0.00  0.00    +0.000 A 
ATOM     15  C   UNL     1      44.947   5.892  12.233  0.00  0.00    +0.000 A 
ATOM     16  C   UNL     1      45.990   6.191  13.105  0.00  0.00    +0.000 A 
ATOM     17  C   UNL     1      46.668   5.141  13.695  0.00  0.00    +0.000 A 
ATOM     18  F   UNL     1      47.674   5.424  14.535  0.00  0.00    +0.000 F 
ATOM     19  N   UNL     1      46.374   3.841  13.487  0.00  0.00    +0.000 NA
ATOM     20  C   UNL     1      45.356   3.580  12.634  0.00  0.00    +0.000 A 
ENDBRANCH  13  14
ENDBRANCH  12  13
ENDBRANCH   4  12
TORSDOF 4
ENDMDL
MODEL 2
REMARK VINA RESULT:    -7.540      3.158      6.276
REMARK INTER + INTRA:          -9.710
REMARK INTER:                  -9.259
REMARK INTRA:                  -0.451
REMARK UNBOUND:                -0.407
REMARK  Name = 
REMARK  4 active torsions:
REMARK  status: ('A' for Active; 'I' for Inactive)
REMARK    1  A    between atoms: C_2  and  C_4
REMARK    2  A    between atoms: C_7  and  O_8
REMARK    3  A    between atoms: O_8  and  C_9
REMARK    4  A    between atoms: C_9  and  C_10
REMARK                            x       y       z     vdW  Elec       q    Type
REMARK                         _______ _______ _______ _____ _____    ______ ____
ROOT
ATOM      1  C   UNL     1      46.499   5.514  12.725  0.00  0.00    +0.000 A 
ATOM      2  C   UNL     1      46.308   6.183  11.514  0.00  0.00    +0.000 A 
ATOM      3  C   UNL     1      45.543   5.577  10.515  0.00  0.00    +0.000 A 
ATOM      4  C   UNL     1      45.021   4.315  10.756  0.00  0.00    +0.000 A 
ATOM      5  N   UNL     1      45.195   3.646  11.916  0.00  0.00    +0.000 NA
ATOM      6  C   UNL     1      45.933   4.257  12.873  0.00  0.00    +0.000 A 
ENDROOT
BRANCH   1   8
ATOM      7  N   UNL     1      47.245   7.419  14.029  0.00  0.00    +0.000 N 
ATOM      8  C   UNL     1      47.291   6.067  13.844  0.00  0.00    +0.000 C 
ATOM      9  O   UNL     1      47.931   5.341  14.591  0.00  0.00    +0.000 OA
ATOM     10  H   UNL     1      47.704   7.772  14.861  0.00  0.00    +0.000 HD
ATOM     11  H   UNL     1      46.540   8.006  13.604  0.00  0.00    +0.000 HD
ENDBRANCH   1   8
BRANCH   4  12
ATOM     12  O   UNL     1      44.262   3.736   9.758  0.00  0.00    +0.000 OA
BRANCH  12  13
ATOM     13  C   UNL     1      44.674   2.386   9.510  0.00  0.00    +0.000 C 
BRANCH  13  14
ATOM     14  C   UNL     1      45.588   2.297   8.314  0.00  0.00    +0.000 A 
ATOM     15  C   UNL     1      45.747   3.393   7.457  0.00  0.00    +0.000 A 
ATOM     16  C   UNL     1      46.639   3.315   6.391  0.00  0.00    +0.000 A 
ATOM     17  C   UNL     1      47.358   2.146   6.226  0.00  0.00    +0.000 A 
ATOM     18  F   UNL     1      48.219   2.067   5.201  0.00  0.00    +0.000 F 
ATOM     19  N   UNL     1      47.256   1.076   7.041  0.00  0.00    +0.000 NA
ATOM     20  C   UNL     1      46.380   1.179   8.068  0.00  0.00    +0.000 A 
ENDBRANCH  13  14
ENDBRANCH  12  13
ENDBRANCH   4  12
TORSDOF 4
ENDMDL
MODEL 3
REMARK VINA RESULT:    -6.760      3.123      6.535
REMARK INTER + INTRA:          -8.748
REMARK INTER:                  -8.490
REMARK INTRA:                  -0.257
REMARK UNBOUND:                -0.407
REMARK  Name = 
REMARK  4 active torsions:
REMARK  status: ('A' for Active; 'I' for Inactive)
REMARK    1  A    between atoms: C_2  and  C_4
REMARK    2  A    between atoms: C_7  and  O_8
REMARK    3  A    between atoms: O_8  and  C_9
REMARK    4  A    between atoms: C_9  and  C_10
REMARK                            x       y       z     vdW  Elec       q    Type
REMARK                         _______ _______ _______ _____ _____    ______ ____
ROOT
ATOM      1  C   UNL     1      45.281   7.010  12.251  0.00  0.00    +0.000 A 
ATOM      2  C   UNL     1      44.530   6.064  12.952  0.00  0.00    +0.000 A 
ATOM      3  C   UNL     1      44.434   4.764  12.452  0.00  0.00    +0.000 A 
ATOM      4  C   UNL     1      45.070   4.467  11.255  0.00  0.00    +0.000 A 
ATOM      5  N   UNL     1      45.798   5.365  10.557  0.00  0.00    +0.000 NA
ATOM      6  C   UNL     1      45.884   6.616  11.066  0.00  0.00    +0.000 A 
ENDROOT
BRANCH   1   8
ATOM      7  N   UNL     1      46.353   8.646  13.686  0.00  0.00    +0.000 N 
ATOM      8  C   UNL     1      45.445   8.411  12.694  0.00  0.00    +0.000 C 
ATOM      9  O   UNL     1      44.820   9.321  12.171  0.00  0.00    +0.000 OA
ATOM     10  H   UNL     1      46.533   9.619  13.906  0.00  0.00    +0.000 HD
ATOM     11  H   UNL     1      47.058   7.972  13.955  0.00  0.00    +0.000 HD
ENDBRANCH   1   8
BRANCH   4  12
ATOM     12  O   UNL     1      44.969   3.174  10.781  0.00  0.00    +0.000 OA
BRANCH  12  13
ATOM     13  C   UNL     1      44.417   3.149   9.458  0.00  0.00    +0.000 C 
BRANCH  13  14
ATOM     14  C   UNL     1      45.464   2.808   8.428  0.00  0.00    +0.000 A 
ATOM     15  C   UNL     1      46.032   1.529   8.387  0.00  0.00    +0.000 A 
ATOM     16  C   UNL     1      46.953   1.211   7.393  0.00  0.00    +0.000 A 
ATOM     17  C   UNL     1      47.267   2.182   6.460  0.00  0.00    +0.000 A 
ATOM     18  F   UNL     1      48.154   1.880   5.501  0.00  0.00    +0.000 F 
ATOM     19  N   UNL     1      46.726   3.418   6.446  0.00  0.00    +0.000 NA
ATOM     20  C   UNL     1      45.834   3.699   7.424  0.00  0.00    +0.000 A 
ENDBRANCH  13  14
ENDBRANCH  12  13
ENDBRANCH   4  12
TORSDOF 4
ENDMDL
MODEL 4
REMARK VINA RESULT:    -6.517      3.287      6.259
REMARK INTER + INTRA:          -8.448
REMARK INTER:                  -7.979
REMARK INTRA:                  -0.469
REMARK UNBOUND:                -0.407
REMARK  Name = 
REMARK  4 active torsions:
REMARK  status: ('A' for Active; 'I' for Inactive)
REMARK    1  A    between atoms: C_2  and  C_4
REMARK    2  A    between atoms: C_7  and  O_8
REMARK    3  A    between atoms: O_8  and  C_9
REMARK    4  A    between atoms: C_9  and  C_10
REMARK                            x       y       z     vdW  Elec       q    Type
REMARK                         _______ _______ _______ _____ _____    ______ ____
ROOT
ATOM      1  C   UNL     1      46.529   7.562  12.296  0.00  0.00    +0.000 A 
ATOM      2  C   UNL     1      45.253   7.768  11.767  0.00  0.00    +0.000 A 
ATOM      3  C   UNL     1      44.501   6.665  11.355  0.00  0.00    +0.000 A 
ATOM      4  C   UNL     1      45.064   5.403  11.463  0.00  0.00    +0.000 A 
ATOM      5  N   UNL     1      46.297   5.178  11.967  0.00  0.00    +0.000 NA
ATOM      6  C   UNL     1      47.004   6.261  12.368  0.00  0.00    +0.000 A 
ENDROOT
BRANCH   1   8
ATOM      7  N   UNL     1      47.051   9.288  13.919  0.00  0.00    +0.000 N 
ATOM      8  C   UNL     1      47.405   8.659  12.760  0.00  0.00    +0.000 C 
ATOM      9  O   UNL     1      48.419   8.965  12.150  0.00  0.00    +0.000 OA
ATOM     10  H   UNL     1      47.715   9.963  14.281  0.00  0.00    +0.000 HD
ATOM     11  H   UNL     1      46.382   8.901  14.570  0.00  0.00    +0.000 HD
ENDBRANCH   1   8
BRANCH   4  12
ATOM     12  O   UNL     1      44.302   4.325  11.056  0.00  0.00    +0.000 OA
BRANCH  12  13
ATOM     13  C   UNL     1      44.044   4.375   9.647  0.00  0.00    +0.000 C 
BRANCH  13  14
ATOM     14  C   UNL     1      44.966   3.459   8.884  0.00  0.00    +0.000 A 
ATOM     15  C   UNL     1      45.849   3.973   7.926  0.00  0.00    +0.000 A 
ATOM     16  C   UNL     1      46.735   3.122   7.273  0.00  0.00    +0.000 A 
ATOM     17  C   UNL     1      46.723   1.781   7.611  0.00  0.00    +0.000 A 
ATOM     18  F   UNL     1      47.575   0.958   6.984  0.00  0.00    +0.000 F 
ATOM     19  N   UNL     1      45.909   1.247   8.545  0.00  0.00    +0.000 NA
ATOM     20  C   UNL     1      45.056   2.098   9.163  0.00  0.00    +0.000 A 
ENDBRANCH  13  14
ENDBRANCH  12  13
ENDBRANCH   4  12
TORSDOF 4
ENDMDL
MODEL 5
REMARK VINA RESULT:    -6.019      3.653      5.684
REMARK INTER + INTRA:          -7.834
REMARK INTER:                  -7.475
REMARK INTRA:                  -0.359
REMARK UNBOUND:                -0.407
REMARK  Name = 
REMARK  4 active torsions:
REMARK  status: ('A' for Active; 'I' for Inactive)
REMARK    1  A    between atoms: C_2  and  C_4
REMARK    2  A    between atoms: C_7  and  O_8
REMARK    3  A    between atoms: O_8  and  C_9
REMARK    4  A    between atoms: C_9  and  C_10
REMARK                            x       y       z     vdW  Elec       q    Type
REMARK                         _______ _______ _______ _____ _____    ______ ____
ROOT
ATOM      1  C   UNL     1      45.089   4.364  11.564  0.00  0.00    +0.000 A 
ATOM      2  C   UNL     1      45.514   5.679  11.764  0.00  0.00    +0.000 A 
ATOM      3  C   UNL     1      46.296   5.979  12.881  0.00  0.00    +0.000 A 
ATOM      4  C   UNL     1      46.601   4.958  13.769  0.00  0.00    +0.000 A 
ATOM      5  N   UNL     1      46.198   3.680  13.599  0.00  0.00    +0.000 NA
ATOM      6  C   UNL     1      45.448   3.412  12.505  0.00  0.00    +0.000 A 
ENDROOT
BRANCH   1   8
ATOM      7  N   UNL     1      44.342   4.693   9.279  0.00  0.00    +0.000 N 
ATOM      8  C   UNL     1      44.257   3.943  10.416  0.00  0.00    +0.000 C 
ATOM      9  O   UNL     1      43.552   2.946  10.473  0.00  0.00    +0.000 OA
ATOM     10  H   UNL     1      43.852   4.334   8.469  0.00  0.00    +0.000 HD
ATOM     11  H   UNL     1      45.090   5.353   9.113  0.00  0.00    +0.000 HD
ENDBRANCH   1   8
BRANCH   4  12
ATOM     12  O   UNL     1      47.382   5.274  14.863  0.00  0.00    +0.000 OA
BRANCH  12  13
ATOM     13  C   UNL     1      47.126   4.384  15.957  0.00  0.00    +0.000 C 
BRANCH  13  14
ATOM     14  C   UNL     1      48.390   3.712  16.430  0.00  0.00    +0.000 A 
ATOM     15  C   UNL     1      49.290   4.391  17.260  0.00  0.00    +0.000 A 
ATOM     16  C   UNL     1      50.422   3.736  17.737  0.00  0.00    +0.000 A 
ATOM     17  C   UNL     1      50.610   2.414  17.380  0.00  0.00    +0.000 A 
ATOM     18  F   UNL     1      51.699   1.780  17.837  0.00  0.00    +0.000 F 
ATOM     19  N   UNL     1      49.757   1.713  16.605  0.00  0.00    +0.000 NA
ATOM     20  C   UNL     1      48.666   2.375  16.155  0.00  0.00    +0.000 A 
ENDBRANCH  13  14
ENDBRANCH  12  13
ENDBRANCH   4  12
TORSDOF 4
ENDMDL
MODEL 6
REMARK VINA RESULT:    -5.764      3.436      6.645
REMARK INTER + INTRA:          -7.520
REMARK INTER:                  -7.212
REMARK INTRA:                  -0.307
REMARK UNBOUND:                -0.407
REMARK  Name = 
REMARK  4 active torsions:
REMARK  status: ('A' for Active; 'I' for Inactive)
REMARK    1  A    between atoms: C_2  and  C_4
REMARK    2  A    between atoms: C_7  and  O_8
REMARK    3  A    between atoms: O_8  and  C_9
REMARK    4  A    between atoms: C_9  and  C_10
REMARK                            x       y       z     vdW  Elec       q    Type
REMARK                         _______ _______ _______ _____ _____    ______ ____
ROOT
ATOM      1  C   UNL     1      47.898   6.609  14.270  0.00  0.00    +0.000 A 
ATOM      2  C   UNL     1      47.465   7.677  13.481  0.00  0.00    +0.000 A 
ATOM      3  C   UNL     1      46.370   7.496  12.634  0.00  0.00    +0.000 A 
ATOM      4  C   UNL     1      45.768   6.247  12.588  0.00  0.00    +0.000 A 
ATOM      5  N   UNL     1      46.171   5.199  13.338  0.00  0.00    +0.000 NA
ATOM      6  C   UNL     1      47.228   5.400  14.158  0.00  0.00    +0.000 A 
ENDROOT
BRANCH   1   8
ATOM      7  N   UNL     1      50.222   7.166  14.689  0.00  0.00    +0.000 N 
ATOM      8  C   UNL     1      49.046   6.696  15.199  0.00  0.00    +0.000 C 
ATOM      9  O   UNL     1      48.936   6.392  16.378  0.00  0.00    +0.000 OA
ATOM     10  H   UNL     1      50.968   7.321  15.357  0.00  0.00    +0.000 HD
ATOM     11  H   UNL     1      50.279   7.658  13.808  0.00  0.00    +0.000 HD
ENDBRANCH   1   8
BRANCH   4  12
ATOM     12  O   UNL     1      44.682   6.091  11.748  0.00  0.00    +0.000 OA
BRANCH  12  13
ATOM     13  C   UNL     1      44.380   4.705  11.544  0.00  0.00    +0.000 C 
BRANCH  13  14
ATOM     14  C   UNL     1      44.848   4.230  10.192  0.00  0.00    +0.000 A 
ATOM     15  C   UNL     1      44.495   2.960   9.722  0.00  0.00    +0.000 A 
ATOM     16  C   UNL     1      44.885   2.559   8.448  0.00  0.00    +0.000 A 
ATOM     17  C   UNL     1      45.606   3.451   7.675  0.00  0.00    +0.000 A 
ATOM     18  F   UNL     1      45.984   3.069   6.447  0.00  0.00    +0.000 F 
ATOM     19  N   UNL     1      45.947   4.693   8.077  0.00  0.00    +0.000 NA
ATOM     20  C   UNL     1      45.555   5.055   9.321  0.00  0.00    +0.000 A 
ENDBRANCH  13  14
ENDBRANCH  12  13
ENDBRANCH   4  12
TORSDOF 4
ENDMDL
MODEL 7
REMARK VINA RESULT:    -5.656      4.943      8.350
REMARK INTER + INTRA:          -7.386
REMARK INTER:                  -7.077
REMARK INTRA:                  -0.309
REMARK UNBOUND:                -0.407
REMARK  Name = 
REMARK  4 active torsions:
REMARK  status: ('A' for Active; 'I' for Inactive)
REMARK    1  A    between atoms: C_2  and  C_4
REMARK    2  A    between atoms: C_7  and  O_8
REMARK    3  A    between atoms: O_8  and  C_9
REMARK    4  A    between atoms: C_9  and  C_10
REMARK                            x       y       z     vdW  Elec       q    Type
REMARK                         _______ _______ _______ _____ _____    ______ ____
ROOT
ATOM      1  C   UNL     1      48.644   4.335  18.336  0.00  0.00    +0.000 A 
ATOM      2  C   UNL     1      48.001   3.124  18.072  0.00  0.00    +0.000 A 
ATOM      3  C   UNL     1      47.438   2.913  16.812  0.00  0.00    +0.000 A 
ATOM      4  C   UNL     1      47.515   3.932  15.874  0.00  0.00    +0.000 A 
ATOM      5  N   UNL     1      48.127   5.113  16.107  0.00  0.00    +0.000 NA
ATOM      6  C   UNL     1      48.674   5.291  17.332  0.00  0.00    +0.000 A 
ENDROOT
BRANCH   1   8
ATOM      7  N   UNL     1      48.692   4.129  20.753  0.00  0.00    +0.000 N 
ATOM      8  C   UNL     1      49.272   4.657  19.636  0.00  0.00    +0.000 C 
ATOM      9  O   UNL     1      50.285   5.338  19.702  0.00  0.00    +0.000 OA
ATOM     10  H   UNL     1      49.192   4.268  21.624  0.00  0.00    +0.000 HD
ATOM     11  H   UNL     1      48.026   3.370  20.717  0.00  0.00    +0.000 HD
ENDBRANCH   1   8
BRANCH   4  12
ATOM     12  O   UNL     1      46.957   3.701  14.632  0.00  0.00    +0.000 OA
BRANCH  12  13
ATOM     13  C   UNL     1      46.658   4.932  13.961  0.00  0.00    +0.000 C 
BRANCH  13  14
ATOM     14  C   UNL     1      45.956   4.691  12.649  0.00  0.00    +0.000 A 
ATOM     15  C   UNL     1      45.380   3.446  12.368  0.00  0.00    +0.000 A 
ATOM     16  C   UNL     1      44.683   3.258  11.178  0.00  0.00    +0.000 A 
ATOM     17  C   UNL     1      44.571   4.328  10.311  0.00  0.00    +0.000 A 
ATOM     18  F   UNL     1      43.902   4.151   9.163  0.00  0.00    +0.000 F 
ATOM     19  N   UNL     1      45.088   5.551  10.551  0.00  0.00    +0.000 NA
ATOM     20  C   UNL     1      45.761   5.705  11.716  0.00  0.00    +0.000 A 
ENDBRANCH  13  14
ENDBRANCH  12  13
ENDBRANCH   4  12
TORSDOF 4
ENDMDL
MODEL 8
REMARK VINA RESULT:    -5.601      3.716      5.959
REMARK INTER + INTRA:          -7.318
REMARK INTER:                  -6.971
REMARK INTRA:                  -0.347
REMARK UNBOUND:                -0.407
REMARK  Name = 
REMARK  4 active torsions:
REMARK  status: ('A' for Active; 'I' for Inactive)
REMARK    1  A    between atoms: C_2  and  C_4
REMARK    2  A    between atoms: C_7  and  O_8
REMARK    3  A    between atoms: O_8  and  C_9
REMARK    4  A    between atoms: C_9  and  C_10
REMARK                            x       y       z     vdW  Elec       q    Type
REMARK                         _______ _______ _______ _____ _____    ______ ____
ROOT
ATOM      1  C   UNL     1      44.845   4.805  11.733  0.00  0.00    +0.000 A 
ATOM      2  C   UNL     1      45.643   5.800  12.302  0.00  0.00    +0.000 A 
ATOM      3  C   UNL     1      46.592   5.444  13.263  0.00  0.00    +0.000 A 
ATOM      4  C   UNL     1      46.687   4.112  13.637  0.00  0.00    +0.000 A 
ATOM      5  N   UNL     1      45.924   3.133  13.104  0.00  0.00    +0.000 NA
ATOM      6  C   UNL     1      45.017   3.501  12.168  0.00  0.00    +0.000 A 
ENDROOT
BRANCH   1   8
ATOM      7  N   UNL     1      44.121   4.765   9.417  0.00  0.00    +0.000 N 
ATOM      8  C   UNL     1      43.812   5.077  10.710  0.00  0.00    +0.000 C 
ATOM      9  O   UNL     1      42.717   5.527  11.014  0.00  0.00    +0.000 OA
ATOM     10  H   UNL     1      43.370   4.855   8.744  0.00  0.00    +0.000 HD
ATOM     11  H   UNL     1      44.897   4.166   9.169  0.00  0.00    +0.000 HD
ENDBRANCH   1   8
BRANCH   4  12
ATOM     12  O   UNL     1      47.636   3.779  14.583  0.00  0.00    +0.000 OA
BRANCH  12  13
ATOM     13  C   UNL     1      47.150   4.016  15.911  0.00  0.00    +0.000 C 
BRANCH  13  14
ATOM     14  C   UNL     1      48.222   4.597  16.797  0.00  0.00    +0.000 A 
ATOM     15  C   UNL     1      48.897   3.791  17.721  0.00  0.00    +0.000 A 
ATOM     16  C   UNL     1      49.925   4.328  18.489  0.00  0.00    +0.000 A 
ATOM     17  C   UNL     1      50.257   5.656  18.298  0.00  0.00    +0.000 A 
ATOM     18  F   UNL     1      51.247   6.178  19.036  0.00  0.00    +0.000 F 
ATOM     19  N   UNL     1      49.652   6.464  17.402  0.00  0.00    +0.000 NA
ATOM     20  C   UNL     1      48.655   5.914  16.669  0.00  0.00    +0.000 A 
ENDBRANCH  13  14
ENDBRANCH  12  13
ENDBRANCH   4  12
TORSDOF 4
ENDMDL
MODEL 9
REMARK VINA RESULT:    -5.532      3.366      4.805
REMARK INTER + INTRA:          -7.233
REMARK INTER:                  -6.846
REMARK INTRA:                  -0.387
REMARK UNBOUND:                -0.407
REMARK  Name = 
REMARK  4 active torsions:
REMARK  status: ('A' for Active; 'I' for Inactive)
REMARK    1  A    between atoms: C_2  and  C_4
REMARK    2  A    between atoms: C_7  and  O_8
REMARK    3  A    between atoms: O_8  and  C_9
REMARK    4  A    between atoms: C_9  and  C_10
REMARK                            x       y       z     vdW  Elec       q    Type
REMARK                         _______ _______ _______ _____ _____    ______ ____
ROOT
ATOM      1  C   UNL     1      44.283   4.199  11.436  0.00  0.00    +0.000 A 
ATOM      2  C   UNL     1      45.083   5.034  10.654  0.00  0.00    +0.000 A 
ATOM      3  C   UNL     1      45.446   6.288  11.149  0.00  0.00    +0.000 A 
ATOM      4  C   UNL     1      44.973   6.669  12.396  0.00  0.00    +0.000 A 
ATOM      5  N   UNL     1      44.196   5.881  13.170  0.00  0.00    +0.000 NA
ATOM      6  C   UNL     1      43.864   4.666  12.672  0.00  0.00    +0.000 A 
ENDROOT
BRANCH   1   8
ATOM      7  N   UNL     1      44.501   2.296   9.947  0.00  0.00    +0.000 N 
ATOM      8  C   UNL     1      43.843   2.855  11.004  0.00  0.00    +0.000 C 
ATOM      9  O   UNL     1      42.953   2.257  11.591  0.00  0.00    +0.000 OA
ATOM     10  H   UNL     1      44.263   1.335   9.730  0.00  0.00    +0.000 HD
ATOM     11  H   UNL     1      45.391   2.641   9.611  0.00  0.00    +0.000 HD
ENDBRANCH   1   8
BRANCH   4  12
ATOM     12  O   UNL     1      45.350   7.910  12.871  0.00  0.00    +0.000 OA
BRANCH  12  13
ATOM     13  C   UNL     1      46.718   8.194  12.553  0.00  0.00    +0.000 C 
BRANCH  13  14
ATOM     14  C   UNL     1      47.637   7.839  13.694  0.00  0.00    +0.000 A 
ATOM     15  C   UNL     1      47.994   8.800  14.647  0.00  0.00    +0.000 A 
ATOM     16  C   UNL     1      48.794   8.441  15.727  0.00  0.00    +0.000 A 
ATOM     17  C   UNL     1      49.201   7.124  15.829  0.00  0.00    +0.000 A 
ATOM     18  F   UNL     1      49.973   6.774  16.868  0.00  0.00    +0.000 F 
ATOM     19  N   UNL     1      48.861   6.159  14.949  0.00  0.00    +0.000 NA
ATOM     20  C   UNL     1      48.082   6.537  13.908  0.00  0.00    +0.000 A 
ENDBRANCH  13  14
ENDBRANCH  12  13
ENDBRANCH   4  12
TORSDOF 4
ENDMDL
