MODEL 1
REMARK VINA RESULT:    -8.194      0.000      0.000
REMARK INTER + INTRA:         -11.627
REMARK INTER:                 -10.589
REMARK INTRA:                  -1.038
REMARK UNBOUND:                -1.038
REMARK  Name = 
REMARK  5 active torsions:
REMARK  status: ('A' for Active; 'I' for Inactive)
REMARK    1  A    between atoms: C_2  and  C_4
REMARK    2  A    between atoms: C_7  and  O_8
REMARK    3  A    between atoms: O_8  and  C_9
REMARK    4  A    between atoms: C_9  and  C_10
REMARK    5  A    between atoms: C_15  and  C_16
REMARK                            x       y       z     vdW  Elec       q    Type
REMARK                         _______ _______ _______ _____ _____    ______ ____
ROOT
ATOM      1  C   UNL     1      43.667   4.387  11.391  0.00  0.00    +0.000 C 
ENDROOT
BRANCH   1   2
ATOM      2  C   UNL     1      44.942   4.657  12.156  0.00  0.00    +0.000 A 
ATOM      3  C   UNL     1      45.654   3.647  12.813  0.00  0.00    +0.000 A 
ATOM      4  C   UNL     1      46.737   3.985  13.613  0.00  0.00    +0.000 A 
ATOM      5  F   UNL     1      47.416   3.021  14.248  0.00  0.00    +0.000 F 
ATOM      6  C   UNL     1      47.099   5.315  13.797  0.00  0.00    +0.000 A 
ATOM      7  C   UNL     1      46.391   6.354  13.164  0.00  0.00    +0.000 A 
ATOM      8  C   UNL     1      45.337   6.003  12.316  0.00  0.00    +0.000 A 
BRANCH   7   9
ATOM      9  C   UNL     1      46.755   7.785  13.523  0.00  0.00    +0.000 C 
ATOM     10  C   UNL     1      46.008   8.989  12.902  0.00  0.00    +0.000 C 
ATOM     11  C   UNL     1      46.683   9.686  11.716  0.00  0.00    +0.000 C 
ATOM     12  C   UNL     1      48.203   9.597  11.746  0.00  0.00    +0.000 C 
ATOM     13  C   UNL     1      48.627   8.195  12.120  0.00  0.00    +0.000 C 
ATOM     14  O   UNL     1      48.179   7.933  13.444  0.00  0.00    +0.000 OA
ENDBRANCH   7   9
ENDBRANCH   1   2
BRANCH   1  15
ATOM     15  O   UNL     1      43.759   4.691  10.000  0.00  0.00    +0.000 OA
BRANCH  15  19
ATOM     16  C   UNL     1      46.421   2.546   7.724  0.00  0.00    +0.000 A 
ATOM     17  C   UNL     1      45.613   1.811   8.577  0.00  0.00    +0.000 A 
ATOM     18  C   UNL     1      44.698   2.499   9.373  0.00  0.00    +0.000 A 
ATOM     19  C   UNL     1      44.612   3.891   9.288  0.00  0.00    +0.000 A 
ATOM     20  C   UNL     1      45.468   4.532   8.398  0.00  0.00    +0.000 A 
ATOM     21  N   UNL     1      46.374   3.902   7.611  0.00  0.00    +0.000 NA
BRANCH  16  23
ATOM     22  N   UNL     1      48.495   2.577   6.478  0.00  0.00    +0.000 N 
ATOM     23  C   UNL     1      47.409   1.830   6.856  0.00  0.00    +0.000 C 
ATOM     24  O   UNL     1      47.263   0.671   6.501  0.00  0.00    +0.000 OA
ATOM     25  H   UNL     1      49.200   2.165   5.885  0.00  0.00    +0.000 HD
ATOM     26  H   UNL     1      48.569   3.540   6.787  0.00  0.00    +0.000 HD
ENDBRANCH  16  23
ENDBRANCH  15  19
ENDBRANCH   1  15
TORSDOF 5
ENDMDL
MODEL 2
REMARK VINA RESULT:    -7.869      1.932      2.426
REMARK INTER + INTRA:         -11.207
REMARK INTER:                 -10.448
REMARK INTRA:                  -0.758
REMARK UNBOUND:                -1.038
REMARK  Name = 
REMARK  5 active torsions:
REMARK  status: ('A' for Active; 'I' for Inactive)
REMARK    1  A    between atoms: C_2  and  C_4
REMARK    2  A    between atoms: C_7  and  O_8
REMARK    3  A    between atoms: O_8  and  C_9
REMARK    4  A    between atoms: C_9  and  C_10
REMARK    5  A    between atoms: C_15  and  C_16
REMARK                            x       y       z     vdW  Elec       q    Type
REMARK                         _______ _______ _______ _____ _____    ______ ____
ROOT
ATOM      1  C   UNL     1      44.091   4.085  11.624  0.00  0.00    +0.000 C 
ENDROOT
BRANCH   1   2
ATOM      2  C   UNL     1      44.686   5.419  12.012  0.00  0.00    +0.000 A 
ATOM      3  C   UNL     1      44.236   6.629  11.471  0.00  0.00    +0.000 A 
ATOM      4  C   UNL     1      44.918   7.802  11.763  0.00  0.00    +0.000 A 
ATOM      5  F   UNL     1      44.494   8.961  11.242  0.00  0.00    +0.000 F 
ATOM      6  C   UNL     1      46.061   7.784  12.555  0.00  0.00    +0.000 A 
ATOM      7  C   UNL     1      46.548   6.579  13.099  0.00  0.00    +0.000 A 
ATOM      8  C   UNL     1      45.824   5.411  12.847  0.00  0.00    +0.000 A 
BRANCH   7   9
ATOM      9  C   UNL     1      47.876   6.617  13.836  0.00  0.00    +0.000 C 
ATOM     10  C   UNL     1      48.301   7.846  14.673  0.00  0.00    +0.000 C 
ATOM     11  C   UNL     1      49.259   8.840  14.006  0.00  0.00    +0.000 C 
ATOM     12  C   UNL     1      50.177   8.198  12.975  0.00  0.00    +0.000 C 
ATOM     13  C   UNL     1      49.389   7.238  12.114  0.00  0.00    +0.000 C 
ATOM     14  O   UNL     1      48.912   6.186  12.943  0.00  0.00    +0.000 OA
ENDBRANCH   7   9
ENDBRANCH   1   2
BRANCH   1  15
ATOM     15  O   UNL     1      43.669   4.022  10.262  0.00  0.00    +0.000 OA
BRANCH  15  19
ATOM     16  C   UNL     1      46.473   2.764   7.538  0.00  0.00    +0.000 A 
ATOM     17  C   UNL     1      45.928   1.785   8.354  0.00  0.00    +0.000 A 
ATOM     18  C   UNL     1      44.976   2.167   9.297  0.00  0.00    +0.000 A 
ATOM     19  C   UNL     1      44.593   3.508   9.392  0.00  0.00    +0.000 A 
ATOM     20  C   UNL     1      45.200   4.411   8.525  0.00  0.00    +0.000 A 
ATOM     21  N   UNL     1      46.132   4.080   7.598  0.00  0.00    +0.000 NA
BRANCH  16  23
ATOM     22  N   UNL     1      47.470   3.120   5.362  0.00  0.00    +0.000 N 
ATOM     23  C   UNL     1      47.495   2.378   6.514  0.00  0.00    +0.000 C 
ATOM     24  O   UNL     1      48.291   1.465   6.682  0.00  0.00    +0.000 OA
ATOM     25  H   UNL     1      48.124   2.913   4.622  0.00  0.00    +0.000 HD
ATOM     26  H   UNL     1      46.784   3.860   5.262  0.00  0.00    +0.000 HD
ENDBRANCH  16  23
ENDBRANCH  15  19
ENDBRANCH   1  15
TORSDOF 5
ENDMDL
MODEL 3
REMARK VINA RESULT:    -7.285      4.424      8.111
REMARK INTER + INTRA:         -10.453
REMARK INTER:                  -9.725
REMARK INTRA:                  -0.728
REMARK UNBOUND:                -1.038
REMARK  Name = 
REMARK  5 active torsions:
REMARK  status: ('A' for Active; 'I' for Inactive)
REMARK    1  A    between atoms: C_2  and  C_4
REMARK    2  A    between atoms: C_7  and  O_8
REMARK    3  A    between atoms: O_8  and  C_9
REMARK    4  A    between atoms: C_9  and  C_10
REMARK    5  A    between atoms: C_15  and  C_16
REMARK                            x       y       z     vdW  Elec       q    Type
REMARK                         _______ _______ _______ _____ _____    ______ ____
ROOT
ATOM      1  C   UNL     1      46.781   3.588  13.579  0.00  0.00    +0.000 C 
ENDROOT
BRANCH   1   2
ATOM      2  C   UNL     1      45.610   3.967  12.703  0.00  0.00    +0.000 A 
ATOM      3  C   UNL     1      44.489   4.645  13.197  0.00  0.00    +0.000 A 
ATOM      4  C   UNL     1      43.390   4.837  12.371  0.00  0.00    +0.000 A 
ATOM      5  F   UNL     1      42.313   5.480  12.842  0.00  0.00    +0.000 F 
ATOM      6  C   UNL     1      43.375   4.334  11.075  0.00  0.00    +0.000 A 
ATOM      7  C   UNL     1      44.481   3.633  10.556  0.00  0.00    +0.000 A 
ATOM      8  C   UNL     1      45.605   3.492  11.373  0.00  0.00    +0.000 A 
BRANCH   7   9
ATOM      9  C   UNL     1      44.338   2.993   9.185  0.00  0.00    +0.000 C 
ATOM     10  C   UNL     1      45.022   1.648   8.847  0.00  0.00    +0.000 C 
ATOM     11  C   UNL     1      46.347   1.719   8.079  0.00  0.00    +0.000 C 
ATOM     12  C   UNL     1      46.461   2.941   7.178  0.00  0.00    +0.000 C 
ATOM     13  C   UNL     1      45.964   4.166   7.911  0.00  0.00    +0.000 C 
ATOM     14  O   UNL     1      44.579   3.989   8.183  0.00  0.00    +0.000 OA
ENDBRANCH   7   9
ENDBRANCH   1   2
BRANCH   1  15
ATOM     15  O   UNL     1      47.477   4.710  14.120  0.00  0.00    +0.000 OA
BRANCH  15  19
ATOM     16  C   UNL     1      48.028   4.969  18.181  0.00  0.00    +0.000 A 
ATOM     17  C   UNL     1      47.339   3.856  17.726  0.00  0.00    +0.000 A 
ATOM     18  C   UNL     1      47.125   3.730  16.355  0.00  0.00    +0.000 A 
ATOM     19  C   UNL     1      47.608   4.709  15.483  0.00  0.00    +0.000 A 
ATOM     20  C   UNL     1      48.288   5.787  16.043  0.00  0.00    +0.000 A 
ATOM     21  N   UNL     1      48.514   5.948  17.370  0.00  0.00    +0.000 NA
BRANCH  16  23
ATOM     22  N   UNL     1      48.592   3.968  20.311  0.00  0.00    +0.000 N 
ATOM     23  C   UNL     1      48.275   5.126  19.650  0.00  0.00    +0.000 C 
ATOM     24  O   UNL     1      48.193   6.201  20.226  0.00  0.00    +0.000 OA
ATOM     25  H   UNL     1      48.763   3.993  21.305  0.00  0.00    +0.000 HD
ATOM     26  H   UNL     1      48.636   3.096  19.794  0.00  0.00    +0.000 HD
ENDBRANCH  16  23
ENDBRANCH  15  19
ENDBRANCH   1  15
TORSDOF 5
ENDMDL
MODEL 4
REMARK VINA RESULT:    -7.278      2.680      3.398
REMARK INTER + INTRA:         -10.443
REMARK INTER:                  -9.517
REMARK INTRA:                  -0.926
REMARK UNBOUND:                -1.038
REMARK  Name = 
REMARK  5 active torsions:
REMARK  status: ('A' for Active; 'I' for Inactive)
REMARK    1  A    between atoms: C_2  and  C_4
REMARK    2  A    between atoms: C_7  and  O_8
REMARK    3  A    between atoms: O_8  and  C_9
REMARK    4  A    between atoms: C_9  and  C_10
REMARK    5  A    between atoms: C_15  and  C_16
REMARK                            x       y       z     vdW  Elec       q    Type
REMARK                         _______ _______ _______ _____ _____    ______ ____
ROOT
ATOM      1  C   UNL     1      44.216   5.067  11.314  0.00  0.00    +0.000 C 
ENDROOT
BRANCH   1   2
ATOM      2  C   UNL     1      44.967   6.369  11.458  0.00  0.00    +0.000 A 
ATOM      3  C   UNL     1      46.293   6.427  11.904  0.00  0.00    +0.000 A 
ATOM      4  C   UNL     1      46.877   7.662  12.149  0.00  0.00    +0.000 A 
ATOM      5  F   UNL     1      48.144   7.721  12.582  0.00  0.00    +0.000 F 
ATOM      6  C   UNL     1      46.152   8.837  11.990  0.00  0.00    +0.000 A 
ATOM      7  C   UNL     1      44.812   8.810  11.559  0.00  0.00    +0.000 A 
ATOM      8  C   UNL     1      44.248   7.567  11.262  0.00  0.00    +0.000 A 
BRANCH   7   9
ATOM      9  C   UNL     1      44.042  10.121  11.544  0.00  0.00    +0.000 C 
ATOM     10  C   UNL     1      42.544  10.173  11.165  0.00  0.00    +0.000 C 
ATOM     11  C   UNL     1      42.207  10.583   9.727  0.00  0.00    +0.000 C 
ATOM     12  C   UNL     1      43.239  11.515   9.105  0.00  0.00    +0.000 C 
ATOM     13  C   UNL     1      44.631  11.026   9.428  0.00  0.00    +0.000 C 
ATOM     14  O   UNL     1      44.813  11.101  10.837  0.00  0.00    +0.000 OA
ENDBRANCH   7   9
ENDBRANCH   1   2
BRANCH   1  15
ATOM     15  O   UNL     1      43.803   4.790   9.976  0.00  0.00    +0.000 OA
BRANCH  15  19
ATOM     16  C   UNL     1      46.223   2.102   8.031  0.00  0.00    +0.000 A 
ATOM     17  C   UNL     1      46.306   3.419   7.607  0.00  0.00    +0.000 A 
ATOM     18  C   UNL     1      45.498   4.365   8.236  0.00  0.00    +0.000 A 
ATOM     19  C   UNL     1      44.642   3.971   9.269  0.00  0.00    +0.000 A 
ATOM     20  C   UNL     1      44.638   2.624   9.618  0.00  0.00    +0.000 A 
ATOM     21  N   UNL     1      45.404   1.674   9.029  0.00  0.00    +0.000 NA
BRANCH  16  23
ATOM     22  N   UNL     1      46.760  -0.230   7.674  0.00  0.00    +0.000 N 
ATOM     23  C   UNL     1      47.084   1.068   7.373  0.00  0.00    +0.000 C 
ATOM     24  O   UNL     1      48.011   1.351   6.630  0.00  0.00    +0.000 OA
ATOM     25  H   UNL     1      47.301  -0.983   7.275  0.00  0.00    +0.000 HD
ATOM     26  H   UNL     1      45.990  -0.418   8.305  0.00  0.00    +0.000 HD
ENDBRANCH  16  23
ENDBRANCH  15  19
ENDBRANCH   1  15
TORSDOF 5
ENDMDL
MODEL 5
REMARK VINA RESULT:    -6.803      5.203      7.880
REMARK INTER + INTRA:          -9.830
REMARK INTER:                  -9.023
REMARK INTRA:                  -0.807
REMARK UNBOUND:                -1.038
REMARK  Name = 
REMARK  5 active torsions:
REMARK  status: ('A' for Active; 'I' for Inactive)
REMARK    1  A    between atoms: C_2  and  C_4
REMARK    2  A    between atoms: C_7  and  O_8
REMARK    3  A    between atoms: O_8  and  C_9
REMARK    4  A    between atoms: C_9  and  C_10
REMARK    5  A    between atoms: C_15  and  C_16
REMARK                            x       y       z     vdW  Elec       q    Type
REMARK                         _______ _______ _______ _____ _____    ______ ____
ROOT
ATOM      1  C   UNL     1      48.121   5.541  16.321  0.00  0.00    +0.000 C 
ENDROOT
BRANCH   1   2
ATOM      2  C   UNL     1      47.757   5.622  14.857  0.00  0.00    +0.000 A 
ATOM      3  C   UNL     1      48.185   6.670  14.032  0.00  0.00    +0.000 A 
ATOM      4  C   UNL     1      47.699   6.757  12.735  0.00  0.00    +0.000 A 
ATOM      5  F   UNL     1      48.101   7.762  11.945  0.00  0.00    +0.000 F 
ATOM      6  C   UNL     1      46.769   5.840  12.258  0.00  0.00    +0.000 A 
ATOM      7  C   UNL     1      46.308   4.786  13.070  0.00  0.00    +0.000 A 
ATOM      8  C   UNL     1      46.843   4.671  14.355  0.00  0.00    +0.000 A 
BRANCH   7   9
ATOM      9  C   UNL     1      45.190   3.909  12.530  0.00  0.00    +0.000 C 
ATOM     10  C   UNL     1      44.829   3.895  11.026  0.00  0.00    +0.000 C 
ATOM     11  C   UNL     1      43.634   4.752  10.593  0.00  0.00    +0.000 C 
ATOM     12  C   UNL     1      42.584   4.921  11.683  0.00  0.00    +0.000 C 
ATOM     13  C   UNL     1      43.258   5.207  13.004  0.00  0.00    +0.000 C 
ATOM     14  O   UNL     1      44.034   4.070  13.362  0.00  0.00    +0.000 OA
ENDBRANCH   7   9
ENDBRANCH   1   2
BRANCH   1  15
ATOM     15  O   UNL     1      47.981   4.233  16.874  0.00  0.00    +0.000 OA
BRANCH  15  19
ATOM     16  C   UNL     1      51.377   2.001  17.462  0.00  0.00    +0.000 A 
ATOM     17  C   UNL     1      51.441   3.328  17.855  0.00  0.00    +0.000 A 
ATOM     18  C   UNL     1      50.313   4.124  17.670  0.00  0.00    +0.000 A 
ATOM     19  C   UNL     1      49.158   3.574  17.107  0.00  0.00    +0.000 A 
ATOM     20  C   UNL     1      49.199   2.230  16.747  0.00  0.00    +0.000 A 
ATOM     21  N   UNL     1      50.277   1.423  16.907  0.00  0.00    +0.000 NA
BRANCH  16  23
ATOM     22  N   UNL     1      52.331  -0.055  18.312  0.00  0.00    +0.000 N 
ATOM     23  C   UNL     1      52.576   1.123  17.654  0.00  0.00    +0.000 C 
ATOM     24  O   UNL     1      53.692   1.429  17.264  0.00  0.00    +0.000 OA
ATOM     25  H   UNL     1      53.091  -0.694  18.487  0.00  0.00    +0.000 HD
ATOM     26  H   UNL     1      51.390  -0.262  18.629  0.00  0.00    +0.000 HD
ENDBRANCH  16  23
ENDBRANCH  15  19
ENDBRANCH   1  15
TORSDOF 5
ENDMDL
MODEL 6
REMARK VINA RESULT:    -6.802      4.665      8.310
REMARK INTER + INTRA:          -9.828
REMARK INTER:                  -9.131
REMARK INTRA:                  -0.697
REMARK UNBOUND:                -1.038
REMARK  Name = 
REMARK  5 active torsions:
REMARK  status: ('A' for Active; 'I' for Inactive)
REMARK    1  A    between atoms: C_2  and  C_4
REMARK    2  A    between atoms: C_7  and  O_8
REMARK    3  A    between atoms: O_8  and  C_9
REMARK    4  A    between atoms: C_9  and  C_10
REMARK    5  A    between atoms: C_15  and  C_16
REMARK                            x       y       z     vdW  Elec       q    Type
REMARK                         _______ _______ _______ _____ _____    ______ ____
ROOT
ATOM      1  C   UNL     1      46.335   4.397  14.186  0.00  0.00    +0.000 C 
ENDROOT
BRANCH   1   2
ATOM      2  C   UNL     1      45.851   5.068  12.922  0.00  0.00    +0.000 A 
ATOM      3  C   UNL     1      45.569   6.438  12.858  0.00  0.00    +0.000 A 
ATOM      4  C   UNL     1      44.995   6.963  11.709  0.00  0.00    +0.000 A 
ATOM      5  F   UNL     1      44.717   8.272  11.647  0.00  0.00    +0.000 F 
ATOM      6  C   UNL     1      44.665   6.141  10.637  0.00  0.00    +0.000 A 
ATOM      7  C   UNL     1      44.922   4.757  10.679  0.00  0.00    +0.000 A 
ATOM      8  C   UNL     1      45.550   4.244  11.816  0.00  0.00    +0.000 A 
BRANCH   7   9
ATOM      9  C   UNL     1      44.408   3.903   9.531  0.00  0.00    +0.000 C 
ATOM     10  C   UNL     1      44.586   2.367   9.525  0.00  0.00    +0.000 C 
ATOM     11  C   UNL     1      45.754   1.809   8.703  0.00  0.00    +0.000 C 
ATOM     12  C   UNL     1      46.125   2.679   7.510  0.00  0.00    +0.000 C 
ATOM     13  C   UNL     1      46.136   4.134   7.919  0.00  0.00    +0.000 C 
ATOM     14  O   UNL     1      44.814   4.500   8.293  0.00  0.00    +0.000 OA
ENDBRANCH   7   9
ENDBRANCH   1   2
BRANCH   1  15
ATOM     15  O   UNL     1      47.675   4.739  14.539  0.00  0.00    +0.000 OA
BRANCH  15  19
ATOM     16  C   UNL     1      48.133   5.090  18.605  0.00  0.00    +0.000 A 
ATOM     17  C   UNL     1      48.800   6.026  17.830  0.00  0.00    +0.000 A 
ATOM     18  C   UNL     1      48.677   5.941  16.444  0.00  0.00    +0.000 A 
ATOM     19  C   UNL     1      47.890   4.936  15.877  0.00  0.00    +0.000 A 
ATOM     20  C   UNL     1      47.261   4.048  16.744  0.00  0.00    +0.000 A 
ATOM     21  N   UNL     1      47.358   4.094  18.096  0.00  0.00    +0.000 NA
BRANCH  16  23
ATOM     22  N   UNL     1      48.614   3.991  20.706  0.00  0.00    +0.000 N 
ATOM     23  C   UNL     1      48.246   5.162  20.096  0.00  0.00    +0.000 C 
ATOM     24  O   UNL     1      48.021   6.182  20.731  0.00  0.00    +0.000 OA
ATOM     25  H   UNL     1      48.703   3.959  21.710  0.00  0.00    +0.000 HD
ATOM     26  H   UNL     1      48.779   3.166  20.140  0.00  0.00    +0.000 HD
ENDBRANCH  16  23
ENDBRANCH  15  19
ENDBRANCH   1  15
TORSDOF 5
ENDMDL
MODEL 7
REMARK VINA RESULT:    -6.778      3.907      7.400
REMARK INTER + INTRA:          -9.797
REMARK INTER:                  -9.506
REMARK INTRA:                  -0.290
REMARK UNBOUND:                -1.038
REMARK  Name = 
REMARK  5 active torsions:
REMARK  status: ('A' for Active; 'I' for Inactive)
REMARK    1  A    between atoms: C_2  and  C_4
REMARK    2  A    between atoms: C_7  and  O_8
REMARK    3  A    between atoms: O_8  and  C_9
REMARK    4  A    between atoms: C_9  and  C_10
REMARK    5  A    between atoms: C_15  and  C_16
REMARK                            x       y       z     vdW  Elec       q    Type
REMARK                         _______ _______ _______ _____ _____    ______ ____
ROOT
ATOM      1  C   UNL     1      47.139   6.089  12.315  0.00  0.00    +0.000 C 
ENDROOT
BRANCH   1   2
ATOM      2  C   UNL     1      45.768   5.708  11.809  0.00  0.00    +0.000 A 
ATOM      3  C   UNL     1      44.612   5.850  12.587  0.00  0.00    +0.000 A 
ATOM      4  C   UNL     1      43.407   5.349  12.114  0.00  0.00    +0.000 A 
ATOM      5  F   UNL     1      42.301   5.477  12.858  0.00  0.00    +0.000 F 
ATOM      6  C   UNL     1      43.341   4.680  10.897  0.00  0.00    +0.000 A 
ATOM      7  C   UNL     1      44.489   4.507  10.101  0.00  0.00    +0.000 A 
ATOM      8  C   UNL     1      45.688   5.061  10.556  0.00  0.00    +0.000 A 
BRANCH   7   9
ATOM      9  C   UNL     1      44.368   3.645   8.854  0.00  0.00    +0.000 C 
ATOM     10  C   UNL     1      44.684   2.132   8.885  0.00  0.00    +0.000 C 
ATOM     11  C   UNL     1      46.070   1.703   8.390  0.00  0.00    +0.000 C 
ATOM     12  C   UNL     1      46.653   2.637   7.338  0.00  0.00    +0.000 C 
ATOM     13  C   UNL     1      46.424   4.074   7.745  0.00  0.00    +0.000 C 
ATOM     14  O   UNL     1      45.022   4.312   7.767  0.00  0.00    +0.000 OA
ENDBRANCH   7   9
ENDBRANCH   1   2
BRANCH   1  15
ATOM     15  O   UNL     1      47.124   6.694  13.608  0.00  0.00    +0.000 OA
BRANCH  15  19
ATOM     16  C   UNL     1      48.672   4.504  16.717  0.00  0.00    +0.000 A 
ATOM     17  C   UNL     1      47.587   3.949  16.057  0.00  0.00    +0.000 A 
ATOM     18  C   UNL     1      47.027   4.660  14.998  0.00  0.00    +0.000 A 
ATOM     19  C   UNL     1      47.567   5.895  14.627  0.00  0.00    +0.000 A 
ATOM     20  C   UNL     1      48.656   6.362  15.355  0.00  0.00    +0.000 A 
ATOM     21  N   UNL     1      49.228   5.703  16.393  0.00  0.00    +0.000 NA
BRANCH  16  23
ATOM     22  N   UNL     1      48.408   3.114  18.680  0.00  0.00    +0.000 N 
ATOM     23  C   UNL     1      49.295   3.757  17.856  0.00  0.00    +0.000 C 
ATOM     24  O   UNL     1      50.501   3.726  18.049  0.00  0.00    +0.000 OA
ATOM     25  H   UNL     1      48.753   2.596  19.475  0.00  0.00    +0.000 HD
ATOM     26  H   UNL     1      47.414   3.177  18.489  0.00  0.00    +0.000 HD
ENDBRANCH  16  23
ENDBRANCH  15  19
ENDBRANCH   1  15
TORSDOF 5
ENDMDL
MODEL 8
REMARK VINA RESULT:    -6.526      3.005      6.715
REMARK INTER + INTRA:          -9.471
REMARK INTER:                  -8.471
REMARK INTRA:                  -1.000
REMARK UNBOUND:                -1.038
REMARK  Name = 
REMARK  5 active torsions:
REMARK  status: ('A' for Active; 'I' for Inactive)
REMARK    1  A    between atoms: C_2  and  C_4
REMARK    2  A    between atoms: C_7  and  O_8
REMARK    3  A    between atoms: O_8  and  C_9
REMARK    4  A    between atoms: C_9  and  C_10
REMARK    5  A    between atoms: C_15  and  C_16
REMARK                            x       y       z     vdW  Elec       q    Type
REMARK                         _______ _______ _______ _____ _____    ______ ____
ROOT
ATOM      1  C   UNL     1      45.473   7.639  12.900  0.00  0.00    +0.000 C 
ENDROOT
BRANCH   1   2
ATOM      2  C   UNL     1      45.481   6.138  12.736  0.00  0.00    +0.000 A 
ATOM      3  C   UNL     1      46.269   5.298  13.533  0.00  0.00    +0.000 A 
ATOM      4  C   UNL     1      46.336   3.944  13.237  0.00  0.00    +0.000 A 
ATOM      5  F   UNL     1      47.094   3.138  13.993  0.00  0.00    +0.000 F 
ATOM      6  C   UNL     1      45.661   3.419  12.140  0.00  0.00    +0.000 A 
ATOM      7  C   UNL     1      44.875   4.242  11.311  0.00  0.00    +0.000 A 
ATOM      8  C   UNL     1      44.767   5.593  11.647  0.00  0.00    +0.000 A 
BRANCH   7   9
ATOM      9  C   UNL     1      44.282   3.626  10.054  0.00  0.00    +0.000 C 
ATOM     10  C   UNL     1      44.560   2.155   9.667  0.00  0.00    +0.000 C 
ATOM     11  C   UNL     1      45.653   1.909   8.620  0.00  0.00    +0.000 C 
ATOM     12  C   UNL     1      45.816   3.057   7.634  0.00  0.00    +0.000 C 
ATOM     13  C   UNL     1      45.781   4.376   8.371  0.00  0.00    +0.000 C 
ATOM     14  O   UNL     1      44.493   4.524   8.956  0.00  0.00    +0.000 OA
ENDBRANCH   7   9
ENDBRANCH   1   2
BRANCH   1  15
ATOM     15  O   UNL     1      46.296   8.323  11.956  0.00  0.00    +0.000 OA
BRANCH  15  19
ATOM     16  C   UNL     1      50.251   8.457  13.051  0.00  0.00    +0.000 A 
ATOM     17  C   UNL     1      49.963   7.774  11.880  0.00  0.00    +0.000 A 
ATOM     18  C   UNL     1      48.632   7.699  11.473  0.00  0.00    +0.000 A 
ATOM     19  C   UNL     1      47.635   8.310  12.239  0.00  0.00    +0.000 A 
ATOM     20  C   UNL     1      48.033   8.972  13.396  0.00  0.00    +0.000 A 
ATOM     21  N   UNL     1      49.314   9.065  13.829  0.00  0.00    +0.000 NA
BRANCH  16  23
ATOM     22  N   UNL     1      52.600   8.053  12.631  0.00  0.00    +0.000 N 
ATOM     23  C   UNL     1      51.674   8.555  13.508  0.00  0.00    +0.000 C 
ATOM     24  O   UNL     1      51.994   9.038  14.584  0.00  0.00    +0.000 OA
ATOM     25  H   UNL     1      53.579   8.076  12.873  0.00  0.00    +0.000 HD
ATOM     26  H   UNL     1      52.288   7.650  11.754  0.00  0.00    +0.000 HD
ENDBRANCH  16  23
ENDBRANCH  15  19
ENDBRANCH   1  15
TORSDOF 5
ENDMDL
MODEL 9
REMARK VINA RESULT:    -6.152      4.105      7.403
REMARK INTER + INTRA:          -8.988
REMARK INTER:                  -8.590
REMARK INTRA:                  -0.398
REMARK UNBOUND:                -1.038
REMARK  Name = 
REMARK  5 active torsions:
REMARK  status: ('A' for Active; 'I' for Inactive)
REMARK    1  A    between atoms: C_2  and  C_4
REMARK    2  A    between atoms: C_7  and  O_8
REMARK    3  A    between atoms: O_8  and  C_9
REMARK    4  A    between atoms: C_9  and  C_10
REMARK    5  A    between atoms: C_15  and  C_16
REMARK                            x       y       z     vdW  Elec       q    Type
REMARK                         _______ _______ _______ _____ _____    ______ ____
ROOT
ATOM      1  C   UNL     1      48.301   6.730  12.766  0.00  0.00    +0.000 C 
ENDROOT
BRANCH   1   2
ATOM      2  C   UNL     1      46.987   7.269  12.252  0.00  0.00    +0.000 A 
ATOM      3  C   UNL     1      46.741   8.639  12.106  0.00  0.00    +0.000 A 
ATOM      4  C   UNL     1      45.467   9.071  11.764  0.00  0.00    +0.000 A 
ATOM      5  F   UNL     1      45.227  10.382  11.630  0.00  0.00    +0.000 F 
ATOM      6  C   UNL     1      44.427   8.163  11.601  0.00  0.00    +0.000 A 
ATOM      7  C   UNL     1      44.639   6.780  11.758  0.00  0.00    +0.000 A 
ATOM      8  C   UNL     1      45.936   6.348  12.047  0.00  0.00    +0.000 A 
BRANCH   7   9
ATOM      9  C   UNL     1      43.428   5.863  11.702  0.00  0.00    +0.000 C 
ATOM     10  C   UNL     1      43.145   4.831  12.819  0.00  0.00    +0.000 C 
ATOM     11  C   UNL     1      43.577   3.385  12.550  0.00  0.00    +0.000 C 
ATOM     12  C   UNL     1      43.566   3.013  11.074  0.00  0.00    +0.000 C 
ATOM     13  C   UNL     1      44.175   4.130  10.259  0.00  0.00    +0.000 C 
ATOM     14  O   UNL     1      43.350   5.281  10.395  0.00  0.00    +0.000 OA
ENDBRANCH   7   9
ENDBRANCH   1   2
BRANCH   1  15
ATOM     15  O   UNL     1      48.632   7.183  14.078  0.00  0.00    +0.000 OA
BRANCH  15  19
ATOM     16  C   UNL     1      47.868   4.283  16.883  0.00  0.00    +0.000 A 
ATOM     17  C   UNL     1      48.786   5.258  17.243  0.00  0.00    +0.000 A 
ATOM     18  C   UNL     1      49.079   6.259  16.320  0.00  0.00    +0.000 A 
ATOM     19  C   UNL     1      48.446   6.262  15.074  0.00  0.00    +0.000 A 
ATOM     20  C   UNL     1      47.541   5.238  14.813  0.00  0.00    +0.000 A 
ATOM     21  N   UNL     1      47.231   4.245  15.681  0.00  0.00    +0.000 NA
BRANCH  16  23
ATOM     22  N   UNL     1      48.351   3.135  18.958  0.00  0.00    +0.000 N 
ATOM     23  C   UNL     1      47.533   3.198  17.859  0.00  0.00    +0.000 C 
ATOM     24  O   UNL     1      46.607   2.418  17.693  0.00  0.00    +0.000 OA
ATOM     25  H   UNL     1      48.192   2.424  19.656  0.00  0.00    +0.000 HD
ATOM     26  H   UNL     1      49.114   3.795  19.049  0.00  0.00    +0.000 HD
ENDBRANCH  16  23
ENDBRANCH  15  19
ENDBRANCH   1  15
TORSDOF 5
ENDMDL
