MODEL 1
REMARK VINA RESULT:    -7.431      0.000      0.000
REMARK INTER + INTRA:         -10.422
REMARK INTER:                  -9.820
REMARK INTRA:                  -0.601
REMARK UNBOUND:                -0.601
REMARK  Name = 
REMARK  7 active torsions:
REMARK  status: ('A' for Active; 'I' for Inactive)
REMARK    1  A    between atoms: C_1  and  N_2
REMARK    2  A    between atoms: C_3  and  C_5
REMARK    3  A    between atoms: C_8  and  C_9
REMARK    4  A    between atoms: C_9  and  N_10
REMARK    5  A    between atoms: N_10  and  C_11
REMARK    6  A    between atoms: C_11  and  C_12
REMARK    7  A    between atoms: C_12  and  O_13
REMARK                            x       y       z     vdW  Elec       q    Type
REMARK                         _______ _______ _______ _____ _____    ______ ____
ROOT
ATOM      1  C   UNL     1      45.478   5.787  11.339  0.00  0.00    +0.000 C 
ENDROOT
BRANCH   1   2
ATOM      2  N   UNL     1      44.695   4.637  10.848  0.00  0.00    +0.000 N 
ATOM      3  C   UNL     1      45.192   4.156   9.609  0.00  0.00    +0.000 A 
ATOM      4  C   UNL     1      44.868   2.856   9.196  0.00  0.00    +0.000 A 
ATOM      5  C   UNL     1      45.332   2.374   7.969  0.00  0.00    +0.000 A 
ATOM      6  C   UNL     1      46.111   3.198   7.171  0.00  0.00    +0.000 A 
ATOM      7 CL   UNL     1      46.687   2.659   5.648  0.00  0.00    +0.000 Cl
ATOM      8  C   UNL     1      46.407   4.464   7.643  0.00  0.00    +0.000 A 
ATOM      9  N   UNL     1      45.966   4.949   8.833  0.00  0.00    +0.000 NA
BRANCH   2  10
ATOM     10  C   UNL     1      43.217   4.777  10.829  0.00  0.00    +0.000 C 
BRANCH  10  11
ATOM     11  C   UNL     1      42.583   5.392  12.093  0.00  0.00    +0.000 C 
BRANCH  11  12
ATOM     12  O   UNL     1      41.854   6.579  11.777  0.00  0.00    +0.000 OA
ATOM     13  H   UNL     1      40.968   6.298  11.491  0.00  0.00    +0.000 HD
ENDBRANCH  11  12
ENDBRANCH  10  11
ENDBRANCH   2  10
ENDBRANCH   1   2
BRANCH   1  17
ATOM     14  C   UNL     1      47.576   5.183  15.005  0.00  0.00    +0.000 A 
ATOM     15  C   UNL     1      47.910   6.293  14.235  0.00  0.00    +0.000 A 
ATOM     16  C   UNL     1      47.298   6.449  12.990  0.00  0.00    +0.000 A 
ATOM     17  C   UNL     1      46.354   5.515  12.548  0.00  0.00    +0.000 A 
ATOM     18  C   UNL     1      46.137   4.407  13.372  0.00  0.00    +0.000 A 
ATOM     19  N   UNL     1      46.722   4.211  14.587  0.00  0.00    +0.000 NA
BRANCH  14  22
ATOM     20  C   UNL     1      47.670   5.329  18.803  0.00  0.00    +0.000 C 
ATOM     21  N   UNL     1      47.240   5.300  17.428  0.00  0.00    +0.000 N 
ATOM     22  C   UNL     1      48.135   5.067  16.401  0.00  0.00    +0.000 C 
ATOM     23  O   UNL     1      49.319   4.807  16.592  0.00  0.00    +0.000 OA
ATOM     24  H   UNL     1      46.305   5.597  17.164  0.00  0.00    +0.000 HD
ENDBRANCH  14  22
ENDBRANCH   1  17
TORSDOF 6
ENDMDL
MODEL 2
REMARK VINA RESULT:    -7.324      1.218      1.255
REMARK INTER + INTRA:         -10.280
REMARK INTER:                  -9.679
REMARK INTRA:                  -0.601
REMARK UNBOUND:                -0.601
REMARK  Name = 
REMARK  7 active torsions:
REMARK  status: ('A' for Active; 'I' for Inactive)
REMARK    1  A    between atoms: C_1  and  N_2
REMARK    2  A    between atoms: C_3  and  C_5
REMARK    3  A    between atoms: C_8  and  C_9
REMARK    4  A    between atoms: C_9  and  N_10
REMARK    5  A    between atoms: N_10  and  C_11
REMARK    6  A    between atoms: C_11  and  C_12
REMARK    7  A    between atoms: C_12  and  O_13
REMARK                            x       y       z     vdW  Elec       q    Type
REMARK                         _______ _______ _______ _____ _____    ______ ____
ROOT
ATOM      1  C   UNL     1      45.295   5.940  11.180  0.00  0.00    +0.000 C 
ENDROOT
BRANCH   1   2
ATOM      2  N   UNL     1      44.746   4.590  10.953  0.00  0.00    +0.000 N 
ATOM      3  C   UNL     1      45.251   4.015   9.758  0.00  0.00    +0.000 A 
ATOM      4  C   UNL     1      45.186   2.625   9.584  0.00  0.00    +0.000 A 
ATOM      5  C   UNL     1      45.659   2.043   8.405  0.00  0.00    +0.000 A 
ATOM      6  C   UNL     1      46.190   2.858   7.416  0.00  0.00    +0.000 A 
ATOM      7 CL   UNL     1      46.765   2.193   5.943  0.00  0.00    +0.000 Cl
ATOM      8  C   UNL     1      46.238   4.219   7.656  0.00  0.00    +0.000 A 
ATOM      9  N   UNL     1      45.784   4.802   8.796  0.00  0.00    +0.000 NA
BRANCH   2  10
ATOM     10  C   UNL     1      43.275   4.427  11.061  0.00  0.00    +0.000 C 
BRANCH  10  11
ATOM     11  C   UNL     1      42.527   5.545  11.816  0.00  0.00    +0.000 C 
BRANCH  11  12
ATOM     12  O   UNL     1      42.654   5.384  13.228  0.00  0.00    +0.000 OA
ATOM     13  H   UNL     1      42.752   4.431  13.396  0.00  0.00    +0.000 HD
ENDBRANCH  11  12
ENDBRANCH  10  11
ENDBRANCH   2  10
ENDBRANCH   1   2
BRANCH   1  17
ATOM     14  C   UNL     1      48.185   6.378  14.289  0.00  0.00    +0.000 A 
ATOM     15  C   UNL     1      48.223   7.278  13.229  0.00  0.00    +0.000 A 
ATOM     16  C   UNL     1      47.345   7.088  12.160  0.00  0.00    +0.000 A 
ATOM     17  C   UNL     1      46.436   6.024  12.179  0.00  0.00    +0.000 A 
ATOM     18  C   UNL     1      46.522   5.146  13.262  0.00  0.00    +0.000 A 
ATOM     19  N   UNL     1      47.372   5.289  14.318  0.00  0.00    +0.000 NA
BRANCH  14  22
ATOM     20  C   UNL     1      49.048   7.226  17.894  0.00  0.00    +0.000 C 
ATOM     21  N   UNL     1      48.356   6.856  16.685  0.00  0.00    +0.000 N 
ATOM     22  C   UNL     1      49.040   6.643  15.503  0.00  0.00    +0.000 C 
ATOM     23  O   UNL     1      50.264   6.687  15.422  0.00  0.00    +0.000 OA
ATOM     24  H   UNL     1      47.342   6.888  16.630  0.00  0.00    +0.000 HD
ENDBRANCH  14  22
ENDBRANCH   1  17
TORSDOF 6
ENDMDL
MODEL 3
REMARK VINA RESULT:    -5.748      3.982      8.580
REMARK INTER + INTRA:          -8.198
REMARK INTER:                  -7.632
REMARK INTRA:                  -0.565
REMARK UNBOUND:                -0.601
REMARK  Name = 
REMARK  7 active torsions:
REMARK  status: ('A' for Active; 'I' for Inactive)
REMARK    1  A    between atoms: C_1  and  N_2
REMARK    2  A    between atoms: C_3  and  C_5
REMARK    3  A    between atoms: C_8  and  C_9
REMARK    4  A    between atoms: C_9  and  N_10
REMARK    5  A    between atoms: N_10  and  C_11
REMARK    6  A    between atoms: C_11  and  C_12
REMARK    7  A    between atoms: C_12  and  O_13
REMARK                            x       y       z     vdW  Elec       q    Type
REMARK                         _______ _______ _______ _____ _____    ______ ____
ROOT
ATOM      1  C   UNL     1      48.266   5.454  15.202  0.00  0.00    +0.000 C 
ENDROOT
BRANCH   1   2
ATOM      2  N   UNL     1      48.139   4.976  16.591  0.00  0.00    +0.000 N 
ATOM      3  C   UNL     1      48.075   6.054  17.512  0.00  0.00    +0.000 A 
ATOM      4  C   UNL     1      47.547   5.834  18.792  0.00  0.00    +0.000 A 
ATOM      5  C   UNL     1      47.496   6.879  19.718  0.00  0.00    +0.000 A 
ATOM      6  C   UNL     1      47.973   8.129  19.353  0.00  0.00    +0.000 A 
ATOM      7 CL   UNL     1      47.951   9.438  20.461  0.00  0.00    +0.000 Cl
ATOM      8  C   UNL     1      48.467   8.283  18.070  0.00  0.00    +0.000 A 
ATOM      9  N   UNL     1      48.524   7.279  17.157  0.00  0.00    +0.000 NA
BRANCH   2  10
ATOM     10  C   UNL     1      49.089   3.928  17.040  0.00  0.00    +0.000 C 
BRANCH  10  11
ATOM     11  C   UNL     1      48.626   2.470  16.844  0.00  0.00    +0.000 C 
BRANCH  11  12
ATOM     12  O   UNL     1      49.463   1.785  15.913  0.00  0.00    +0.000 OA
ATOM     13  H   UNL     1      48.894   1.503  15.176  0.00  0.00    +0.000 HD
ENDBRANCH  11  12
ENDBRANCH  10  11
ENDBRANCH   2  10
ENDBRANCH   1   2
BRANCH   1  17
ATOM     14  C   UNL     1      45.450   4.201  12.251  0.00  0.00    +0.000 A 
ATOM     15  C   UNL     1      45.647   5.567  12.429  0.00  0.00    +0.000 A 
ATOM     16  C   UNL     1      46.494   5.990  13.455  0.00  0.00    +0.000 A 
ATOM     17  C   UNL     1      47.142   5.050  14.264  0.00  0.00    +0.000 A 
ATOM     18  C   UNL     1      46.828   3.708  14.039  0.00  0.00    +0.000 A 
ATOM     19  N   UNL     1      45.998   3.254  13.058  0.00  0.00    +0.000 NA
BRANCH  14  22
ATOM     20  C   UNL     1      44.511   2.135   9.200  0.00  0.00    +0.000 C 
ATOM     21  N   UNL     1      45.131   2.622  10.406  0.00  0.00    +0.000 N 
ATOM     22  C   UNL     1      44.638   3.727  11.072  0.00  0.00    +0.000 C 
ATOM     23  O   UNL     1      43.618   4.316  10.725  0.00  0.00    +0.000 OA
ATOM     24  H   UNL     1      46.030   2.262  10.717  0.00  0.00    +0.000 HD
ENDBRANCH  14  22
ENDBRANCH   1  17
TORSDOF 6
ENDMDL
MODEL 4
REMARK VINA RESULT:    -5.421      3.643      6.902
REMARK INTER + INTRA:          -7.766
REMARK INTER:                  -7.206
REMARK INTRA:                  -0.560
REMARK UNBOUND:                -0.601
REMARK  Name = 
REMARK  7 active torsions:
REMARK  status: ('A' for Active; 'I' for Inactive)
REMARK    1  A    between atoms: C_1  and  N_2
REMARK    2  A    between atoms: C_3  and  C_5
REMARK    3  A    between atoms: C_8  and  C_9
REMARK    4  A    between atoms: C_9  and  N_10
REMARK    5  A    between atoms: N_10  and  C_11
REMARK    6  A    between atoms: C_11  and  C_12
REMARK    7  A    between atoms: C_12  and  O_13
REMARK                            x       y       z     vdW  Elec       q    Type
REMARK                         _______ _______ _______ _____ _____    ______ ____
ROOT
ATOM      1  C   UNL     1      47.926   6.625  13.958  0.00  0.00    +0.000 C 
ENDROOT
BRANCH   1   2
ATOM      2  N   UNL     1      47.919   8.088  13.773  0.00  0.00    +0.000 N 
ATOM      3  C   UNL     1      48.908   8.502  12.843  0.00  0.00    +0.000 A 
ATOM      4  C   UNL     1      48.791   9.758  12.229  0.00  0.00    +0.000 A 
ATOM      5  C   UNL     1      49.766  10.190  11.327  0.00  0.00    +0.000 A 
ATOM      6  C   UNL     1      50.844   9.363  11.050  0.00  0.00    +0.000 A 
ATOM      7 CL   UNL     1      52.077   9.857   9.965  0.00  0.00    +0.000 Cl
ATOM      8  C   UNL     1      50.892   8.131  11.677  0.00  0.00    +0.000 A 
ATOM      9  N   UNL     1      49.953   7.694  12.556  0.00  0.00    +0.000 NA
BRANCH   2  10
ATOM     10  C   UNL     1      47.932   8.929  14.997  0.00  0.00    +0.000 C 
BRANCH  10  11
ATOM     11  C   UNL     1      48.785   8.401  16.168  0.00  0.00    +0.000 C 
BRANCH  11  12
ATOM     12  O   UNL     1      47.962   7.986  17.257  0.00  0.00    +0.000 OA
ATOM     13  H   UNL     1      47.556   7.141  16.999  0.00  0.00    +0.000 HD
ENDBRANCH  11  12
ENDBRANCH  10  11
ENDBRANCH   2  10
ENDBRANCH   1   2
BRANCH   1  17
ATOM     14  C   UNL     1      45.172   4.190  11.792  0.00  0.00    +0.000 A 
ATOM     15  C   UNL     1      45.588   5.383  11.210  0.00  0.00    +0.000 A 
ATOM     16  C   UNL     1      46.413   6.233  11.949  0.00  0.00    +0.000 A 
ATOM     17  C   UNL     1      46.825   5.869  13.236  0.00  0.00    +0.000 A 
ATOM     18  C   UNL     1      46.301   4.679  13.747  0.00  0.00    +0.000 A 
ATOM     19  N   UNL     1      45.484   3.828  13.064  0.00  0.00    +0.000 NA
BRANCH  14  22
ATOM     20  C   UNL     1      44.434   1.673   9.039  0.00  0.00    +0.000 C 
ATOM     21  N   UNL     1      45.091   2.553   9.971  0.00  0.00    +0.000 N 
ATOM     22  C   UNL     1      44.383   3.208  10.961  0.00  0.00    +0.000 C 
ATOM     23  O   UNL     1      43.183   3.034  11.151  0.00  0.00    +0.000 OA
ATOM     24  H   UNL     1      46.059   2.834   9.836  0.00  0.00    +0.000 HD
ENDBRANCH  14  22
ENDBRANCH   1  17
TORSDOF 6
ENDMDL
MODEL 5
REMARK VINA RESULT:    -5.282      2.074      2.698
REMARK INTER + INTRA:          -7.581
REMARK INTER:                  -7.151
REMARK INTRA:                  -0.431
REMARK UNBOUND:                -0.601
REMARK  Name = 
REMARK  7 active torsions:
REMARK  status: ('A' for Active; 'I' for Inactive)
REMARK    1  A    between atoms: C_1  and  N_2
REMARK    2  A    between atoms: C_3  and  C_5
REMARK    3  A    between atoms: C_8  and  C_9
REMARK    4  A    between atoms: C_9  and  N_10
REMARK    5  A    between atoms: N_10  and  C_11
REMARK    6  A    between atoms: C_11  and  C_12
REMARK    7  A    between atoms: C_12  and  O_13
REMARK                            x       y       z     vdW  Elec       q    Type
REMARK                         _______ _______ _______ _____ _____    ______ ____
ROOT
ATOM      1  C   UNL     1      46.835   7.785  11.806  0.00  0.00    +0.000 C 
ENDROOT
BRANCH   1   2
ATOM      2  N   UNL     1      45.395   7.468  11.752  0.00  0.00    +0.000 N 
ATOM      3  C   UNL     1      45.144   6.309  10.972  0.00  0.00    +0.000 A 
ATOM      4  C   UNL     1      43.935   5.619  11.137  0.00  0.00    +0.000 A 
ATOM      5  C   UNL     1      43.662   4.488  10.363  0.00  0.00    +0.000 A 
ATOM      6  C   UNL     1      44.600   4.063   9.435  0.00  0.00    +0.000 A 
ATOM      7 CL   UNL     1      44.303   2.692   8.447  0.00  0.00    +0.000 Cl
ATOM      8  C   UNL     1      45.779   4.778   9.333  0.00  0.00    +0.000 A 
ATOM      9  N   UNL     1      46.062   5.879  10.077  0.00  0.00    +0.000 NA
BRANCH   2  10
ATOM     10  C   UNL     1      44.467   8.573  11.406  0.00  0.00    +0.000 C 
BRANCH  10  11
ATOM     11  C   UNL     1      44.680   9.896  12.169  0.00  0.00    +0.000 C 
BRANCH  11  12
ATOM     12  O   UNL     1      43.461  10.633  12.271  0.00  0.00    +0.000 OA
ATOM     13  H   UNL     1      42.986  10.508  11.431  0.00  0.00    +0.000 HD
ENDBRANCH  11  12
ENDBRANCH  10  11
ENDBRANCH   2  10
ENDBRANCH   1   2
BRANCH   1  17
ATOM     14  C   UNL     1      48.498   6.236  15.416  0.00  0.00    +0.000 A 
ATOM     15  C   UNL     1      48.605   7.603  15.181  0.00  0.00    +0.000 A 
ATOM     16  C   UNL     1      48.150   8.107  13.961  0.00  0.00    +0.000 A 
ATOM     17  C   UNL     1      47.579   7.248  13.015  0.00  0.00    +0.000 A 
ATOM     18  C   UNL     1      47.575   5.886  13.327  0.00  0.00    +0.000 A 
ATOM     19  N   UNL     1      48.021   5.353  14.500  0.00  0.00    +0.000 NA
BRANCH  14  22
ATOM     20  C   UNL     1      48.352   5.716  19.180  0.00  0.00    +0.000 C 
ATOM     21  N   UNL     1      48.045   6.072  17.818  0.00  0.00    +0.000 N 
ATOM     22  C   UNL     1      48.871   5.698  16.775  0.00  0.00    +0.000 C 
ATOM     23  O   UNL     1      49.865   4.993  16.930  0.00  0.00    +0.000 OA
ATOM     24  H   UNL     1      47.302   6.731  17.601  0.00  0.00    +0.000 HD
ENDBRANCH  14  22
ENDBRANCH   1  17
TORSDOF 6
ENDMDL
MODEL 6
REMARK VINA RESULT:    -5.215      4.579      8.000
REMARK INTER + INTRA:          -7.493
REMARK INTER:                  -6.778
REMARK INTRA:                  -0.715
REMARK UNBOUND:                -0.601
REMARK  Name = 
REMARK  7 active torsions:
REMARK  status: ('A' for Active; 'I' for Inactive)
REMARK    1  A    between atoms: C_1  and  N_2
REMARK    2  A    between atoms: C_3  and  C_5
REMARK    3  A    between atoms: C_8  and  C_9
REMARK    4  A    between atoms: C_9  and  N_10
REMARK    5  A    between atoms: N_10  and  C_11
REMARK    6  A    between atoms: C_11  and  C_12
REMARK    7  A    between atoms: C_12  and  O_13
REMARK                            x       y       z     vdW  Elec       q    Type
REMARK                         _______ _______ _______ _____ _____    ______ ____
ROOT
ATOM      1  C   UNL     1      47.455   3.865  15.810  0.00  0.00    +0.000 C 
ENDROOT
BRANCH   1   2
ATOM      2  N   UNL     1      48.185   4.407  16.971  0.00  0.00    +0.000 N 
ATOM      3  C   UNL     1      49.398   3.707  17.199  0.00  0.00    +0.000 A 
ATOM      4  C   UNL     1      50.407   4.310  17.963  0.00  0.00    +0.000 A 
ATOM      5  C   UNL     1      51.600   3.626  18.216  0.00  0.00    +0.000 A 
ATOM      6  C   UNL     1      51.767   2.350  17.702  0.00  0.00    +0.000 A 
ATOM      7 CL   UNL     1      53.205   1.462  18.000  0.00  0.00    +0.000 Cl
ATOM      8  C   UNL     1      50.740   1.818  16.944  0.00  0.00    +0.000 A 
ATOM      9  N   UNL     1      49.575   2.468  16.688  0.00  0.00    +0.000 NA
BRANCH   2  10
ATOM     10  C   UNL     1      47.419   4.599  18.228  0.00  0.00    +0.000 C 
BRANCH  10  11
ATOM     11  C   UNL     1      47.203   6.062  18.668  0.00  0.00    +0.000 C 
BRANCH  11  12
ATOM     12  O   UNL     1      47.981   6.957  17.874  0.00  0.00    +0.000 OA
ATOM     13  H   UNL     1      48.899   6.887  18.189  0.00  0.00    +0.000 HD
ENDBRANCH  11  12
ENDBRANCH  10  11
ENDBRANCH   2  10
ENDBRANCH   1   2
BRANCH   1  17
ATOM     14  C   UNL     1      46.399   6.941  13.047  0.00  0.00    +0.000 A 
ATOM     15  C   UNL     1      45.612   5.794  13.082  0.00  0.00    +0.000 A 
ATOM     16  C   UNL     1      46.002   4.742  13.913  0.00  0.00    +0.000 A 
ATOM     17  C   UNL     1      47.149   4.862  14.705  0.00  0.00    +0.000 A 
ATOM     18  C   UNL     1      47.899   6.030  14.550  0.00  0.00    +0.000 A 
ATOM     19  N   UNL     1      47.560   7.074  13.741  0.00  0.00    +0.000 NA
BRANCH  14  22
ATOM     20  C   UNL     1      44.016   9.165  11.090  0.00  0.00    +0.000 C 
ATOM     21  N   UNL     1      44.576   8.144  11.938  0.00  0.00    +0.000 N 
ATOM     22  C   UNL     1      45.922   8.130  12.250  0.00  0.00    +0.000 C 
ATOM     23  O   UNL     1      46.702   9.007  11.889  0.00  0.00    +0.000 OA
ATOM     24  H   UNL     1      44.034   7.327  12.206  0.00  0.00    +0.000 HD
ENDBRANCH  14  22
ENDBRANCH   1  17
TORSDOF 6
ENDMDL
MODEL 7
REMARK VINA RESULT:    -5.061      4.602      7.995
REMARK INTER + INTRA:          -7.290
REMARK INTER:                  -6.833
REMARK INTRA:                  -0.457
REMARK UNBOUND:                -0.601
REMARK  Name = 
REMARK  7 active torsions:
REMARK  status: ('A' for Active; 'I' for Inactive)
REMARK    1  A    between atoms: C_1  and  N_2
REMARK    2  A    between atoms: C_3  and  C_5
REMARK    3  A    between atoms: C_8  and  C_9
REMARK    4  A    between atoms: C_9  and  N_10
REMARK    5  A    between atoms: N_10  and  C_11
REMARK    6  A    between atoms: C_11  and  C_12
REMARK    7  A    between atoms: C_12  and  O_13
REMARK                            x       y       z     vdW  Elec       q    Type
REMARK                         _______ _______ _______ _____ _____    ______ ____
ROOT
ATOM      1  C   UNL     1      47.702   4.282  14.504  0.00  0.00    +0.000 C 
ENDROOT
BRANCH   1   2
ATOM      2  N   UNL     1      47.486   4.442  15.955  0.00  0.00    +0.000 N 
ATOM      3  C   UNL     1      48.339   5.434  16.504  0.00  0.00    +0.000 A 
ATOM      4  C   UNL     1      48.010   6.018  17.736  0.00  0.00    +0.000 A 
ATOM      5  C   UNL     1      48.850   6.981  18.301  0.00  0.00    +0.000 A 
ATOM      6  C   UNL     1      50.005   7.349  17.628  0.00  0.00    +0.000 A 
ATOM      7 CL   UNL     1      51.078   8.512  18.291  0.00  0.00    +0.000 Cl
ATOM      8  C   UNL     1      50.263   6.747  16.410  0.00  0.00    +0.000 A 
ATOM      9  N   UNL     1      49.459   5.809  15.845  0.00  0.00    +0.000 NA
BRANCH   2  10
ATOM     10  C   UNL     1      47.476   3.209  16.782  0.00  0.00    +0.000 C 
BRANCH  10  11
ATOM     11  C   UNL     1      48.855   2.579  17.067  0.00  0.00    +0.000 C 
BRANCH  11  12
ATOM     12  O   UNL     1      49.267   1.736  15.991  0.00  0.00    +0.000 OA
ATOM     13  H   UNL     1      48.845   0.871  16.134  0.00  0.00    +0.000 HD
ENDBRANCH  11  12
ENDBRANCH  10  11
ENDBRANCH   2  10
ENDBRANCH   1   2
BRANCH   1  17
ATOM     14  C   UNL     1      45.621   7.345  12.385  0.00  0.00    +0.000 A 
ATOM     15  C   UNL     1      44.878   6.290  12.906  0.00  0.00    +0.000 A 
ATOM     16  C   UNL     1      45.558   5.235  13.518  0.00  0.00    +0.000 A 
ATOM     17  C   UNL     1      46.953   5.263  13.619  0.00  0.00    +0.000 A 
ATOM     18  C   UNL     1      47.604   6.338  13.011  0.00  0.00    +0.000 A 
ATOM     19  N   UNL     1      46.979   7.381  12.393  0.00  0.00    +0.000 NA
BRANCH  14  22
ATOM     20  C   UNL     1      42.939   9.331  10.563  0.00  0.00    +0.000 C 
ATOM     21  N   UNL     1      43.680   8.288  11.225  0.00  0.00    +0.000 N 
ATOM     22  C   UNL     1      44.894   8.547  11.833  0.00  0.00    +0.000 C 
ATOM     23  O   UNL     1      45.379   9.672  11.906  0.00  0.00    +0.000 OA
ATOM     24  H   UNL     1      43.410   7.313  11.136  0.00  0.00    +0.000 HD
ENDBRANCH  14  22
ENDBRANCH   1  17
TORSDOF 6
ENDMDL
MODEL 8
REMARK VINA RESULT:    -5.014      4.330      7.975
REMARK INTER + INTRA:          -7.228
REMARK INTER:                  -6.591
REMARK INTRA:                  -0.637
REMARK UNBOUND:                -0.601
REMARK  Name = 
REMARK  7 active torsions:
REMARK  status: ('A' for Active; 'I' for Inactive)
REMARK    1  A    between atoms: C_1  and  N_2
REMARK    2  A    between atoms: C_3  and  C_5
REMARK    3  A    between atoms: C_8  and  C_9
REMARK    4  A    between atoms: C_9  and  N_10
REMARK    5  A    between atoms: N_10  and  C_11
REMARK    6  A    between atoms: C_11  and  C_12
REMARK    7  A    between atoms: C_12  and  O_13
REMARK                            x       y       z     vdW  Elec       q    Type
REMARK                         _______ _______ _______ _____ _____    ______ ____
ROOT
ATOM      1  C   UNL     1      47.112   7.629  13.357  0.00  0.00    +0.000 C 
ENDROOT
BRANCH   1   2
ATOM      2  N   UNL     1      48.484   7.184  13.667  0.00  0.00    +0.000 N 
ATOM      3  C   UNL     1      48.914   7.661  14.932  0.00  0.00    +0.000 A 
ATOM      4  C   UNL     1      49.985   7.027  15.578  0.00  0.00    +0.000 A 
ATOM      5  C   UNL     1      50.436   7.497  16.815  0.00  0.00    +0.000 A 
ATOM      6  C   UNL     1      49.811   8.593  17.389  0.00  0.00    +0.000 A 
ATOM      7 CL   UNL     1      50.341   9.219  18.895  0.00  0.00    +0.000 Cl
ATOM      8  C   UNL     1      48.751   9.164  16.707  0.00  0.00    +0.000 A 
ATOM      9  N   UNL     1      48.299   8.721  15.505  0.00  0.00    +0.000 NA
BRANCH   2  10
ATOM     10  C   UNL     1      49.518   7.390  12.623  0.00  0.00    +0.000 C 
BRANCH  10  11
ATOM     11  C   UNL     1      49.320   8.618  11.711  0.00  0.00    +0.000 C 
BRANCH  11  12
ATOM     12  O   UNL     1      49.985   9.764  12.241  0.00  0.00    +0.000 OA
ATOM     13  H   UNL     1      49.299  10.430  12.421  0.00  0.00    +0.000 HD
ENDBRANCH  11  12
ENDBRANCH  10  11
ENDBRANCH   2  10
ENDBRANCH   1   2
BRANCH   1  17
ATOM     14  C   UNL     1      44.900   4.422  11.616  0.00  0.00    +0.000 A 
ATOM     15  C   UNL     1      44.849   5.666  10.994  0.00  0.00    +0.000 A 
ATOM     16  C   UNL     1      45.490   6.744  11.606  0.00  0.00    +0.000 A 
ATOM     17  C   UNL     1      46.185   6.559  12.806  0.00  0.00    +0.000 A 
ATOM     18  C   UNL     1      46.123   5.285  13.376  0.00  0.00    +0.000 A 
ATOM     19  N   UNL     1      45.498   4.209  12.818  0.00  0.00    +0.000 NA
BRANCH  14  22
ATOM     20  C   UNL     1      44.621   1.599   9.083  0.00  0.00    +0.000 C 
ATOM     21  N   UNL     1      45.105   2.676   9.910  0.00  0.00    +0.000 N 
ATOM     22  C   UNL     1      44.318   3.225  10.905  0.00  0.00    +0.000 C 
ATOM     23  O   UNL     1      43.203   2.797  11.189  0.00  0.00    +0.000 OA
ATOM     24  H   UNL     1      45.972   3.159   9.691  0.00  0.00    +0.000 HD
ENDBRANCH  14  22
ENDBRANCH   1  17
TORSDOF 6
ENDMDL
MODEL 9
REMARK VINA RESULT:    -4.916      4.102      5.969
REMARK INTER + INTRA:          -7.098
REMARK INTER:                  -6.501
REMARK INTRA:                  -0.597
REMARK UNBOUND:                -0.601
REMARK  Name = 
REMARK  7 active torsions:
REMARK  status: ('A' for Active; 'I' for Inactive)
REMARK    1  A    between atoms: C_1  and  N_2
REMARK    2  A    between atoms: C_3  and  C_5
REMARK    3  A    between atoms: C_8  and  C_9
REMARK    4  A    between atoms: C_9  and  N_10
REMARK    5  A    between atoms: N_10  and  C_11
REMARK    6  A    between atoms: C_11  and  C_12
REMARK    7  A    between atoms: C_12  and  O_13
REMARK                            x       y       z     vdW  Elec       q    Type
REMARK                         _______ _______ _______ _____ _____    ______ ____
ROOT
ATOM      1  C   UNL     1      47.171   5.036  15.834  0.00  0.00    +0.000 C 
ENDROOT
BRANCH   1   2
ATOM      2  N   UNL     1      47.233   5.087  14.361  0.00  0.00    +0.000 N 
ATOM      3  C   UNL     1      47.848   6.282  13.905  0.00  0.00    +0.000 A 
ATOM      4  C   UNL     1      48.368   6.335  12.604  0.00  0.00    +0.000 A 
ATOM      5  C   UNL     1      48.958   7.510  12.131  0.00  0.00    +0.000 A 
ATOM      6  C   UNL     1      49.020   8.617  12.965  0.00  0.00    +0.000 A 
ATOM      7 CL   UNL     1      49.716  10.088  12.424  0.00  0.00    +0.000 Cl
ATOM      8  C   UNL     1      48.502   8.495  14.241  0.00  0.00    +0.000 A 
ATOM      9  N   UNL     1      47.926   7.360  14.718  0.00  0.00    +0.000 NA
BRANCH   2  10
ATOM     10  C   UNL     1      45.983   4.796  13.616  0.00  0.00    +0.000 C 
BRANCH  10  11
ATOM     11  C   UNL     1      46.009   3.540  12.722  0.00  0.00    +0.000 C 
BRANCH  11  12
ATOM     12  O   UNL     1      44.761   2.848  12.771  0.00  0.00    +0.000 OA
ATOM     13  H   UNL     1      44.950   1.912  12.585  0.00  0.00    +0.000 HD
ENDBRANCH  11  12
ENDBRANCH  10  11
ENDBRANCH   2  10
ENDBRANCH   1   2
BRANCH   1  17
ATOM     14  C   UNL     1      50.445   2.734  17.313  0.00  0.00    +0.000 A 
ATOM     15  C   UNL     1      49.298   2.056  16.911  0.00  0.00    +0.000 A 
ATOM     16  C   UNL     1      48.187   2.803  16.515  0.00  0.00    +0.000 A 
ATOM     17  C   UNL     1      48.248   4.202  16.506  0.00  0.00    +0.000 A 
ATOM     18  C   UNL     1      49.426   4.780  16.984  0.00  0.00    +0.000 A 
ATOM     19  N   UNL     1      50.527   4.088  17.391  0.00  0.00    +0.000 NA
BRANCH  14  22
ATOM     20  C   UNL     1      53.857   1.934  18.790  0.00  0.00    +0.000 C 
ATOM     21  N   UNL     1      52.581   2.537  18.495  0.00  0.00    +0.000 N 
ATOM     22  C   UNL     1      51.690   1.940  17.623  0.00  0.00    +0.000 C 
ATOM     23  O   UNL     1      51.893   0.846  17.105  0.00  0.00    +0.000 OA
ATOM     24  H   UNL     1      52.364   3.482  18.799  0.00  0.00    +0.000 HD
ENDBRANCH  14  22
ENDBRANCH   1  17
TORSDOF 6
ENDMDL
