MODEL 1
REMARK VINA RESULT:    -9.354      0.000      0.000
REMARK INTER + INTRA:         -13.073
REMARK INTER:                 -12.088
REMARK INTRA:                  -0.985
REMARK UNBOUND:                -0.985
REMARK  Name = 
REMARK  5 active torsions:
REMARK  status: ('A' for Active; 'I' for Inactive)
REMARK    1  A    between atoms: C_2  and  C_4
REMARK    2  A    between atoms: C_7  and  O_8
REMARK    3  A    between atoms: O_8  and  C_9
REMARK    4  A    between atoms: C_9  and  C_10
REMARK    5  A    between atoms: C_14  and  C_15
REMARK                            x       y       z     vdW  Elec       q    Type
REMARK                         _______ _______ _______ _____ _____    ______ ____
ROOT
ATOM      1  C   UNL     1      43.993   4.888  11.470  0.00  0.00    +0.000 C 
ATOM      2  C   UNL     1      42.746   5.038  12.332  0.00  0.00    +0.000 C 
ATOM      3  C   UNL     1      42.991   5.996  11.212  0.00  0.00    +0.000 C 
ENDROOT
BRANCH   1   4
ATOM      4  C   UNL     1      45.349   5.199  12.081  0.00  0.00    +0.000 A 
ATOM      5  C   UNL     1      46.105   6.285  11.619  0.00  0.00    +0.000 A 
ATOM      6  C   UNL     1      47.305   6.645  12.230  0.00  0.00    +0.000 A 
ATOM      7  C   UNL     1      47.757   5.942  13.347  0.00  0.00    +0.000 A 
ATOM      8  C   UNL     1      47.025   4.865  13.871  0.00  0.00    +0.000 A 
ATOM      9  C   UNL     1      45.855   4.483  13.185  0.00  0.00    +0.000 A 
BRANCH   8  10
ATOM     10  C   UNL     1      47.393   4.218  15.147  0.00  0.00    +0.000 A 
ATOM     11  C   UNL     1      47.141   4.831  16.377  0.00  0.00    +0.000 A 
ATOM     12  C   UNL     1      47.423   4.149  17.557  0.00  0.00    +0.000 A 
ATOM     13  C   UNL     1      47.956   2.870  17.488  0.00  0.00    +0.000 A 
ATOM     14  C   UNL     1      48.183   2.326  16.233  0.00  0.00    +0.000 A 
ATOM     15  N   UNL     1      47.907   2.963  15.073  0.00  0.00    +0.000 NA
ENDBRANCH   8  10
ENDBRANCH   1   4
BRANCH   1  16
ATOM     16  O   UNL     1      43.915   3.675  10.682  0.00  0.00    +0.000 OA
BRANCH  16  20
ATOM     17  C   UNL     1      46.469   2.742   7.521  0.00  0.00    +0.000 A 
ATOM     18  C   UNL     1      46.134   4.085   7.734  0.00  0.00    +0.000 A 
ATOM     19  C   UNL     1      45.299   4.443   8.798  0.00  0.00    +0.000 A 
ATOM     20  C   UNL     1      44.789   3.466   9.649  0.00  0.00    +0.000 A 
ATOM     21  C   UNL     1      45.141   2.127   9.448  0.00  0.00    +0.000 A 
ATOM     22  C   UNL     1      45.968   1.762   8.384  0.00  0.00    +0.000 A 
BRANCH  17  24
ATOM     23  N   UNL     1      47.211   3.057   5.223  0.00  0.00    +0.000 N 
ATOM     24  C   UNL     1      47.304   2.317   6.369  0.00  0.00    +0.000 C 
ATOM     25  O   UNL     1      48.063   1.362   6.442  0.00  0.00    +0.000 OA
ATOM     26  H   UNL     1      47.839   2.809   4.473  0.00  0.00    +0.000 HD
ATOM     27  H   UNL     1      46.789   3.975   5.203  0.00  0.00    +0.000 HD
ENDBRANCH  17  24
ENDBRANCH  16  20
ENDBRANCH   1  16
TORSDOF 5
ENDMDL
MODEL 2
REMARK VINA RESULT:    -9.207      1.860      3.180
REMARK INTER + INTRA:         -12.883
REMARK INTER:                 -11.600
REMARK INTRA:                  -1.283
REMARK UNBOUND:                -0.985
REMARK  Name = 
REMARK  5 active torsions:
REMARK  status: ('A' for Active; 'I' for Inactive)
REMARK    1  A    between atoms: C_2  and  C_4
REMARK    2  A    between atoms: C_7  and  O_8
REMARK    3  A    between atoms: O_8  and  C_9
REMARK    4  A    between atoms: C_9  and  C_10
REMARK    5  A    between atoms: C_14  and  C_15
REMARK                            x       y       z     vdW  Elec       q    Type
REMARK                         _______ _______ _______ _____ _____    ______ ____
ROOT
ATOM      1  C   UNL     1      43.712   5.058  11.251  0.00  0.00    +0.000 C 
ATOM      2  C   UNL     1      42.399   5.453  11.916  0.00  0.00    +0.000 C 
ATOM      3  C   UNL     1      43.103   6.428  11.028  0.00  0.00    +0.000 C 
ENDROOT
BRANCH   1   4
ATOM      4  C   UNL     1      44.951   4.895  12.115  0.00  0.00    +0.000 A 
ATOM      5  C   UNL     1      45.219   3.675  12.754  0.00  0.00    +0.000 A 
ATOM      6  C   UNL     1      46.397   3.476  13.471  0.00  0.00    +0.000 A 
ATOM      7  C   UNL     1      47.355   4.487  13.532  0.00  0.00    +0.000 A 
ATOM      8  C   UNL     1      47.154   5.718  12.887  0.00  0.00    +0.000 A 
ATOM      9  C   UNL     1      45.921   5.912  12.233  0.00  0.00    +0.000 A 
BRANCH   8  10
ATOM     10  C   UNL     1      48.222   6.735  12.796  0.00  0.00    +0.000 A 
ATOM     11  C   UNL     1      48.242   7.684  11.771  0.00  0.00    +0.000 A 
ATOM     12  C   UNL     1      49.216   8.679  11.773  0.00  0.00    +0.000 A 
ATOM     13  C   UNL     1      50.153   8.706  12.795  0.00  0.00    +0.000 A 
ATOM     14  C   UNL     1      50.074   7.730  13.778  0.00  0.00    +0.000 A 
ATOM     15  N   UNL     1      49.131   6.761  13.805  0.00  0.00    +0.000 NA
ENDBRANCH   8  10
ENDBRANCH   1   4
BRANCH   1  16
ATOM     16  O   UNL     1      43.483   4.020  10.267  0.00  0.00    +0.000 OA
BRANCH  16  20
ATOM     17  C   UNL     1      46.440   2.497   7.753  0.00  0.00    +0.000 A 
ATOM     18  C   UNL     1      46.228   3.881   7.772  0.00  0.00    +0.000 A 
ATOM     19  C   UNL     1      45.262   4.435   8.619  0.00  0.00    +0.000 A 
ATOM     20  C   UNL     1      44.498   3.613   9.444  0.00  0.00    +0.000 A 
ATOM     21  C   UNL     1      44.725   2.233   9.439  0.00  0.00    +0.000 A 
ATOM     22  C   UNL     1      45.682   1.673   8.591  0.00  0.00    +0.000 A 
BRANCH  17  24
ATOM     23  N   UNL     1      48.489   2.620   6.444  0.00  0.00    +0.000 N 
ATOM     24  C   UNL     1      47.414   1.867   6.826  0.00  0.00    +0.000 C 
ATOM     25  O   UNL     1      47.279   0.717   6.436  0.00  0.00    +0.000 OA
ATOM     26  H   UNL     1      49.185   2.157   5.877  0.00  0.00    +0.000 HD
ATOM     27  H   UNL     1      48.757   3.467   6.925  0.00  0.00    +0.000 HD
ENDBRANCH  17  24
ENDBRANCH  16  20
ENDBRANCH   1  16
TORSDOF 5
ENDMDL
MODEL 3
REMARK VINA RESULT:    -7.494      2.708      7.614
REMARK INTER + INTRA:         -10.670
REMARK INTER:                  -9.618
REMARK INTRA:                  -1.052
REMARK UNBOUND:                -0.985
REMARK  Name = 
REMARK  5 active torsions:
REMARK  status: ('A' for Active; 'I' for Inactive)
REMARK    1  A    between atoms: C_2  and  C_4
REMARK    2  A    between atoms: C_7  and  O_8
REMARK    3  A    between atoms: O_8  and  C_9
REMARK    4  A    between atoms: C_9  and  C_10
REMARK    5  A    between atoms: C_14  and  C_15
REMARK                            x       y       z     vdW  Elec       q    Type
REMARK                         _______ _______ _______ _____ _____    ______ ____
ROOT
ATOM      1  C   UNL     1      46.426   7.397  12.526  0.00  0.00    +0.000 C 
ATOM      2  C   UNL     1      46.661   8.764  11.896  0.00  0.00    +0.000 C 
ATOM      3  C   UNL     1      45.947   8.665  13.205  0.00  0.00    +0.000 C 
ENDROOT
BRANCH   1   4
ATOM      4  C   UNL     1      45.435   6.449  11.872  0.00  0.00    +0.000 A 
ATOM      5  C   UNL     1      44.057   6.610  12.072  0.00  0.00    +0.000 A 
ATOM      6  C   UNL     1      43.129   5.813  11.406  0.00  0.00    +0.000 A 
ATOM      7  C   UNL     1      43.563   4.854  10.491  0.00  0.00    +0.000 A 
ATOM      8  C   UNL     1      44.930   4.669  10.229  0.00  0.00    +0.000 A 
ATOM      9  C   UNL     1      45.843   5.441  10.973  0.00  0.00    +0.000 A 
BRANCH   8  10
ATOM     10  C   UNL     1      45.403   3.783   9.144  0.00  0.00    +0.000 A 
ATOM     11  C   UNL     1      45.967   4.297   7.974  0.00  0.00    +0.000 A 
ATOM     12  C   UNL     1      46.481   3.426   7.017  0.00  0.00    +0.000 A 
ATOM     13  C   UNL     1      46.418   2.059   7.244  0.00  0.00    +0.000 A 
ATOM     14  C   UNL     1      45.841   1.621   8.427  0.00  0.00    +0.000 A 
ATOM     15  N   UNL     1      45.346   2.446   9.376  0.00  0.00    +0.000 NA
ENDBRANCH   8  10
ENDBRANCH   1   4
BRANCH   1  16
ATOM     16  O   UNL     1      47.686   6.812  12.939  0.00  0.00    +0.000 OA
BRANCH  16  20
ATOM     17  C   UNL     1      47.983   4.812  16.585  0.00  0.00    +0.000 A 
ATOM     18  C   UNL     1      47.193   4.247  15.576  0.00  0.00    +0.000 A 
ATOM     19  C   UNL     1      47.085   4.874  14.330  0.00  0.00    +0.000 A 
ATOM     20  C   UNL     1      47.758   6.069  14.086  0.00  0.00    +0.000 A 
ATOM     21  C   UNL     1      48.564   6.621  15.087  0.00  0.00    +0.000 A 
ATOM     22  C   UNL     1      48.670   6.005  16.335  0.00  0.00    +0.000 A 
BRANCH  17  24
ATOM     23  N   UNL     1      47.390   3.044  18.150  0.00  0.00    +0.000 N 
ATOM     24  C   UNL     1      48.075   4.207  17.938  0.00  0.00    +0.000 C 
ATOM     25  O   UNL     1      48.751   4.711  18.823  0.00  0.00    +0.000 OA
ATOM     26  H   UNL     1      47.521   2.599  19.047  0.00  0.00    +0.000 HD
ATOM     27  H   UNL     1      47.026   2.482  17.393  0.00  0.00    +0.000 HD
ENDBRANCH  17  24
ENDBRANCH  16  20
ENDBRANCH   1  16
TORSDOF 5
ENDMDL
MODEL 4
REMARK VINA RESULT:    -6.867      2.812      4.450
REMARK INTER + INTRA:          -9.859
REMARK INTER:                  -8.895
REMARK INTRA:                  -0.964
REMARK UNBOUND:                -0.985
REMARK  Name = 
REMARK  5 active torsions:
REMARK  status: ('A' for Active; 'I' for Inactive)
REMARK    1  A    between atoms: C_2  and  C_4
REMARK    2  A    between atoms: C_7  and  O_8
REMARK    3  A    between atoms: O_8  and  C_9
REMARK    4  A    between atoms: C_9  and  C_10
REMARK    5  A    between atoms: C_14  and  C_15
REMARK                            x       y       z     vdW  Elec       q    Type
REMARK                         _______ _______ _______ _____ _____    ______ ____
ROOT
ATOM      1  C   UNL     1      47.862   8.014  12.617  0.00  0.00    +0.000 C 
ATOM      2  C   UNL     1      48.483   9.119  11.772  0.00  0.00    +0.000 C 
ATOM      3  C   UNL     1      48.874   7.697  11.533  0.00  0.00    +0.000 C 
ENDROOT
BRANCH   1   4
ATOM      4  C   UNL     1      48.245   7.910  14.084  0.00  0.00    +0.000 A 
ATOM      5  C   UNL     1      48.217   9.043  14.909  0.00  0.00    +0.000 A 
ATOM      6  C   UNL     1      48.471   8.950  16.276  0.00  0.00    +0.000 A 
ATOM      7  C   UNL     1      48.724   7.707  16.856  0.00  0.00    +0.000 A 
ATOM      8  C   UNL     1      48.735   6.535  16.082  0.00  0.00    +0.000 A 
ATOM      9  C   UNL     1      48.547   6.674  14.693  0.00  0.00    +0.000 A 
BRANCH   8  10
ATOM     10  C   UNL     1      48.831   5.195  16.698  0.00  0.00    +0.000 A 
ATOM     11  C   UNL     1      47.708   4.377  16.846  0.00  0.00    +0.000 A 
ATOM     12  C   UNL     1      47.858   3.087  17.350  0.00  0.00    +0.000 A 
ATOM     13  C   UNL     1      49.124   2.640  17.699  0.00  0.00    +0.000 A 
ATOM     14  C   UNL     1      50.192   3.509  17.527  0.00  0.00    +0.000 A 
ATOM     15  N   UNL     1      50.074   4.760  17.030  0.00  0.00    +0.000 NA
ENDBRANCH   8  10
ENDBRANCH   1   4
BRANCH   1  16
ATOM     16  O   UNL     1      46.450   7.887  12.318  0.00  0.00    +0.000 OA
BRANCH  16  20
ATOM     17  C   UNL     1      44.726   4.245  11.250  0.00  0.00    +0.000 A 
ATOM     18  C   UNL     1      45.269   5.048  10.239  0.00  0.00    +0.000 A 
ATOM     19  C   UNL     1      45.878   6.267  10.558  0.00  0.00    +0.000 A 
ATOM     20  C   UNL     1      45.942   6.694  11.882  0.00  0.00    +0.000 A 
ATOM     21  C   UNL     1      45.418   5.881  12.893  0.00  0.00    +0.000 A 
ATOM     22  C   UNL     1      44.803   4.667  12.581  0.00  0.00    +0.000 A 
BRANCH  17  24
ATOM     23  N   UNL     1      44.563   2.174   9.979  0.00  0.00    +0.000 N 
ATOM     24  C   UNL     1      44.020   2.975  10.945  0.00  0.00    +0.000 C 
ATOM     25  O   UNL     1      43.009   2.641  11.545  0.00  0.00    +0.000 OA
ATOM     26  H   UNL     1      44.121   1.278   9.834  0.00  0.00    +0.000 HD
ATOM     27  H   UNL     1      45.507   2.297   9.641  0.00  0.00    +0.000 HD
ENDBRANCH  17  24
ENDBRANCH  16  20
ENDBRANCH   1  16
TORSDOF 5
ENDMDL
MODEL 5
REMARK VINA RESULT:    -6.498      3.636      8.406
REMARK INTER + INTRA:          -9.382
REMARK INTER:                  -8.270
REMARK INTRA:                  -1.111
REMARK UNBOUND:                -0.985
REMARK  Name = 
REMARK  5 active torsions:
REMARK  status: ('A' for Active; 'I' for Inactive)
REMARK    1  A    between atoms: C_2  and  C_4
REMARK    2  A    between atoms: C_7  and  O_8
REMARK    3  A    between atoms: O_8  and  C_9
REMARK    4  A    between atoms: C_9  and  C_10
REMARK    5  A    between atoms: C_14  and  C_15
REMARK                            x       y       z     vdW  Elec       q    Type
REMARK                         _______ _______ _______ _____ _____    ______ ____
ROOT
ATOM      1  C   UNL     1      48.909   7.579  12.971  0.00  0.00    +0.000 C 
ATOM      2  C   UNL     1      49.940   7.731  11.859  0.00  0.00    +0.000 C 
ATOM      3  C   UNL     1      49.629   8.894  12.744  0.00  0.00    +0.000 C 
ENDROOT
BRANCH   1   4
ATOM      4  C   UNL     1      47.445   7.426  12.595  0.00  0.00    +0.000 A 
ATOM      5  C   UNL     1      46.533   8.461  12.847  0.00  0.00    +0.000 A 
ATOM      6  C   UNL     1      45.208   8.379  12.424  0.00  0.00    +0.000 A 
ATOM      7  C   UNL     1      44.774   7.267  11.703  0.00  0.00    +0.000 A 
ATOM      8  C   UNL     1      45.651   6.214  11.397  0.00  0.00    +0.000 A 
ATOM      9  C   UNL     1      46.963   6.296  11.903  0.00  0.00    +0.000 A 
BRANCH   8  10
ATOM     10  C   UNL     1      45.260   5.112  10.493  0.00  0.00    +0.000 A 
ATOM     11  C   UNL     1      45.689   5.069   9.164  0.00  0.00    +0.000 A 
ATOM     12  C   UNL     1      45.372   3.969   8.373  0.00  0.00    +0.000 A 
ATOM     13  C   UNL     1      44.630   2.933   8.921  0.00  0.00    +0.000 A 
ATOM     14  C   UNL     1      44.236   3.045  10.247  0.00  0.00    +0.000 A 
ATOM     15  N   UNL     1      44.541   4.097  11.039  0.00  0.00    +0.000 NA
ENDBRANCH   8  10
ENDBRANCH   1   4
BRANCH   1  16
ATOM     16  O   UNL     1      49.401   6.676  13.991  0.00  0.00    +0.000 OA
BRANCH  16  20
ATOM     17  C   UNL     1      48.181   6.764  17.977  0.00  0.00    +0.000 A 
ATOM     18  C   UNL     1      48.596   7.961  17.379  0.00  0.00    +0.000 A 
ATOM     19  C   UNL     1      48.990   7.979  16.037  0.00  0.00    +0.000 A 
ATOM     20  C   UNL     1      48.981   6.806  15.287  0.00  0.00    +0.000 A 
ATOM     21  C   UNL     1      48.547   5.615  15.879  0.00  0.00    +0.000 A 
ATOM     22  C   UNL     1      48.159   5.588  17.220  0.00  0.00    +0.000 A 
BRANCH  17  24
ATOM     23  N   UNL     1      47.033   5.642  19.808  0.00  0.00    +0.000 N 
ATOM     24  C   UNL     1      47.812   6.694  19.413  0.00  0.00    +0.000 C 
ATOM     25  O   UNL     1      48.206   7.524  20.219  0.00  0.00    +0.000 OA
ATOM     26  H   UNL     1      46.853   5.560  20.798  0.00  0.00    +0.000 HD
ATOM     27  H   UNL     1      46.894   4.824  19.232  0.00  0.00    +0.000 HD
ENDBRANCH  17  24
ENDBRANCH  16  20
ENDBRANCH   1  16
TORSDOF 5
ENDMDL
MODEL 6
REMARK VINA RESULT:    -6.404      4.184      8.336
REMARK INTER + INTRA:          -9.261
REMARK INTER:                  -8.822
REMARK INTRA:                  -0.439
REMARK UNBOUND:                -0.985
REMARK  Name = 
REMARK  5 active torsions:
REMARK  status: ('A' for Active; 'I' for Inactive)
REMARK    1  A    between atoms: C_2  and  C_4
REMARK    2  A    between atoms: C_7  and  O_8
REMARK    3  A    between atoms: O_8  and  C_9
REMARK    4  A    between atoms: C_9  and  C_10
REMARK    5  A    between atoms: C_14  and  C_15
REMARK                            x       y       z     vdW  Elec       q    Type
REMARK                         _______ _______ _______ _____ _____    ______ ____
ROOT
ATOM      1  C   UNL     1      48.100   4.634  16.970  0.00  0.00    +0.000 C 
ATOM      2  C   UNL     1      47.065   4.805  18.076  0.00  0.00    +0.000 C 
ATOM      3  C   UNL     1      47.238   3.472  17.424  0.00  0.00    +0.000 C 
ENDROOT
BRANCH   1   4
ATOM      4  C   UNL     1      47.853   5.298  15.626  0.00  0.00    +0.000 A 
ATOM      5  C   UNL     1      48.722   6.292  15.154  0.00  0.00    +0.000 A 
ATOM      6  C   UNL     1      48.569   6.845  13.884  0.00  0.00    +0.000 A 
ATOM      7  C   UNL     1      47.558   6.384  13.040  0.00  0.00    +0.000 A 
ATOM      8  C   UNL     1      46.678   5.369  13.450  0.00  0.00    +0.000 A 
ATOM      9  C   UNL     1      46.815   4.886  14.766  0.00  0.00    +0.000 A 
BRANCH   8  10
ATOM     10  C   UNL     1      45.714   4.750  12.517  0.00  0.00    +0.000 A 
ATOM     11  C   UNL     1      45.535   5.237  11.220  0.00  0.00    +0.000 A 
ATOM     12  C   UNL     1      44.682   4.569  10.346  0.00  0.00    +0.000 A 
ATOM     13  C   UNL     1      44.021   3.430  10.782  0.00  0.00    +0.000 A 
ATOM     14  C   UNL     1      44.245   3.006  12.084  0.00  0.00    +0.000 A 
ATOM     15  N   UNL     1      45.077   3.630  12.948  0.00  0.00    +0.000 NA
ENDBRANCH   8  10
ENDBRANCH   1   4
BRANCH   1  16
ATOM     16  O   UNL     1      49.437   4.768  17.510  0.00  0.00    +0.000 OA
BRANCH  16  20
ATOM     17  C   UNL     1      52.220   1.669  17.689  0.00  0.00    +0.000 A 
ATOM     18  C   UNL     1      50.960   1.404  17.136  0.00  0.00    +0.000 A 
ATOM     19  C   UNL     1      50.006   2.422  17.036  0.00  0.00    +0.000 A 
ATOM     20  C   UNL     1      50.299   3.705  17.491  0.00  0.00    +0.000 A 
ATOM     21  C   UNL     1      51.564   3.974  18.023  0.00  0.00    +0.000 A 
ATOM     22  C   UNL     1      52.519   2.961  18.133  0.00  0.00    +0.000 A 
BRANCH  17  24
ATOM     23  N   UNL     1      53.573  -0.131  16.761  0.00  0.00    +0.000 N 
ATOM     24  C   UNL     1      53.236   0.601  17.866  0.00  0.00    +0.000 C 
ATOM     25  O   UNL     1      53.771   0.396  18.945  0.00  0.00    +0.000 OA
ATOM     26  H   UNL     1      54.320  -0.800  16.874  0.00  0.00    +0.000 HD
ATOM     27  H   UNL     1      53.338   0.163  15.824  0.00  0.00    +0.000 HD
ENDBRANCH  17  24
ENDBRANCH  16  20
ENDBRANCH   1  16
TORSDOF 5
ENDMDL
