MODEL 1
REMARK VINA RESULT:    -8.317      0.000      0.000
REMARK INTER + INTRA:         -11.853
REMARK INTER:                 -11.234
REMARK INTRA:                  -0.619
REMARK UNBOUND:                -0.619
REMARK  Name = 
REMARK  6 active torsions:
REMARK  status: ('A' for Active; 'I' for Inactive)
REMARK    1  A    between atoms: C_2  and  C_4
REMARK    2  A    between atoms: C_7  and  N_8
REMARK    3  A    between atoms: N_8  and  C_9
REMARK    4  A    between atoms: C_9  and  C_10
REMARK    5  A    between atoms: C_13  and  O_14
REMARK    6  A    between atoms: O_14  and  C_15
REMARK                            x       y       z     vdW  Elec       q    Type
REMARK                         _______ _______ _______ _____ _____    ______ ____
ROOT
ATOM      1  C   UNL     1      44.129   4.796  11.554  0.00  0.00    +0.000 C 
ATOM      2  C   UNL     1      43.394   3.794  12.428  0.00  0.00    +0.000 C 
ATOM      3  C   UNL     1      42.953   5.218  12.429  0.00  0.00    +0.000 C 
ENDROOT
BRANCH   1   4
ATOM      4  C   UNL     1      45.494   5.311  11.986  0.00  0.00    +0.000 A 
ATOM      5  C   UNL     1      46.054   6.475  11.448  0.00  0.00    +0.000 A 
ATOM      6  C   UNL     1      47.272   6.973  11.917  0.00  0.00    +0.000 A 
ATOM      7  C   UNL     1      47.954   6.260  12.890  0.00  0.00    +0.000 A 
ATOM      8  N   UNL     1      47.459   5.123  13.419  0.00  0.00    +0.000 NA
ATOM      9  C   UNL     1      46.263   4.678  12.957  0.00  0.00    +0.000 A 
BRANCH   7  10
ATOM     10  O   UNL     1      49.083   6.669  13.512  0.00  0.00    +0.000 OA
BRANCH  10  11
ATOM     11  C   UNL     1      48.961   7.321  14.755  0.00  0.00    +0.000 C 
ATOM     12  F   UNL     1      48.854   6.498  15.820  0.00  0.00    +0.000 F 
ATOM     13  F   UNL     1      50.045   8.108  14.941  0.00  0.00    +0.000 F 
ATOM     14  F   UNL     1      47.869   8.117  14.735  0.00  0.00    +0.000 F 
ENDBRANCH  10  11
ENDBRANCH   7  10
ENDBRANCH   1   4
BRANCH   1  15
ATOM     15  N   UNL     1      43.945   4.768  10.084  0.00  0.00    +0.000 N 
ATOM     16  H   UNL     1      42.987   4.646   9.769  0.00  0.00    +0.000 HD
BRANCH  15  20
ATOM     17  C   UNL     1      46.418   2.352   7.830  0.00  0.00    +0.000 A 
ATOM     18  C   UNL     1      46.398   3.721   7.631  0.00  0.00    +0.000 A 
ATOM     19  N   UNL     1      45.597   4.552   8.348  0.00  0.00    +0.000 NA
ATOM     20  C   UNL     1      44.820   3.982   9.297  0.00  0.00    +0.000 A 
ATOM     21  C   UNL     1      44.851   2.591   9.477  0.00  0.00    +0.000 A 
ATOM     22  N   UNL     1      45.640   1.741   8.765  0.00  0.00    +0.000 NA
BRANCH  17  24
ATOM     23  N   UNL     1      48.336   2.152   6.363  0.00  0.00    +0.000 N 
ATOM     24  C   UNL     1      47.312   1.500   6.998  0.00  0.00    +0.000 C 
ATOM     25  O   UNL     1      47.150   0.295   6.889  0.00  0.00    +0.000 OA
ATOM     26  H   UNL     1      48.992   1.625   5.808  0.00  0.00    +0.000 HD
ATOM     27  H   UNL     1      48.462   3.152   6.493  0.00  0.00    +0.000 HD
ENDBRANCH  17  24
ENDBRANCH  15  20
ENDBRANCH   1  15
TORSDOF 6
ENDMDL
MODEL 2
REMARK VINA RESULT:    -8.200      1.021      1.248
REMARK INTER + INTRA:         -11.695
REMARK INTER:                 -11.289
REMARK INTRA:                  -0.406
REMARK UNBOUND:                -0.619
REMARK  Name = 
REMARK  6 active torsions:
REMARK  status: ('A' for Active; 'I' for Inactive)
REMARK    1  A    between atoms: C_2  and  C_4
REMARK    2  A    between atoms: C_7  and  N_8
REMARK    3  A    between atoms: N_8  and  C_9
REMARK    4  A    between atoms: C_9  and  C_10
REMARK    5  A    between atoms: C_13  and  O_14
REMARK    6  A    between atoms: O_14  and  C_15
REMARK                            x       y       z     vdW  Elec       q    Type
REMARK                         _______ _______ _______ _____ _____    ______ ____
ROOT
ATOM      1  C   UNL     1      43.946   4.923  11.338  0.00  0.00    +0.000 C 
ATOM      2  C   UNL     1      43.108   4.010  12.217  0.00  0.00    +0.000 C 
ATOM      3  C   UNL     1      42.757   5.457  12.130  0.00  0.00    +0.000 C 
ENDROOT
BRANCH   1   4
ATOM      4  C   UNL     1      45.317   5.376  11.815  0.00  0.00    +0.000 A 
ATOM      5  C   UNL     1      45.913   6.557  11.356  0.00  0.00    +0.000 A 
ATOM      6  C   UNL     1      47.137   6.993  11.868  0.00  0.00    +0.000 A 
ATOM      7  C   UNL     1      47.788   6.205  12.804  0.00  0.00    +0.000 A 
ATOM      8  N   UNL     1      47.259   5.051  13.256  0.00  0.00    +0.000 NA
ATOM      9  C   UNL     1      46.058   4.665  12.754  0.00  0.00    +0.000 A 
BRANCH   7  10
ATOM     10  O   UNL     1      48.920   6.546  13.462  0.00  0.00    +0.000 OA
BRANCH  10  11
ATOM     11  C   UNL     1      49.738   7.547  12.902  0.00  0.00    +0.000 C 
ATOM     12  F   UNL     1      49.156   8.760  12.787  0.00  0.00    +0.000 F 
ATOM     13  F   UNL     1      50.843   7.684  13.672  0.00  0.00    +0.000 F 
ATOM     14  F   UNL     1      50.136   7.161  11.670  0.00  0.00    +0.000 F 
ENDBRANCH  10  11
ENDBRANCH   7  10
ENDBRANCH   1   4
BRANCH   1  15
ATOM     15  N   UNL     1      43.833   4.835   9.862  0.00  0.00    +0.000 N 
ATOM     16  H   UNL     1      42.890   4.707   9.506  0.00  0.00    +0.000 HD
BRANCH  15  20
ATOM     17  C   UNL     1      46.384   2.307   7.829  0.00  0.00    +0.000 A 
ATOM     18  C   UNL     1      46.417   3.672   7.604  0.00  0.00    +0.000 A 
ATOM     19  N   UNL     1      45.593   4.538   8.249  0.00  0.00    +0.000 NA
ATOM     20  C   UNL     1      44.737   4.009   9.153  0.00  0.00    +0.000 A 
ATOM     21  C   UNL     1      44.715   2.622   9.359  0.00  0.00    +0.000 A 
ATOM     22  N   UNL     1      45.526   1.736   8.719  0.00  0.00    +0.000 NA
BRANCH  17  24
ATOM     23  N   UNL     1      48.371   2.031   6.472  0.00  0.00    +0.000 N 
ATOM     24  C   UNL     1      47.308   1.414   7.077  0.00  0.00    +0.000 C 
ATOM     25  O   UNL     1      47.136   0.209   7.004  0.00  0.00    +0.000 OA
ATOM     26  H   UNL     1      49.048   1.476   5.971  0.00  0.00    +0.000 HD
ATOM     27  H   UNL     1      48.504   3.033   6.570  0.00  0.00    +0.000 HD
ENDBRANCH  17  24
ENDBRANCH  15  20
ENDBRANCH   1  15
TORSDOF 6
ENDMDL
MODEL 3
REMARK VINA RESULT:    -7.969      1.906      2.257
REMARK INTER + INTRA:         -11.383
REMARK INTER:                 -10.975
REMARK INTRA:                  -0.408
REMARK UNBOUND:                -0.619
REMARK  Name = 
REMARK  6 active torsions:
REMARK  status: ('A' for Active; 'I' for Inactive)
REMARK    1  A    between atoms: C_2  and  C_4
REMARK    2  A    between atoms: C_7  and  N_8
REMARK    3  A    between atoms: N_8  and  C_9
REMARK    4  A    between atoms: C_9  and  C_10
REMARK    5  A    between atoms: C_13  and  O_14
REMARK    6  A    between atoms: O_14  and  C_15
REMARK                            x       y       z     vdW  Elec       q    Type
REMARK                         _______ _______ _______ _____ _____    ______ ____
ROOT
ATOM      1  C   UNL     1      43.992   4.708  11.401  0.00  0.00    +0.000 C 
ATOM      2  C   UNL     1      42.889   3.684  11.610  0.00  0.00    +0.000 C 
ATOM      3  C   UNL     1      42.634   5.107  11.972  0.00  0.00    +0.000 C 
ENDROOT
BRANCH   1   4
ATOM      4  C   UNL     1      45.161   4.763  12.373  0.00  0.00    +0.000 A 
ATOM      5  C   UNL     1      45.699   5.974  12.822  0.00  0.00    +0.000 A 
ATOM      6  C   UNL     1      46.720   6.001  13.776  0.00  0.00    +0.000 A 
ATOM      7  C   UNL     1      47.237   4.799  14.232  0.00  0.00    +0.000 A 
ATOM      8  N   UNL     1      46.762   3.611  13.809  0.00  0.00    +0.000 NA
ATOM      9  C   UNL     1      45.756   3.620  12.898  0.00  0.00    +0.000 A 
BRANCH   7  10
ATOM     10  O   UNL     1      48.148   4.667  15.224  0.00  0.00    +0.000 OA
BRANCH  10  11
ATOM     11  C   UNL     1      47.736   4.063  16.429  0.00  0.00    +0.000 C 
ATOM     12  F   UNL     1      47.891   2.723  16.476  0.00  0.00    +0.000 F 
ATOM     13  F   UNL     1      48.444   4.603  17.448  0.00  0.00    +0.000 F 
ATOM     14  F   UNL     1      46.430   4.337  16.641  0.00  0.00    +0.000 F 
ENDBRANCH  10  11
ENDBRANCH   7  10
ENDBRANCH   1   4
BRANCH   1  15
ATOM     15  N   UNL     1      44.342   5.146  10.029  0.00  0.00    +0.000 N 
ATOM     16  H   UNL     1      43.580   5.557   9.498  0.00  0.00    +0.000 HD
BRANCH  15  20
ATOM     17  C   UNL     1      46.650   2.741   7.594  0.00  0.00    +0.000 A 
ATOM     18  C   UNL     1      45.770   2.185   8.507  0.00  0.00    +0.000 A 
ATOM     19  N   UNL     1      44.995   2.939   9.329  0.00  0.00    +0.000 NA
ATOM     20  C   UNL     1      45.101   4.282   9.205  0.00  0.00    +0.000 A 
ATOM     21  C   UNL     1      46.004   4.825   8.280  0.00  0.00    +0.000 A 
ATOM     22  N   UNL     1      46.795   4.088   7.453  0.00  0.00    +0.000 NA
BRANCH  17  24
ATOM     23  N   UNL     1      48.568   2.440   6.147  0.00  0.00    +0.000 N 
ATOM     24  C   UNL     1      47.478   1.854   6.734  0.00  0.00    +0.000 C 
ATOM     25  O   UNL     1      47.210   0.676   6.562  0.00  0.00    +0.000 OA
ATOM     26  H   UNL     1      49.184   1.884   5.575  0.00  0.00    +0.000 HD
ATOM     27  H   UNL     1      48.781   3.417   6.328  0.00  0.00    +0.000 HD
ENDBRANCH  17  24
ENDBRANCH  15  20
ENDBRANCH   1  15
TORSDOF 6
ENDMDL
MODEL 4
REMARK VINA RESULT:    -7.671      4.040      7.159
REMARK INTER + INTRA:         -10.980
REMARK INTER:                 -10.629
REMARK INTRA:                  -0.351
REMARK UNBOUND:                -0.619
REMARK  Name = 
REMARK  6 active torsions:
REMARK  status: ('A' for Active; 'I' for Inactive)
REMARK    1  A    between atoms: C_2  and  C_4
REMARK    2  A    between atoms: C_7  and  N_8
REMARK    3  A    between atoms: N_8  and  C_9
REMARK    4  A    between atoms: C_9  and  C_10
REMARK    5  A    between atoms: C_13  and  O_14
REMARK    6  A    between atoms: O_14  and  C_15
REMARK                            x       y       z     vdW  Elec       q    Type
REMARK                         _______ _______ _______ _____ _____    ______ ____
ROOT
ATOM      1  C   UNL     1      44.286   4.702  11.604  0.00  0.00    +0.000 C 
ATOM      2  C   UNL     1      43.583   6.047  11.687  0.00  0.00    +0.000 C 
ATOM      3  C   UNL     1      42.767   4.799  11.706  0.00  0.00    +0.000 C 
ENDROOT
BRANCH   1   4
ATOM      4  C   UNL     1      44.831   4.220  10.268  0.00  0.00    +0.000 A 
ATOM      5  C   UNL     1      44.692   2.894   9.843  0.00  0.00    +0.000 A 
ATOM      6  C   UNL     1      45.129   2.492   8.578  0.00  0.00    +0.000 A 
ATOM      7  C   UNL     1      45.761   3.419   7.765  0.00  0.00    +0.000 A 
ATOM      8  N   UNL     1      45.933   4.701   8.145  0.00  0.00    +0.000 NA
ATOM      9  C   UNL     1      45.479   5.064   9.371  0.00  0.00    +0.000 A 
BRANCH   7  10
ATOM     10  O   UNL     1      46.141   3.206   6.484  0.00  0.00    +0.000 OA
BRANCH  10  11
ATOM     11  C   UNL     1      47.227   2.340   6.248  0.00  0.00    +0.000 C 
ATOM     12  F   UNL     1      46.943   1.026   6.368  0.00  0.00    +0.000 F 
ATOM     13  F   UNL     1      47.689   2.556   4.995  0.00  0.00    +0.000 F 
ATOM     14  F   UNL     1      48.224   2.629   7.113  0.00  0.00    +0.000 F 
ENDBRANCH  10  11
ENDBRANCH   7  10
ENDBRANCH   1   4
BRANCH   1  15
ATOM     15  N   UNL     1      45.045   4.193  12.771  0.00  0.00    +0.000 N 
ATOM     16  H   UNL     1      44.478   3.842  13.537  0.00  0.00    +0.000 HD
BRANCH  15  20
ATOM     17  C   UNL     1      48.240   6.297  14.320  0.00  0.00    +0.000 A 
ATOM     18  C   UNL     1      47.608   6.724  13.165  0.00  0.00    +0.000 A 
ATOM     19  N   UNL     1      46.556   6.059  12.620  0.00  0.00    +0.000 NA
ATOM     20  C   UNL     1      46.126   4.955  13.273  0.00  0.00    +0.000 A 
ATOM     21  C   UNL     1      46.787   4.536  14.437  0.00  0.00    +0.000 A 
ATOM     22  N   UNL     1      47.846   5.182  14.995  0.00  0.00    +0.000 NA
BRANCH  17  24
ATOM     23  N   UNL     1      49.435   8.394  14.517  0.00  0.00    +0.000 N 
ATOM     24  C   UNL     1      49.396   7.067  14.854  0.00  0.00    +0.000 C 
ATOM     25  O   UNL     1      50.255   6.555  15.553  0.00  0.00    +0.000 OA
ATOM     26  H   UNL     1      50.178   8.976  14.872  0.00  0.00    +0.000 HD
ATOM     27  H   UNL     1      48.692   8.800  13.955  0.00  0.00    +0.000 HD
ENDBRANCH  17  24
ENDBRANCH  15  20
ENDBRANCH   1  15
TORSDOF 6
ENDMDL
MODEL 5
REMARK VINA RESULT:    -6.952      4.354      7.129
REMARK INTER + INTRA:         -10.010
REMARK INTER:                 -10.469
REMARK INTRA:                   0.460
REMARK UNBOUND:                -0.619
REMARK  Name = 
REMARK  6 active torsions:
REMARK  status: ('A' for Active; 'I' for Inactive)
REMARK    1  A    between atoms: C_2  and  C_4
REMARK    2  A    between atoms: C_7  and  N_8
REMARK    3  A    between atoms: N_8  and  C_9
REMARK    4  A    between atoms: C_9  and  C_10
REMARK    5  A    between atoms: C_13  and  O_14
REMARK    6  A    between atoms: O_14  and  C_15
REMARK                            x       y       z     vdW  Elec       q    Type
REMARK                         _______ _______ _______ _____ _____    ______ ____
ROOT
ATOM      1  C   UNL     1      44.733   5.204  11.661  0.00  0.00    +0.000 C 
ATOM      2  C   UNL     1      43.354   5.818  11.834  0.00  0.00    +0.000 C 
ATOM      3  C   UNL     1      43.647   4.501  12.468  0.00  0.00    +0.000 C 
ENDROOT
BRANCH   1   4
ATOM      4  C   UNL     1      45.105   4.550  10.339  0.00  0.00    +0.000 A 
ATOM      5  C   UNL     1      44.756   3.228  10.039  0.00  0.00    +0.000 A 
ATOM      6  C   UNL     1      45.039   2.674   8.788  0.00  0.00    +0.000 A 
ATOM      7  C   UNL     1      45.726   3.438   7.860  0.00  0.00    +0.000 A 
ATOM      8  N   UNL     1      46.099   4.708   8.117  0.00  0.00    +0.000 NA
ATOM      9  C   UNL     1      45.792   5.224   9.334  0.00  0.00    +0.000 A 
BRANCH   7  10
ATOM     10  O   UNL     1      45.976   3.077   6.580  0.00  0.00    +0.000 OA
BRANCH  10  11
ATOM     11  C   UNL     1      47.167   2.374   6.308  0.00  0.00    +0.000 C 
ATOM     12  F   UNL     1      48.200   2.668   7.125  0.00  0.00    +0.000 F 
ATOM     13  F   UNL     1      46.920   1.047   6.405  0.00  0.00    +0.000 F 
ATOM     14  F   UNL     1      47.556   2.631   5.040  0.00  0.00    +0.000 F 
ENDBRANCH  10  11
ENDBRANCH   7  10
ENDBRANCH   1   4
BRANCH   1  15
ATOM     15  N   UNL     1      45.893   5.780  12.383  0.00  0.00    +0.000 N 
ATOM     16  H   UNL     1      46.622   6.170  11.792  0.00  0.00    +0.000 HD
BRANCH  15  20
ATOM     17  C   UNL     1      47.606   3.538  15.396  0.00  0.00    +0.000 A 
ATOM     18  C   UNL     1      47.388   4.894  15.563  0.00  0.00    +0.000 A 
ATOM     19  N   UNL     1      46.831   5.670  14.596  0.00  0.00    +0.000 NA
ATOM     20  C   UNL     1      46.469   5.050  13.449  0.00  0.00    +0.000 A 
ATOM     21  C   UNL     1      46.706   3.675  13.299  0.00  0.00    +0.000 A 
ATOM     22  N   UNL     1      47.269   2.883  14.250  0.00  0.00    +0.000 NA
BRANCH  17  24
ATOM     23  N   UNL     1      49.124   1.788  16.102  0.00  0.00    +0.000 N 
ATOM     24  C   UNL     1      48.233   2.752  16.493  0.00  0.00    +0.000 C 
ATOM     25  O   UNL     1      47.977   2.953  17.669  0.00  0.00    +0.000 OA
ATOM     26  H   UNL     1      49.604   1.242  16.801  0.00  0.00    +0.000 HD
ATOM     27  H   UNL     1      49.337   1.660  15.117  0.00  0.00    +0.000 HD
ENDBRANCH  17  24
ENDBRANCH  15  20
ENDBRANCH   1  15
TORSDOF 6
ENDMDL
MODEL 6
REMARK VINA RESULT:    -6.555      4.697      7.643
REMARK INTER + INTRA:          -9.473
REMARK INTER:                  -9.184
REMARK INTRA:                  -0.289
REMARK UNBOUND:                -0.619
REMARK  Name = 
REMARK  6 active torsions:
REMARK  status: ('A' for Active; 'I' for Inactive)
REMARK    1  A    between atoms: C_2  and  C_4
REMARK    2  A    between atoms: C_7  and  N_8
REMARK    3  A    between atoms: N_8  and  C_9
REMARK    4  A    between atoms: C_9  and  C_10
REMARK    5  A    between atoms: C_13  and  O_14
REMARK    6  A    between atoms: O_14  and  C_15
REMARK                            x       y       z     vdW  Elec       q    Type
REMARK                         _______ _______ _______ _____ _____    ______ ____
ROOT
ATOM      1  C   UNL     1      47.044   5.712  13.796  0.00  0.00    +0.000 C 
ATOM      2  C   UNL     1      48.421   6.227  13.413  0.00  0.00    +0.000 C 
ATOM      3  C   UNL     1      47.320   7.205  13.644  0.00  0.00    +0.000 C 
ENDROOT
BRANCH   1   4
ATOM      4  C   UNL     1      46.150   5.092  12.733  0.00  0.00    +0.000 A 
ATOM      5  C   UNL     1      45.915   5.716  11.502  0.00  0.00    +0.000 A 
ATOM      6  C   UNL     1      45.155   5.091  10.510  0.00  0.00    +0.000 A 
ATOM      7  C   UNL     1      44.584   3.859  10.785  0.00  0.00    +0.000 A 
ATOM      8  N   UNL     1      44.768   3.234  11.965  0.00  0.00    +0.000 NA
ATOM      9  C   UNL     1      45.528   3.859  12.900  0.00  0.00    +0.000 A 
BRANCH   7  10
ATOM     10  O   UNL     1      43.915   3.091   9.894  0.00  0.00    +0.000 OA
BRANCH  10  11
ATOM     11  C   UNL     1      44.663   2.386   8.930  0.00  0.00    +0.000 C 
ATOM     12  F   UNL     1      45.984   2.292   9.193  0.00  0.00    +0.000 F 
ATOM     13  F   UNL     1      44.166   1.132   8.828  0.00  0.00    +0.000 F 
ATOM     14  F   UNL     1      44.522   2.988   7.729  0.00  0.00    +0.000 F 
ENDBRANCH  10  11
ENDBRANCH   7  10
ENDBRANCH   1   4
BRANCH   1  15
ATOM     15  N   UNL     1      46.811   5.168  15.155  0.00  0.00    +0.000 N 
ATOM     16  H   UNL     1      46.382   5.812  15.813  0.00  0.00    +0.000 HD
BRANCH  15  20
ATOM     17  C   UNL     1      49.809   2.935  16.906  0.00  0.00    +0.000 A 
ATOM     18  C   UNL     1      49.704   4.293  17.155  0.00  0.00    +0.000 A 
ATOM     19  N   UNL     1      48.735   5.065  16.597  0.00  0.00    +0.000 NA
ATOM     20  C   UNL     1      47.846   4.441  15.790  0.00  0.00    +0.000 A 
ATOM     21  C   UNL     1      47.976   3.066  15.546  0.00  0.00    +0.000 A 
ATOM     22  N   UNL     1      48.943   2.276  16.088  0.00  0.00    +0.000 NA
BRANCH  17  24
ATOM     23  N   UNL     1      51.736   2.858  18.371  0.00  0.00    +0.000 N 
ATOM     24  C   UNL     1      50.904   2.153  17.542  0.00  0.00    +0.000 C 
ATOM     25  O   UNL     1      51.053   0.958  17.344  0.00  0.00    +0.000 OA
ATOM     26  H   UNL     1      52.480   2.377  18.853  0.00  0.00    +0.000 HD
ATOM     27  H   UNL     1      51.573   3.847  18.537  0.00  0.00    +0.000 HD
ENDBRANCH  17  24
ENDBRANCH  15  20
ENDBRANCH   1  15
TORSDOF 6
ENDMDL
MODEL 7
REMARK VINA RESULT:    -5.955      4.695      8.058
REMARK INTER + INTRA:          -8.662
REMARK INTER:                  -8.246
REMARK INTRA:                  -0.416
REMARK UNBOUND:                -0.619
REMARK  Name = 
REMARK  6 active torsions:
REMARK  status: ('A' for Active; 'I' for Inactive)
REMARK    1  A    between atoms: C_2  and  C_4
REMARK    2  A    between atoms: C_7  and  N_8
REMARK    3  A    between atoms: N_8  and  C_9
REMARK    4  A    between atoms: C_9  and  C_10
REMARK    5  A    between atoms: C_13  and  O_14
REMARK    6  A    between atoms: O_14  and  C_15
REMARK                            x       y       z     vdW  Elec       q    Type
REMARK                         _______ _______ _______ _____ _____    ______ ____
ROOT
ATOM      1  C   UNL     1      48.052   7.144  13.448  0.00  0.00    +0.000 C 
ATOM      2  C   UNL     1      49.200   6.996  12.463  0.00  0.00    +0.000 C 
ATOM      3  C   UNL     1      48.215   8.099  12.269  0.00  0.00    +0.000 C 
ENDROOT
BRANCH   1   4
ATOM      4  C   UNL     1      46.868   6.192  13.371  0.00  0.00    +0.000 A 
ATOM      5  C   UNL     1      45.580   6.631  13.044  0.00  0.00    +0.000 A 
ATOM      6  C   UNL     1      44.524   5.728  12.901  0.00  0.00    +0.000 A 
ATOM      7  C   UNL     1      44.758   4.384  13.147  0.00  0.00    +0.000 A 
ATOM      8  N   UNL     1      45.979   3.923  13.485  0.00  0.00    +0.000 NA
ATOM      9  C   UNL     1      46.988   4.824  13.595  0.00  0.00    +0.000 A 
BRANCH   7  10
ATOM     10  O   UNL     1      43.867   3.386  12.948  0.00  0.00    +0.000 OA
BRANCH  10  11
ATOM     11  C   UNL     1      43.515   3.062  11.623  0.00  0.00    +0.000 C 
ATOM     12  F   UNL     1      44.545   3.044  10.750  0.00  0.00    +0.000 F 
ATOM     13  F   UNL     1      42.937   1.838  11.614  0.00  0.00    +0.000 F 
ATOM     14  F   UNL     1      42.606   3.953  11.171  0.00  0.00    +0.000 F 
ENDBRANCH  10  11
ENDBRANCH   7  10
ENDBRANCH   1   4
BRANCH   1  15
ATOM     15  N   UNL     1      48.314   7.653  14.816  0.00  0.00    +0.000 N 
ATOM     16  H   UNL     1      48.502   8.649  14.879  0.00  0.00    +0.000 HD
BRANCH  15  20
ATOM     17  C   UNL     1      50.780   5.456  17.291  0.00  0.00    +0.000 A 
ATOM     18  C   UNL     1      51.303   6.432  16.461  0.00  0.00    +0.000 A 
ATOM     19  N   UNL     1      50.527   7.175  15.629  0.00  0.00    +0.000 NA
ATOM     20  C   UNL     1      49.196   6.936  15.658  0.00  0.00    +0.000 A 
ATOM     21  C   UNL     1      48.689   5.936  16.501  0.00  0.00    +0.000 A 
ATOM     22  N   UNL     1      49.448   5.176  17.336  0.00  0.00    +0.000 NA
BRANCH  17  24
ATOM     23  N   UNL     1      51.265   3.410  18.492  0.00  0.00    +0.000 N 
ATOM     24  C   UNL     1      51.690   4.671  18.168  0.00  0.00    +0.000 C 
ATOM     25  O   UNL     1      52.752   5.115  18.572  0.00  0.00    +0.000 OA
ATOM     26  H   UNL     1      51.851   2.818  19.060  0.00  0.00    +0.000 HD
ATOM     27  H   UNL     1      50.388   3.056  18.121  0.00  0.00    +0.000 HD
ENDBRANCH  17  24
ENDBRANCH  15  20
ENDBRANCH   1  15
TORSDOF 6
ENDMDL
MODEL 8
REMARK VINA RESULT:    -5.537      4.752      7.895
REMARK INTER + INTRA:          -8.097
REMARK INTER:                  -7.434
REMARK INTRA:                  -0.663
REMARK UNBOUND:                -0.619
REMARK  Name = 
REMARK  6 active torsions:
REMARK  status: ('A' for Active; 'I' for Inactive)
REMARK    1  A    between atoms: C_2  and  C_4
REMARK    2  A    between atoms: C_7  and  N_8
REMARK    3  A    between atoms: N_8  and  C_9
REMARK    4  A    between atoms: C_9  and  C_10
REMARK    5  A    between atoms: C_13  and  O_14
REMARK    6  A    between atoms: O_14  and  C_15
REMARK                            x       y       z     vdW  Elec       q    Type
REMARK                         _______ _______ _______ _____ _____    ______ ____
ROOT
ATOM      1  C   UNL     1      48.375   7.932  13.715  0.00  0.00    +0.000 C 
ATOM      2  C   UNL     1      49.759   7.736  13.120  0.00  0.00    +0.000 C 
ATOM      3  C   UNL     1      49.151   9.097  13.107  0.00  0.00    +0.000 C 
ENDROOT
BRANCH   1   4
ATOM      4  C   UNL     1      47.150   7.476  12.937  0.00  0.00    +0.000 A 
ATOM      5  C   UNL     1      47.110   6.247  12.266  0.00  0.00    +0.000 A 
ATOM      6  C   UNL     1      45.946   5.814  11.625  0.00  0.00    +0.000 A 
ATOM      7  C   UNL     1      44.841   6.649  11.613  0.00  0.00    +0.000 A 
ATOM      8  N   UNL     1      44.846   7.848  12.228  0.00  0.00    +0.000 NA
ATOM      9  C   UNL     1      45.984   8.231  12.859  0.00  0.00    +0.000 A 
BRANCH   7  10
ATOM     10  O   UNL     1      43.621   6.323  11.126  0.00  0.00    +0.000 OA
BRANCH  10  11
ATOM     11  C   UNL     1      42.838   5.405  11.854  0.00  0.00    +0.000 C 
ATOM     12  F   UNL     1      41.505   5.590  11.753  0.00  0.00    +0.000 F 
ATOM     13  F   UNL     1      43.122   4.155  11.422  0.00  0.00    +0.000 F 
ATOM     14  F   UNL     1      43.167   5.477  13.162  0.00  0.00    +0.000 F 
ENDBRANCH  10  11
ENDBRANCH   7  10
ENDBRANCH   1   4
BRANCH   1  15
ATOM     15  N   UNL     1      48.191   7.892  15.185  0.00  0.00    +0.000 N 
ATOM     16  H   UNL     1      48.268   8.788  15.656  0.00  0.00    +0.000 HD
BRANCH  15  20
ATOM     17  C   UNL     1      50.039   4.860  17.290  0.00  0.00    +0.000 A 
ATOM     18  C   UNL     1      50.587   6.131  17.255  0.00  0.00    +0.000 A 
ATOM     19  N   UNL     1      50.013   7.156  16.572  0.00  0.00    +0.000 NA
ATOM     20  C   UNL     1      48.852   6.889  15.932  0.00  0.00    +0.000 A 
ATOM     21  C   UNL     1      48.318   5.592  15.974  0.00  0.00    +0.000 A 
ATOM     22  N   UNL     1      48.879   4.550  16.645  0.00  0.00    +0.000 NA
BRANCH  17  24
ATOM     23  N   UNL     1      50.237   2.516  17.863  0.00  0.00    +0.000 N 
ATOM     24  C   UNL     1      50.728   3.781  18.048  0.00  0.00    +0.000 C 
ATOM     25  O   UNL     1      51.675   4.003  18.785  0.00  0.00    +0.000 OA
ATOM     26  H   UNL     1      50.681   1.738  18.327  0.00  0.00    +0.000 HD
ATOM     27  H   UNL     1      49.464   2.357  17.223  0.00  0.00    +0.000 HD
ENDBRANCH  17  24
ENDBRANCH  15  20
ENDBRANCH   1  15
TORSDOF 6
ENDMDL
MODEL 9
REMARK VINA RESULT:    -5.527      4.333      7.709
REMARK INTER + INTRA:          -8.085
REMARK INTER:                  -7.476
REMARK INTRA:                  -0.609
REMARK UNBOUND:                -0.619
REMARK  Name = 
REMARK  6 active torsions:
REMARK  status: ('A' for Active; 'I' for Inactive)
REMARK    1  A    between atoms: C_2  and  C_4
REMARK    2  A    between atoms: C_7  and  N_8
REMARK    3  A    between atoms: N_8  and  C_9
REMARK    4  A    between atoms: C_9  and  C_10
REMARK    5  A    between atoms: C_13  and  O_14
REMARK    6  A    between atoms: O_14  and  C_15
REMARK                            x       y       z     vdW  Elec       q    Type
REMARK                         _______ _______ _______ _____ _____    ______ ____
ROOT
ATOM      1  C   UNL     1      47.440   8.102  12.734  0.00  0.00    +0.000 C 
ATOM      2  C   UNL     1      48.770   8.236  12.012  0.00  0.00    +0.000 C 
ATOM      3  C   UNL     1      47.755   9.319  11.870  0.00  0.00    +0.000 C 
ENDROOT
BRANCH   1   4
ATOM      4  C   UNL     1      46.379   7.158  12.188  0.00  0.00    +0.000 A 
ATOM      5  C   UNL     1      46.531   6.496  10.964  0.00  0.00    +0.000 A 
ATOM      6  C   UNL     1      45.580   5.573  10.521  0.00  0.00    +0.000 A 
ATOM      7  C   UNL     1      44.446   5.363  11.288  0.00  0.00    +0.000 A 
ATOM      8  N   UNL     1      44.252   5.996  12.463  0.00  0.00    +0.000 NA
ATOM      9  C   UNL     1      45.204   6.871  12.875  0.00  0.00    +0.000 A 
BRANCH   7  10
ATOM     10  O   UNL     1      43.497   4.431  11.042  0.00  0.00    +0.000 OA
BRANCH  10  11
ATOM     11  C   UNL     1      43.869   3.073  11.096  0.00  0.00    +0.000 C 
ATOM     12  F   UNL     1      44.117   2.503   9.898  0.00  0.00    +0.000 F 
ATOM     13  F   UNL     1      44.984   2.958  11.854  0.00  0.00    +0.000 F 
ATOM     14  F   UNL     1      42.886   2.365  11.695  0.00  0.00    +0.000 F 
ENDBRANCH  10  11
ENDBRANCH   7  10
ENDBRANCH   1   4
BRANCH   1  15
ATOM     15  N   UNL     1      47.379   8.272  14.206  0.00  0.00    +0.000 N 
ATOM     16  H   UNL     1      47.254   9.228  14.526  0.00  0.00    +0.000 HD
BRANCH  15  20
ATOM     17  C   UNL     1      50.110   6.199  16.503  0.00  0.00    +0.000 A 
ATOM     18  C   UNL     1      50.234   7.566  16.321  0.00  0.00    +0.000 A 
ATOM     19  N   UNL     1      49.360   8.285  15.571  0.00  0.00    +0.000 NA
ATOM     20  C   UNL     1      48.331   7.607  15.014  0.00  0.00    +0.000 A 
ATOM     21  C   UNL     1      48.228   6.221  15.205  0.00  0.00    +0.000 A 
ATOM     22  N   UNL     1      49.097   5.480  15.946  0.00  0.00    +0.000 NA
BRANCH  17  24
ATOM     23  N   UNL     1      52.140   6.231  17.824  0.00  0.00    +0.000 N 
ATOM     24  C   UNL     1      51.113   5.472  17.328  0.00  0.00    +0.000 C 
ATOM     25  O   UNL     1      51.028   4.276  17.556  0.00  0.00    +0.000 OA
ATOM     26  H   UNL     1      52.836   5.801  18.414  0.00  0.00    +0.000 HD
ATOM     27  H   UNL     1      52.172   7.230  17.640  0.00  0.00    +0.000 HD
ENDBRANCH  17  24
ENDBRANCH  15  20
ENDBRANCH   1  15
TORSDOF 6
ENDMDL
