MODEL 1
REMARK VINA RESULT:    -8.233      0.000      0.000
REMARK INTER + INTRA:         -12.015
REMARK INTER:                 -11.362
REMARK INTRA:                  -0.652
REMARK UNBOUND:                -0.652
REMARK  Name = 
REMARK  7 active torsions:
REMARK  status: ('A' for Active; 'I' for Inactive)
REMARK    1  A    between atoms: C_2  and  C_21
REMARK    2  A    between atoms: N_3  and  C_4
REMARK    3  A    between atoms: C_4  and  C_5
REMARK    4  A    between atoms: C_8  and  C_9
REMARK    5  A    between atoms: C_9  and  C_10
REMARK    6  A    between atoms: C_10  and  O_11
REMARK    7  A    between atoms: C_10  and  C_12
REMARK                            x       y       z     vdW  Elec       q    Type
REMARK                         _______ _______ _______ _____ _____    ______ ____
ROOT
ATOM      1  C   UNL     1      47.266   6.182  12.982  0.00  0.00    +0.000 A 
ATOM      2  C   UNL     1      46.642   6.651  11.822  0.00  0.00    +0.000 A 
ATOM      3  C   UNL     1      45.661   5.889  11.181  0.00  0.00    +0.000 A 
ATOM      4  C   UNL     1      45.284   4.638  11.688  0.00  0.00    +0.000 A 
ATOM      5  C   UNL     1      45.880   4.187  12.873  0.00  0.00    +0.000 A 
ATOM      6  C   UNL     1      46.858   4.953  13.517  0.00  0.00    +0.000 A 
ENDROOT
BRANCH   1   7
ATOM      7  C   UNL     1      48.332   7.008  13.653  0.00  0.00    +0.000 C 
BRANCH   7  10
ATOM      8  O   UNL     1      50.433   6.692  15.517  0.00  0.00    +0.000 OA
ATOM      9  C   UNL     1      49.288   6.863  15.924  0.00  0.00    +0.000 C 
ATOM     10  N   UNL     1      48.208   6.958  15.086  0.00  0.00    +0.000 N 
ATOM     11  H   UNL     1      47.326   7.291  15.458  0.00  0.00    +0.000 HD
BRANCH   9  12
ATOM     12  C   UNL     1      48.986   6.922  17.361  0.00  0.00    +0.000 A 
ATOM     13  C   UNL     1      48.627   8.127  17.948  0.00  0.00    +0.000 A 
ATOM     14  S   UNL     1      48.337   8.010  19.625  0.00  0.00    +0.000 S 
ATOM     15  C   UNL     1      48.639   6.335  19.617  0.00  0.00    +0.000 A 
ATOM     16  N   UNL     1      48.536   5.597  20.755  0.00  0.00    +0.000 NA
ATOM     17  C   UNL     1      48.745   4.333  20.593  0.00  0.00    +0.000 A 
ATOM     18  N   UNL     1      49.060   3.741  19.397  0.00  0.00    +0.000 N 
ATOM     19  C   UNL     1      49.257   4.457  18.243  0.00  0.00    +0.000 A 
ATOM     20  O   UNL     1      49.683   3.913  17.229  0.00  0.00    +0.000 OA
ATOM     21  C   UNL     1      48.981   5.877  18.358  0.00  0.00    +0.000 A 
ATOM     22  H   UNL     1      49.247   2.751  19.342  0.00  0.00    +0.000 HD
ENDBRANCH   9  12
ENDBRANCH   7  10
ENDBRANCH   1   7
BRANCH   4  23
ATOM     23  C   UNL     1      44.229   3.801  10.990  0.00  0.00    +0.000 C 
BRANCH  23  24
ATOM     24  C   UNL     1      44.805   2.779   9.993  0.00  0.00    +0.000 C 
BRANCH  24  25
ATOM     25  C   UNL     1      45.038   3.422   8.601  0.00  0.00    +0.000 C 
ATOM     26  O   UNL     1      44.523   4.497   8.290  0.00  0.00    +0.000 OA
ATOM     27  N   UNL     1      45.879   2.741   7.744  0.00  0.00    +0.000 N 
ATOM     28  C   UNL     1      46.479   1.432   7.944  0.00  0.00    +0.000 C 
ATOM     29  C   UNL     1      47.761   1.516   7.138  0.00  0.00    +0.000 C 
ATOM     30  C   UNL     1      47.365   2.365   5.934  0.00  0.00    +0.000 C 
ATOM     31  C   UNL     1      46.275   3.296   6.460  0.00  0.00    +0.000 C 
ENDBRANCH  24  25
BRANCH  24  32
ATOM     32  O   UNL     1      43.949   1.638   9.888  0.00  0.00    +0.000 OA
ATOM     33  H   UNL     1      44.203   1.165   9.078  0.00  0.00    +0.000 HD
ENDBRANCH  24  32
ENDBRANCH  23  24
ENDBRANCH   4  23
TORSDOF 7
ENDMDL
MODEL 2
REMARK VINA RESULT:    -8.042      1.411      1.992
REMARK INTER + INTRA:         -11.750
REMARK INTER:                 -11.770
REMARK INTRA:                   0.020
REMARK UNBOUND:                -0.652
REMARK  Name = 
REMARK  7 active torsions:
REMARK  status: ('A' for Active; 'I' for Inactive)
REMARK    1  A    between atoms: C_2  and  C_21
REMARK    2  A    between atoms: N_3  and  C_4
REMARK    3  A    between atoms: C_4  and  C_5
REMARK    4  A    between atoms: C_8  and  C_9
REMARK    5  A    between atoms: C_9  and  C_10
REMARK    6  A    between atoms: C_10  and  O_11
REMARK    7  A    between atoms: C_10  and  C_12
REMARK                            x       y       z     vdW  Elec       q    Type
REMARK                         _______ _______ _______ _____ _____    ______ ____
ROOT
ATOM      1  C   UNL     1      46.373   7.344  12.823  0.00  0.00    +0.000 A 
ATOM      2  C   UNL     1      45.263   7.872  12.155  0.00  0.00    +0.000 A 
ATOM      3  C   UNL     1      44.437   7.050  11.383  0.00  0.00    +0.000 A 
ATOM      4  C   UNL     1      44.706   5.680  11.261  0.00  0.00    +0.000 A 
ATOM      5  C   UNL     1      45.793   5.144  11.962  0.00  0.00    +0.000 A 
ATOM      6  C   UNL     1      46.616   5.967  12.740  0.00  0.00    +0.000 A 
ENDROOT
BRANCH   1   7
ATOM      7  C   UNL     1      47.262   8.245  13.640  0.00  0.00    +0.000 C 
BRANCH   7  10
ATOM      8  O   UNL     1      49.795   7.054  14.032  0.00  0.00    +0.000 OA
ATOM      9  C   UNL     1      48.993   7.083  14.961  0.00  0.00    +0.000 C 
ATOM     10  N   UNL     1      47.724   7.583  14.831  0.00  0.00    +0.000 N 
ATOM     11  H   UNL     1      47.179   7.761  15.667  0.00  0.00    +0.000 HD
BRANCH   9  12
ATOM     12  C   UNL     1      49.327   6.526  16.279  0.00  0.00    +0.000 A 
ATOM     13  C   UNL     1      50.186   7.211  17.127  0.00  0.00    +0.000 A 
ATOM     14  S   UNL     1      50.477   6.403  18.601  0.00  0.00    +0.000 S 
ATOM     15  C   UNL     1      49.429   5.132  18.175  0.00  0.00    +0.000 A 
ATOM     16  N   UNL     1      49.200   4.095  19.027  0.00  0.00    +0.000 NA
ATOM     17  C   UNL     1      48.347   3.227  18.595  0.00  0.00    +0.000 A 
ATOM     18  N   UNL     1      47.709   3.295  17.382  0.00  0.00    +0.000 N 
ATOM     19  C   UNL     1      47.974   4.276  16.459  0.00  0.00    +0.000 A 
ATOM     20  O   UNL     1      47.498   4.222  15.329  0.00  0.00    +0.000 OA
ATOM     21  C   UNL     1      48.885   5.308  16.916  0.00  0.00    +0.000 A 
ATOM     22  H   UNL     1      47.078   2.566  17.086  0.00  0.00    +0.000 HD
ENDBRANCH   9  12
ENDBRANCH   7  10
ENDBRANCH   1   7
BRANCH   4  23
ATOM     23  C   UNL     1      43.820   4.786  10.414  0.00  0.00    +0.000 C 
BRANCH  23  24
ATOM     24  C   UNL     1      44.437   4.408   9.055  0.00  0.00    +0.000 C 
BRANCH  24  25
ATOM     25  C   UNL     1      44.987   2.959   9.073  0.00  0.00    +0.000 C 
ATOM     26  O   UNL     1      44.585   2.122   9.881  0.00  0.00    +0.000 OA
ATOM     27  N   UNL     1      45.928   2.649   8.111  0.00  0.00    +0.000 N 
ATOM     28  C   UNL     1      46.554   3.552   7.159  0.00  0.00    +0.000 C 
ATOM     29  C   UNL     1      46.878   2.644   5.988  0.00  0.00    +0.000 C 
ATOM     30  C   UNL     1      47.257   1.327   6.657  0.00  0.00    +0.000 C 
ATOM     31  C   UNL     1      46.433   1.296   7.942  0.00  0.00    +0.000 C 
ENDBRANCH  24  25
BRANCH  24  32
ATOM     32  O   UNL     1      45.463   5.336   8.690  0.00  0.00    +0.000 OA
ATOM     33  H   UNL     1      46.286   4.828   8.598  0.00  0.00    +0.000 HD
ENDBRANCH  24  32
ENDBRANCH  23  24
ENDBRANCH   4  23
TORSDOF 7
ENDMDL
MODEL 3
REMARK VINA RESULT:    -8.030      1.356      2.053
REMARK INTER + INTRA:         -11.734
REMARK INTER:                 -10.870
REMARK INTRA:                  -0.864
REMARK UNBOUND:                -0.652
REMARK  Name = 
REMARK  7 active torsions:
REMARK  status: ('A' for Active; 'I' for Inactive)
REMARK    1  A    between atoms: C_2  and  C_21
REMARK    2  A    between atoms: N_3  and  C_4
REMARK    3  A    between atoms: C_4  and  C_5
REMARK    4  A    between atoms: C_8  and  C_9
REMARK    5  A    between atoms: C_9  and  C_10
REMARK    6  A    between atoms: C_10  and  O_11
REMARK    7  A    between atoms: C_10  and  C_12
REMARK                            x       y       z     vdW  Elec       q    Type
REMARK                         _______ _______ _______ _____ _____    ______ ____
ROOT
ATOM      1  C   UNL     1      46.996   6.169  13.118  0.00  0.00    +0.000 A 
ATOM      2  C   UNL     1      46.366   6.696  11.987  0.00  0.00    +0.000 A 
ATOM      3  C   UNL     1      45.436   5.939  11.269  0.00  0.00    +0.000 A 
ATOM      4  C   UNL     1      45.118   4.634  11.668  0.00  0.00    +0.000 A 
ATOM      5  C   UNL     1      45.718   4.121  12.825  0.00  0.00    +0.000 A 
ATOM      6  C   UNL     1      46.644   4.882  13.547  0.00  0.00    +0.000 A 
ENDROOT
BRANCH   1   7
ATOM      7  C   UNL     1      48.007   6.992  13.873  0.00  0.00    +0.000 C 
BRANCH   7  10
ATOM      8  O   UNL     1      50.235   6.490  15.538  0.00  0.00    +0.000 OA
ATOM      9  C   UNL     1      49.111   6.524  16.030  0.00  0.00    +0.000 C 
ATOM     10  N   UNL     1      47.976   6.696  15.281  0.00  0.00    +0.000 N 
ATOM     11  H   UNL     1      47.105   6.910  15.752  0.00  0.00    +0.000 HD
BRANCH   9  12
ATOM     12  C   UNL     1      48.899   6.323  17.471  0.00  0.00    +0.000 A 
ATOM     13  C   UNL     1      49.238   5.114  18.062  0.00  0.00    +0.000 A 
ATOM     14  S   UNL     1      48.899   5.053  19.733  0.00  0.00    +0.000 S 
ATOM     15  C   UNL     1      48.330   6.657  19.732  0.00  0.00    +0.000 A 
ATOM     16  N   UNL     1      47.899   7.249  20.879  0.00  0.00    +0.000 NA
ATOM     17  C   UNL     1      47.540   8.482  20.741  0.00  0.00    +0.000 A 
ATOM     18  N   UNL     1      47.563   9.174  19.557  0.00  0.00    +0.000 N 
ATOM     19  C   UNL     1      47.908   8.592  18.364  0.00  0.00    +0.000 A 
ATOM     20  O   UNL     1      47.774   9.198  17.305  0.00  0.00    +0.000 OA
ATOM     21  C   UNL     1      48.373   7.221  18.471  0.00  0.00    +0.000 A 
ATOM     22  H   UNL     1      47.235  10.127  19.508  0.00  0.00    +0.000 HD
ENDBRANCH   9  12
ENDBRANCH   7  10
ENDBRANCH   1   7
BRANCH   4  23
ATOM     23  C   UNL     1      44.119   3.803  10.886  0.00  0.00    +0.000 C 
BRANCH  23  24
ATOM     24  C   UNL     1      44.770   2.794   9.922  0.00  0.00    +0.000 C 
BRANCH  24  25
ATOM     25  C   UNL     1      45.014   3.426   8.528  0.00  0.00    +0.000 C 
ATOM     26  O   UNL     1      44.481   4.484   8.193  0.00  0.00    +0.000 OA
ATOM     27  N   UNL     1      45.888   2.755   7.695  0.00  0.00    +0.000 N 
ATOM     28  C   UNL     1      46.514   1.463   7.923  0.00  0.00    +0.000 C 
ATOM     29  C   UNL     1      47.809   1.567   7.141  0.00  0.00    +0.000 C 
ATOM     30  C   UNL     1      47.418   2.393   5.919  0.00  0.00    +0.000 C 
ATOM     31  C   UNL     1      46.296   3.304   6.412  0.00  0.00    +0.000 C 
ENDBRANCH  24  25
BRANCH  24  32
ATOM     32  O   UNL     1      43.968   1.614   9.811  0.00  0.00    +0.000 OA
ATOM     33  H   UNL     1      43.214   1.836   9.239  0.00  0.00    +0.000 HD
ENDBRANCH  24  32
ENDBRANCH  23  24
ENDBRANCH   4  23
TORSDOF 7
ENDMDL
MODEL 4
REMARK VINA RESULT:    -7.235      2.962      9.123
REMARK INTER + INTRA:         -10.637
REMARK INTER:                  -9.269
REMARK INTRA:                  -1.368
REMARK UNBOUND:                -0.652
REMARK  Name = 
REMARK  7 active torsions:
REMARK  status: ('A' for Active; 'I' for Inactive)
REMARK    1  A    between atoms: C_2  and  C_21
REMARK    2  A    between atoms: N_3  and  C_4
REMARK    3  A    between atoms: C_4  and  C_5
REMARK    4  A    between atoms: C_8  and  C_9
REMARK    5  A    between atoms: C_9  and  C_10
REMARK    6  A    between atoms: C_10  and  O_11
REMARK    7  A    between atoms: C_10  and  C_12
REMARK                            x       y       z     vdW  Elec       q    Type
REMARK                         _______ _______ _______ _____ _____    ______ ____
ROOT
ATOM      1  C   UNL     1      48.163   8.003  13.099  0.00  0.00    +0.000 A 
ATOM      2  C   UNL     1      49.315   7.267  13.391  0.00  0.00    +0.000 A 
ATOM      3  C   UNL     1      49.940   7.381  14.636  0.00  0.00    +0.000 A 
ATOM      4  C   UNL     1      49.424   8.239  15.617  0.00  0.00    +0.000 A 
ATOM      5  C   UNL     1      48.247   8.945  15.340  0.00  0.00    +0.000 A 
ATOM      6  C   UNL     1      47.619   8.825  14.095  0.00  0.00    +0.000 A 
ENDROOT
BRANCH   1   7
ATOM      7  C   UNL     1      47.509   7.880  11.748  0.00  0.00    +0.000 C 
BRANCH   7  10
ATOM      8  O   UNL     1      44.721   7.521  12.037  0.00  0.00    +0.000 OA
ATOM      9  C   UNL     1      45.422   6.564  11.723  0.00  0.00    +0.000 C 
ATOM     10  N   UNL     1      46.787   6.641  11.627  0.00  0.00    +0.000 N 
ATOM     11  H   UNL     1      47.291   5.885  11.179  0.00  0.00    +0.000 HD
BRANCH   9  12
ATOM     12  C   UNL     1      44.841   5.236  11.479  0.00  0.00    +0.000 A 
ATOM     13  C   UNL     1      44.075   4.621  12.460  0.00  0.00    +0.000 A 
ATOM     14  S   UNL     1      43.504   3.077  12.011  0.00  0.00    +0.000 S 
ATOM     15  C   UNL     1      44.223   3.197  10.474  0.00  0.00    +0.000 A 
ATOM     16  N   UNL     1      44.094   2.198   9.558  0.00  0.00    +0.000 NA
ATOM     17  C   UNL     1      44.650   2.443   8.419  0.00  0.00    +0.000 A 
ATOM     18  N   UNL     1      45.333   3.592   8.114  0.00  0.00    +0.000 N 
ATOM     19  C   UNL     1      45.561   4.586   9.033  0.00  0.00    +0.000 A 
ATOM     20  O   UNL     1      46.302   5.529   8.771  0.00  0.00    +0.000 OA
ATOM     21  C   UNL     1      44.911   4.386  10.314  0.00  0.00    +0.000 A 
ATOM     22  H   UNL     1      45.777   3.709   7.215  0.00  0.00    +0.000 HD
ENDBRANCH   9  12
ENDBRANCH   7  10
ENDBRANCH   1   7
BRANCH   4  23
ATOM     23  C   UNL     1      50.105   8.377  16.966  0.00  0.00    +0.000 C 
BRANCH  23  24
ATOM     24  C   UNL     1      50.160   7.065  17.771  0.00  0.00    +0.000 C 
BRANCH  24  25
ATOM     25  C   UNL     1      48.737   6.557  18.114  0.00  0.00    +0.000 C 
ATOM     26  O   UNL     1      47.867   7.310  18.551  0.00  0.00    +0.000 OA
ATOM     27  N   UNL     1      48.488   5.220  17.871  0.00  0.00    +0.000 N 
ATOM     28  C   UNL     1      49.438   4.205  17.445  0.00  0.00    +0.000 C 
ATOM     29  C   UNL     1      48.570   3.223  16.681  0.00  0.00    +0.000 C 
ATOM     30  C   UNL     1      47.257   3.236  17.458  0.00  0.00    +0.000 C 
ATOM     31  C   UNL     1      47.163   4.647  18.035  0.00  0.00    +0.000 C 
ENDBRANCH  24  25
BRANCH  24  32
ATOM     32  O   UNL     1      50.939   7.236  18.959  0.00  0.00    +0.000 OA
ATOM     33  H   UNL     1      50.831   6.427  19.487  0.00  0.00    +0.000 HD
ENDBRANCH  24  32
ENDBRANCH  23  24
ENDBRANCH   4  23
TORSDOF 7
ENDMDL
MODEL 5
REMARK VINA RESULT:    -7.178      1.894      2.003
REMARK INTER + INTRA:         -10.558
REMARK INTER:                 -10.196
REMARK INTRA:                  -0.362
REMARK UNBOUND:                -0.652
REMARK  Name = 
REMARK  7 active torsions:
REMARK  status: ('A' for Active; 'I' for Inactive)
REMARK    1  A    between atoms: C_2  and  C_21
REMARK    2  A    between atoms: N_3  and  C_4
REMARK    3  A    between atoms: C_4  and  C_5
REMARK    4  A    between atoms: C_8  and  C_9
REMARK    5  A    between atoms: C_9  and  C_10
REMARK    6  A    between atoms: C_10  and  O_11
REMARK    7  A    between atoms: C_10  and  C_12
REMARK                            x       y       z     vdW  Elec       q    Type
REMARK                         _______ _______ _______ _____ _____    ______ ____
ROOT
ATOM      1  C   UNL     1      46.712   7.384  13.100  0.00  0.00    +0.000 A 
ATOM      2  C   UNL     1      45.520   7.859  12.544  0.00  0.00    +0.000 A 
ATOM      3  C   UNL     1      44.681   7.006  11.820  0.00  0.00    +0.000 A 
ATOM      4  C   UNL     1      45.020   5.660  11.635  0.00  0.00    +0.000 A 
ATOM      5  C   UNL     1      46.193   5.175  12.226  0.00  0.00    +0.000 A 
ATOM      6  C   UNL     1      47.029   6.027  12.956  0.00  0.00    +0.000 A 
ENDROOT
BRANCH   1   7
ATOM      7  C   UNL     1      47.613   8.318  13.865  0.00  0.00    +0.000 C 
BRANCH   7  10
ATOM      8  O   UNL     1      48.298   8.668  16.585  0.00  0.00    +0.000 OA
ATOM      9  C   UNL     1      48.846   7.783  15.935  0.00  0.00    +0.000 C 
ATOM     10  N   UNL     1      48.618   7.593  14.598  0.00  0.00    +0.000 N 
ATOM     11  H   UNL     1      48.941   6.738  14.161  0.00  0.00    +0.000 HD
BRANCH   9  12
ATOM     12  C   UNL     1      49.842   6.890  16.544  0.00  0.00    +0.000 A 
ATOM     13  C   UNL     1      51.102   7.373  16.871  0.00  0.00    +0.000 A 
ATOM     14  S   UNL     1      52.132   6.191  17.545  0.00  0.00    +0.000 S 
ATOM     15  C   UNL     1      50.915   5.005  17.464  0.00  0.00    +0.000 A 
ATOM     16  N   UNL     1      51.136   3.740  17.916  0.00  0.00    +0.000 NA
ATOM     17  C   UNL     1      50.111   2.959  17.838  0.00  0.00    +0.000 A 
ATOM     18  N   UNL     1      48.886   3.323  17.339  0.00  0.00    +0.000 N 
ATOM     19  C   UNL     1      48.645   4.560  16.796  0.00  0.00    +0.000 A 
ATOM     20  O   UNL     1      47.586   4.801  16.224  0.00  0.00    +0.000 OA
ATOM     21  C   UNL     1      49.748   5.496  16.908  0.00  0.00    +0.000 A 
ATOM     22  H   UNL     1      48.134   2.655  17.272  0.00  0.00    +0.000 HD
ENDBRANCH   9  12
ENDBRANCH   7  10
ENDBRANCH   1   7
BRANCH   4  23
ATOM     23  C   UNL     1      44.119   4.734  10.840  0.00  0.00    +0.000 C 
BRANCH  23  24
ATOM     24  C   UNL     1      44.860   3.546  10.198  0.00  0.00    +0.000 C 
BRANCH  24  25
ATOM     25  C   UNL     1      45.435   3.927   8.810  0.00  0.00    +0.000 C 
ATOM     26  O   UNL     1      45.473   5.094   8.422  0.00  0.00    +0.000 OA
ATOM     27  N   UNL     1      45.932   2.888   8.046  0.00  0.00    +0.000 N 
ATOM     28  C   UNL     1      45.871   1.466   8.338  0.00  0.00    +0.000 C 
ATOM     29  C   UNL     1      47.100   0.920   7.636  0.00  0.00    +0.000 C 
ATOM     30  C   UNL     1      47.195   1.775   6.376  0.00  0.00    +0.000 C 
ATOM     31  C   UNL     1      46.606   3.125   6.780  0.00  0.00    +0.000 C 
ENDBRANCH  24  25
BRANCH  24  32
ATOM     32  O   UNL     1      43.998   2.409  10.096  0.00  0.00    +0.000 OA
ATOM     33  H   UNL     1      44.513   1.699   9.677  0.00  0.00    +0.000 HD
ENDBRANCH  24  32
ENDBRANCH  23  24
ENDBRANCH   4  23
TORSDOF 7
ENDMDL
MODEL 6
REMARK VINA RESULT:    -7.090      2.818      3.538
REMARK INTER + INTRA:         -10.437
REMARK INTER:                  -9.665
REMARK INTRA:                  -0.772
REMARK UNBOUND:                -0.652
REMARK  Name = 
REMARK  7 active torsions:
REMARK  status: ('A' for Active; 'I' for Inactive)
REMARK    1  A    between atoms: C_2  and  C_21
REMARK    2  A    between atoms: N_3  and  C_4
REMARK    3  A    between atoms: C_4  and  C_5
REMARK    4  A    between atoms: C_8  and  C_9
REMARK    5  A    between atoms: C_9  and  C_10
REMARK    6  A    between atoms: C_10  and  O_11
REMARK    7  A    between atoms: C_10  and  C_12
REMARK                            x       y       z     vdW  Elec       q    Type
REMARK                         _______ _______ _______ _____ _____    ______ ____
ROOT
ATOM      1  C   UNL     1      47.329   6.619  13.335  0.00  0.00    +0.000 A 
ATOM      2  C   UNL     1      46.115   7.189  12.940  0.00  0.00    +0.000 A 
ATOM      3  C   UNL     1      44.977   6.396  12.765  0.00  0.00    +0.000 A 
ATOM      4  C   UNL     1      45.031   5.013  12.980  0.00  0.00    +0.000 A 
ATOM      5  C   UNL     1      46.236   4.448  13.416  0.00  0.00    +0.000 A 
ATOM      6  C   UNL     1      47.373   5.243  13.597  0.00  0.00    +0.000 A 
ENDROOT
BRANCH   1   7
ATOM      7  C   UNL     1      48.550   7.484  13.507  0.00  0.00    +0.000 C 
BRANCH   7  10
ATOM      8  O   UNL     1      49.895   8.584  15.736  0.00  0.00    +0.000 OA
ATOM      9  C   UNL     1      50.105   7.417  15.422  0.00  0.00    +0.000 C 
ATOM     10  N   UNL     1      49.544   6.831  14.317  0.00  0.00    +0.000 N 
ATOM     11  H   UNL     1      49.595   5.825  14.216  0.00  0.00    +0.000 HD
BRANCH   9  12
ATOM     12  C   UNL     1      51.032   6.572  16.188  0.00  0.00    +0.000 A 
ATOM     13  C   UNL     1      50.538   5.633  17.083  0.00  0.00    +0.000 A 
ATOM     14  S   UNL     1      51.758   4.762  17.899  0.00  0.00    +0.000 S 
ATOM     15  C   UNL     1      52.986   5.581  17.053  0.00  0.00    +0.000 A 
ATOM     16  N   UNL     1      54.299   5.289  17.264  0.00  0.00    +0.000 NA
ATOM     17  C   UNL     1      55.119   5.952  16.520  0.00  0.00    +0.000 A 
ATOM     18  N   UNL     1      54.748   6.890  15.591  0.00  0.00    +0.000 N 
ATOM     19  C   UNL     1      53.444   7.276  15.406  0.00  0.00    +0.000 A 
ATOM     20  O   UNL     1      53.165   8.221  14.676  0.00  0.00    +0.000 OA
ATOM     21  C   UNL     1      52.475   6.522  16.179  0.00  0.00    +0.000 A 
ATOM     22  H   UNL     1      55.441   7.401  15.064  0.00  0.00    +0.000 HD
ENDBRANCH   9  12
ENDBRANCH   7  10
ENDBRANCH   1   7
BRANCH   4  23
ATOM     23  C   UNL     1      43.803   4.146  12.779  0.00  0.00    +0.000 C 
BRANCH  23  24
ATOM     24  C   UNL     1      43.920   3.165  11.598  0.00  0.00    +0.000 C 
BRANCH  24  25
ATOM     25  C   UNL     1      43.897   3.914  10.241  0.00  0.00    +0.000 C 
ATOM     26  O   UNL     1      43.344   5.006  10.113  0.00  0.00    +0.000 OA
ATOM     27  N   UNL     1      44.557   3.304   9.193  0.00  0.00    +0.000 N 
ATOM     28  C   UNL     1      45.170   1.986   9.178  0.00  0.00    +0.000 C 
ATOM     29  C   UNL     1      46.281   2.136   8.156  0.00  0.00    +0.000 C 
ATOM     30  C   UNL     1      45.678   3.074   7.115  0.00  0.00    +0.000 C 
ATOM     31  C   UNL     1      44.713   3.957   7.904  0.00  0.00    +0.000 C 
ENDBRANCH  24  25
BRANCH  24  32
ATOM     32  O   UNL     1      42.882   2.182  11.654  0.00  0.00    +0.000 OA
ATOM     33  H   UNL     1      42.906   1.794  12.545  0.00  0.00    +0.000 HD
ENDBRANCH  24  32
ENDBRANCH  23  24
ENDBRANCH   4  23
TORSDOF 7
ENDMDL
MODEL 7
REMARK VINA RESULT:    -7.036      3.170     10.187
REMARK INTER + INTRA:         -10.362
REMARK INTER:                  -9.346
REMARK INTRA:                  -1.015
REMARK UNBOUND:                -0.652
REMARK  Name = 
REMARK  7 active torsions:
REMARK  status: ('A' for Active; 'I' for Inactive)
REMARK    1  A    between atoms: C_2  and  C_21
REMARK    2  A    between atoms: N_3  and  C_4
REMARK    3  A    between atoms: C_4  and  C_5
REMARK    4  A    between atoms: C_8  and  C_9
REMARK    5  A    between atoms: C_9  and  C_10
REMARK    6  A    between atoms: C_10  and  O_11
REMARK    7  A    between atoms: C_10  and  C_12
REMARK                            x       y       z     vdW  Elec       q    Type
REMARK                         _______ _______ _______ _____ _____    ______ ____
ROOT
ATOM      1  C   UNL     1      45.609   4.609  12.520  0.00  0.00    +0.000 A 
ATOM      2  C   UNL     1      45.804   5.836  11.878  0.00  0.00    +0.000 A 
ATOM      3  C   UNL     1      46.726   6.763  12.373  0.00  0.00    +0.000 A 
ATOM      4  C   UNL     1      47.472   6.482  13.525  0.00  0.00    +0.000 A 
ATOM      5  C   UNL     1      47.307   5.237  14.144  0.00  0.00    +0.000 A 
ATOM      6  C   UNL     1      46.389   4.307  13.645  0.00  0.00    +0.000 A 
ENDROOT
BRANCH   1   7
ATOM      7  C   UNL     1      44.602   3.626  11.983  0.00  0.00    +0.000 C 
BRANCH   7  10
ATOM      8  O   UNL     1      43.959   3.737   9.233  0.00  0.00    +0.000 OA
ATOM      9  C   UNL     1      44.843   2.976   9.615  0.00  0.00    +0.000 C 
ATOM     10  N   UNL     1      45.167   2.817  10.936  0.00  0.00    +0.000 N 
ATOM     11  H   UNL     1      46.024   2.332  11.177  0.00  0.00    +0.000 HD
BRANCH   9  12
ATOM     12  C   UNL     1      45.586   2.130   8.670  0.00  0.00    +0.000 A 
ATOM     13  C   UNL     1      45.476   0.748   8.739  0.00  0.00    +0.000 A 
ATOM     14  S   UNL     1      46.427  -0.069   7.581  0.00  0.00    +0.000 S 
ATOM     15  C   UNL     1      46.983   1.396   6.921  0.00  0.00    +0.000 A 
ATOM     16  N   UNL     1      47.832   1.410   5.857  0.00  0.00    +0.000 NA
ATOM     17  C   UNL     1      48.134   2.591   5.430  0.00  0.00    +0.000 A 
ATOM     18  N   UNL     1      47.673   3.761   5.977  0.00  0.00    +0.000 N 
ATOM     19  C   UNL     1      46.886   3.795   7.100  0.00  0.00    +0.000 A 
ATOM     20  O   UNL     1      46.617   4.860   7.648  0.00  0.00    +0.000 OA
ATOM     21  C   UNL     1      46.472   2.494   7.589  0.00  0.00    +0.000 A 
ATOM     22  H   UNL     1      47.975   4.655   5.619  0.00  0.00    +0.000 HD
ENDBRANCH   9  12
ENDBRANCH   7  10
ENDBRANCH   1   7
BRANCH   4  23
ATOM     23  C   UNL     1      48.464   7.489  14.074  0.00  0.00    +0.000 C 
BRANCH  23  24
ATOM     24  C   UNL     1      49.333   6.944  15.222  0.00  0.00    +0.000 C 
BRANCH  24  25
ATOM     25  C   UNL     1      49.012   7.662  16.558  0.00  0.00    +0.000 C 
ATOM     26  O   UNL     1      49.170   8.875  16.696  0.00  0.00    +0.000 OA
ATOM     27  N   UNL     1      48.509   6.873  17.573  0.00  0.00    +0.000 N 
ATOM     28  C   UNL     1      48.357   5.427  17.580  0.00  0.00    +0.000 C 
ATOM     29  C   UNL     1      47.185   5.210  18.518  0.00  0.00    +0.000 C 
ATOM     30  C   UNL     1      47.374   6.295  19.574  0.00  0.00    +0.000 C 
ATOM     31  C   UNL     1      48.055   7.442  18.831  0.00  0.00    +0.000 C 
ENDBRANCH  24  25
BRANCH  24  32
ATOM     32  O   UNL     1      50.723   7.061  14.903  0.00  0.00    +0.000 OA
ATOM     33  H   UNL     1      50.840   6.701  14.008  0.00  0.00    +0.000 HD
ENDBRANCH  24  32
ENDBRANCH  23  24
ENDBRANCH   4  23
TORSDOF 7
ENDMDL
MODEL 8
REMARK VINA RESULT:    -6.965      3.530      8.718
REMARK INTER + INTRA:         -10.264
REMARK INTER:                  -9.613
REMARK INTRA:                  -0.650
REMARK UNBOUND:                -0.652
REMARK  Name = 
REMARK  7 active torsions:
REMARK  status: ('A' for Active; 'I' for Inactive)
REMARK    1  A    between atoms: C_2  and  C_21
REMARK    2  A    between atoms: N_3  and  C_4
REMARK    3  A    between atoms: C_4  and  C_5
REMARK    4  A    between atoms: C_8  and  C_9
REMARK    5  A    between atoms: C_9  and  C_10
REMARK    6  A    between atoms: C_10  and  O_11
REMARK    7  A    between atoms: C_10  and  C_12
REMARK                            x       y       z     vdW  Elec       q    Type
REMARK                         _______ _______ _______ _____ _____    ______ ____
ROOT
ATOM      1  C   UNL     1      48.285   7.944  13.884  0.00  0.00    +0.000 A 
ATOM      2  C   UNL     1      47.967   8.875  14.878  0.00  0.00    +0.000 A 
ATOM      3  C   UNL     1      48.315   8.643  16.212  0.00  0.00    +0.000 A 
ATOM      4  C   UNL     1      48.987   7.470  16.581  0.00  0.00    +0.000 A 
ATOM      5  C   UNL     1      49.342   6.557  15.580  0.00  0.00    +0.000 A 
ATOM      6  C   UNL     1      48.999   6.793  14.244  0.00  0.00    +0.000 A 
ENDROOT
BRANCH   1   7
ATOM      7  C   UNL     1      47.891   8.201  12.453  0.00  0.00    +0.000 C 
BRANCH   7  10
ATOM      8  O   UNL     1      45.185   8.001  11.664  0.00  0.00    +0.000 OA
ATOM      9  C   UNL     1      45.943   7.057  11.460  0.00  0.00    +0.000 C 
ATOM     10  N   UNL     1      47.249   7.051  11.872  0.00  0.00    +0.000 N 
ATOM     11  H   UNL     1      47.875   6.341  11.511  0.00  0.00    +0.000 HD
BRANCH   9  12
ATOM     12  C   UNL     1      45.477   5.829  10.801  0.00  0.00    +0.000 A 
ATOM     13  C   UNL     1      45.800   5.588   9.473  0.00  0.00    +0.000 A 
ATOM     14  S   UNL     1      45.155   4.127   8.869  0.00  0.00    +0.000 S 
ATOM     15  C   UNL     1      44.460   3.747  10.375  0.00  0.00    +0.000 A 
ATOM     16  N   UNL     1      43.769   2.589  10.556  0.00  0.00    +0.000 NA
ATOM     17  C   UNL     1      43.338   2.408  11.760  0.00  0.00    +0.000 A 
ATOM     18  N   UNL     1      43.527   3.284  12.798  0.00  0.00    +0.000 N 
ATOM     19  C   UNL     1      44.143   4.500  12.639  0.00  0.00    +0.000 A 
ATOM     20  O   UNL     1      44.161   5.321  13.552  0.00  0.00    +0.000 OA
ATOM     21  C   UNL     1      44.695   4.731  11.317  0.00  0.00    +0.000 A 
ATOM     22  H   UNL     1      43.134   3.101  13.709  0.00  0.00    +0.000 HD
ENDBRANCH   9  12
ENDBRANCH   7  10
ENDBRANCH   1   7
BRANCH   4  23
ATOM     23  C   UNL     1      49.356   7.207  18.028  0.00  0.00    +0.000 C 
BRANCH  23  24
ATOM     24  C   UNL     1      48.282   6.431  18.812  0.00  0.00    +0.000 C 
BRANCH  24  25
ATOM     25  C   UNL     1      48.006   5.048  18.167  0.00  0.00    +0.000 C 
ATOM     26  O   UNL     1      46.898   4.749  17.723  0.00  0.00    +0.000 OA
ATOM     27  N   UNL     1      49.080   4.183  18.089  0.00  0.00    +0.000 N 
ATOM     28  C   UNL     1      50.410   4.368  18.647  0.00  0.00    +0.000 C 
ATOM     29  C   UNL     1      51.289   3.565  17.707  0.00  0.00    +0.000 C 
ATOM     30  C   UNL     1      50.414   2.371  17.339  0.00  0.00    +0.000 C 
ATOM     31  C   UNL     1      48.985   2.907  17.399  0.00  0.00    +0.000 C 
ENDBRANCH  24  25
BRANCH  24  32
ATOM     32  O   UNL     1      47.076   7.195  18.909  0.00  0.00    +0.000 OA
ATOM     33  H   UNL     1      47.157   7.753  19.701  0.00  0.00    +0.000 HD
ENDBRANCH  24  32
ENDBRANCH  23  24
ENDBRANCH   4  23
TORSDOF 7
ENDMDL
MODEL 9
REMARK VINA RESULT:    -6.482      2.124      2.953
REMARK INTER + INTRA:          -9.597
REMARK INTER:                  -9.387
REMARK INTRA:                  -0.210
REMARK UNBOUND:                -0.652
REMARK  Name = 
REMARK  7 active torsions:
REMARK  status: ('A' for Active; 'I' for Inactive)
REMARK    1  A    between atoms: C_2  and  C_21
REMARK    2  A    between atoms: N_3  and  C_4
REMARK    3  A    between atoms: C_4  and  C_5
REMARK    4  A    between atoms: C_8  and  C_9
REMARK    5  A    between atoms: C_9  and  C_10
REMARK    6  A    between atoms: C_10  and  O_11
REMARK    7  A    between atoms: C_10  and  C_12
REMARK                            x       y       z     vdW  Elec       q    Type
REMARK                         _______ _______ _______ _____ _____    ______ ____
ROOT
ATOM      1  C   UNL     1      47.999   8.199  13.374  0.00  0.00    +0.000 A 
ATOM      2  C   UNL     1      46.738   8.799  13.447  0.00  0.00    +0.000 A 
ATOM      3  C   UNL     1      45.675   8.325  12.672  0.00  0.00    +0.000 A 
ATOM      4  C   UNL     1      45.853   7.240  11.804  0.00  0.00    +0.000 A 
ATOM      5  C   UNL     1      47.105   6.613  11.761  0.00  0.00    +0.000 A 
ATOM      6  C   UNL     1      48.167   7.084  12.542  0.00  0.00    +0.000 A 
ENDROOT
BRANCH   1   7
ATOM      7  C   UNL     1      49.138   8.730  14.205  0.00  0.00    +0.000 C 
BRANCH   7  10
ATOM      8  O   UNL     1      47.975   9.266  16.724  0.00  0.00    +0.000 OA
ATOM      9  C   UNL     1      48.658   8.257  16.579  0.00  0.00    +0.000 C 
ATOM     10  N   UNL     1      49.309   7.962  15.409  0.00  0.00    +0.000 N 
ATOM     11  H   UNL     1      49.692   7.033  15.282  0.00  0.00    +0.000 HD
BRANCH   9  12
ATOM     12  C   UNL     1      48.874   7.312  17.684  0.00  0.00    +0.000 A 
ATOM     13  C   UNL     1      49.306   7.774  18.919  0.00  0.00    +0.000 A 
ATOM     14  S   UNL     1      49.525   6.535  20.072  0.00  0.00    +0.000 S 
ATOM     15  C   UNL     1      49.008   5.344  18.972  0.00  0.00    +0.000 A 
ATOM     16  N   UNL     1      48.933   4.035  19.338  0.00  0.00    +0.000 NA
ATOM     17  C   UNL     1      48.480   3.249  18.419  0.00  0.00    +0.000 A 
ATOM     18  N   UNL     1      48.104   3.651  17.162  0.00  0.00    +0.000 N 
ATOM     19  C   UNL     1      48.243   4.944  16.724  0.00  0.00    +0.000 A 
ATOM     20  O   UNL     1      48.038   5.237  15.550  0.00  0.00    +0.000 OA
ATOM     21  C   UNL     1      48.697   5.880  17.736  0.00  0.00    +0.000 A 
ATOM     22  H   UNL     1      47.790   2.982  16.476  0.00  0.00    +0.000 HD
ENDBRANCH   9  12
ENDBRANCH   7  10
ENDBRANCH   1   7
BRANCH   4  23
ATOM     23  C   UNL     1      44.708   6.729  10.951  0.00  0.00    +0.000 C 
BRANCH  23  24
ATOM     24  C   UNL     1      43.612   6.002  11.753  0.00  0.00    +0.000 C 
BRANCH  24  25
ATOM     25  C   UNL     1      43.830   4.468  11.737  0.00  0.00    +0.000 C 
ATOM     26  O   UNL     1      43.508   3.757  12.689  0.00  0.00    +0.000 OA
ATOM     27  N   UNL     1      44.373   3.938  10.583  0.00  0.00    +0.000 N 
ATOM     28  C   UNL     1      44.877   4.661   9.426  0.00  0.00    +0.000 C 
ATOM     29  C   UNL     1      44.658   3.682   8.289  0.00  0.00    +0.000 C 
ATOM     30  C   UNL     1      44.928   2.326   8.933  0.00  0.00    +0.000 C 
ATOM     31  C   UNL     1      44.514   2.503  10.393  0.00  0.00    +0.000 C 
ENDBRANCH  24  25
BRANCH  24  32
ATOM     32  O   UNL     1      42.314   6.337  11.251  0.00  0.00    +0.000 OA
ATOM     33  H   UNL     1      41.906   5.509  10.946  0.00  0.00    +0.000 HD
ENDBRANCH  24  32
ENDBRANCH  23  24
ENDBRANCH   4  23
TORSDOF 7
ENDMDL
