MODEL 1
REMARK VINA RESULT:    -8.072      0.000      0.000
REMARK INTER + INTRA:         -12.052
REMARK INTER:                 -11.139
REMARK INTRA:                  -0.913
REMARK UNBOUND:                -0.913
REMARK  Name = 
REMARK  8 active torsions:
REMARK  status: ('A' for Active; 'I' for Inactive)
REMARK    1  A    between atoms: C_1  and  C_2
REMARK    2  A    between atoms: C_2  and  N_3
REMARK    3  A    between atoms: C_2  and  C_19
REMARK    4  A    between atoms: N_3  and  C_4
REMARK    5  A    between atoms: C_7  and  C_8
REMARK    6  A    between atoms: C_8  and  O_9
REMARK    7  A    between atoms: C_8  and  C_10
REMARK    8  A    between atoms: C_10  and  C_11
REMARK                            x       y       z     vdW  Elec       q    Type
REMARK                         _______ _______ _______ _____ _____    ______ ____
ROOT
ATOM      1  C   UNL     1      46.666   4.846  14.124  0.00  0.00    +0.000 A 
ATOM      2  C   UNL     1      46.743   3.526  13.662  0.00  0.00    +0.000 A 
ATOM      3  C   UNL     1      45.907   3.059  12.638  0.00  0.00    +0.000 A 
ATOM      4  C   UNL     1      44.936   3.897  12.077  0.00  0.00    +0.000 A 
ATOM      5  C   UNL     1      44.795   5.184  12.617  0.00  0.00    +0.000 A 
ATOM      6  C   UNL     1      45.646   5.649  13.622  0.00  0.00    +0.000 A 
ENDROOT
BRANCH   1   7
ATOM      7  N   UNL     1      47.520   5.237  15.159  0.00  0.00    +0.000 N 
ATOM      8  H   UNL     1      48.349   5.658  14.736  0.00  0.00    +0.000 HD
BRANCH   7  10
ATOM      9  C   UNL     1      46.798   3.992  17.182  0.00  0.00    +0.000 C 
ATOM     10  C   UNL     1      47.945   4.270  16.194  0.00  0.00    +0.000 C 
BRANCH  10  11
ATOM     11  C   UNL     1      49.146   4.764  16.985  0.00  0.00    +0.000 A 
ATOM     12  C   UNL     1      49.281   6.057  17.462  0.00  0.00    +0.000 A 
ATOM     13  S   UNL     1      50.721   6.298  18.347  0.00  0.00    +0.000 S 
ATOM     14  C   UNL     1      51.188   4.672  18.140  0.00  0.00    +0.000 A 
ATOM     15  N   UNL     1      52.340   4.193  18.684  0.00  0.00    +0.000 NA
ATOM     16  C   UNL     1      52.542   2.936  18.469  0.00  0.00    +0.000 A 
ATOM     17  N   UNL     1      51.708   2.110  17.753  0.00  0.00    +0.000 N 
ATOM     18  C   UNL     1      50.532   2.550  17.184  0.00  0.00    +0.000 A 
ATOM     19  O   UNL     1      49.793   1.795  16.564  0.00  0.00    +0.000 OA
ATOM     20  C   UNL     1      50.265   3.961  17.402  0.00  0.00    +0.000 A 
ATOM     21  H   UNL     1      51.921   1.137  17.635  0.00  0.00    +0.000 HD
ENDBRANCH  10  11
ENDBRANCH   7  10
ENDBRANCH   1   7
BRANCH   4  22
ATOM     22  C   UNL     1      44.032   3.388  10.964  0.00  0.00    +0.000 C 
BRANCH  22  23
ATOM     23  O   UNL     1      42.674   3.560  11.382  0.00  0.00    +0.000 OA
ATOM     24  H   UNL     1      42.275   4.252  10.826  0.00  0.00    +0.000 HD
ENDBRANCH  22  23
BRANCH  22  25
ATOM     25  C   UNL     1      44.248   4.126   9.632  0.00  0.00    +0.000 C 
BRANCH  25  26
ATOM     26  C   UNL     1      45.264   3.465   8.750  0.00  0.00    +0.000 A 
ATOM     27  C   UNL     1      45.492   2.091   8.839  0.00  0.00    +0.000 A 
ATOM     28  N   UNL     1      46.361   1.434   8.039  0.00  0.00    +0.000 NA
ATOM     29  C   UNL     1      47.014   2.215   7.148  0.00  0.00    +0.000 A 
ATOM     30  C   UNL     1      46.803   3.579   7.060  0.00  0.00    +0.000 A 
ATOM     31  N   UNL     1      45.924   4.236   7.850  0.00  0.00    +0.000 NA
ENDBRANCH  25  26
ENDBRANCH  22  25
ENDBRANCH   4  22
TORSDOF 7
ENDMDL
MODEL 2
REMARK VINA RESULT:    -7.373      1.880      2.332
REMARK INTER + INTRA:         -11.087
REMARK INTER:                 -10.113
REMARK INTRA:                  -0.974
REMARK UNBOUND:                -0.913
REMARK  Name = 
REMARK  8 active torsions:
REMARK  status: ('A' for Active; 'I' for Inactive)
REMARK    1  A    between atoms: C_1  and  C_2
REMARK    2  A    between atoms: C_2  and  N_3
REMARK    3  A    between atoms: C_2  and  C_19
REMARK    4  A    between atoms: N_3  and  C_4
REMARK    5  A    between atoms: C_7  and  C_8
REMARK    6  A    between atoms: C_8  and  O_9
REMARK    7  A    between atoms: C_8  and  C_10
REMARK    8  A    between atoms: C_10  and  C_11
REMARK                            x       y       z     vdW  Elec       q    Type
REMARK                         _______ _______ _______ _____ _____    ______ ____
ROOT
ATOM      1  C   UNL     1      47.379   6.369  12.997  0.00  0.00    +0.000 A 
ATOM      2  C   UNL     1      46.881   6.741  11.743  0.00  0.00    +0.000 A 
ATOM      3  C   UNL     1      45.859   6.014  11.115  0.00  0.00    +0.000 A 
ATOM      4  C   UNL     1      45.339   4.861  11.713  0.00  0.00    +0.000 A 
ATOM      5  C   UNL     1      45.916   4.435  12.919  0.00  0.00    +0.000 A 
ATOM      6  C   UNL     1      46.917   5.178  13.549  0.00  0.00    +0.000 A 
ENDROOT
BRANCH   1   7
ATOM      7  N   UNL     1      48.408   7.132  13.556  0.00  0.00    +0.000 N 
ATOM      8  H   UNL     1      49.295   6.725  13.256  0.00  0.00    +0.000 HD
BRANCH   7  10
ATOM      9  C   UNL     1      48.255   8.875  15.318  0.00  0.00    +0.000 C 
ATOM     10  C   UNL     1      48.458   7.380  15.013  0.00  0.00    +0.000 C 
BRANCH  10  11
ATOM     11  C   UNL     1      49.781   6.944  15.625  0.00  0.00    +0.000 A 
ATOM     12  C   UNL     1      50.992   7.570  15.381  0.00  0.00    +0.000 A 
ATOM     13  S   UNL     1      52.291   6.875  16.243  0.00  0.00    +0.000 S 
ATOM     14  C   UNL     1      51.263   5.738  16.987  0.00  0.00    +0.000 A 
ATOM     15  N   UNL     1      51.743   4.836  17.887  0.00  0.00    +0.000 NA
ATOM     16  C   UNL     1      50.840   4.061  18.390  0.00  0.00    +0.000 A 
ATOM     17  N   UNL     1      49.502   4.094  18.074  0.00  0.00    +0.000 N 
ATOM     18  C   UNL     1      48.971   4.989  17.170  0.00  0.00    +0.000 A 
ATOM     19  O   UNL     1      47.774   5.015  16.915  0.00  0.00    +0.000 OA
ATOM     20  C   UNL     1      49.954   5.880  16.579  0.00  0.00    +0.000 A 
ATOM     21  H   UNL     1      48.852   3.469  18.513  0.00  0.00    +0.000 HD
ENDBRANCH  10  11
ENDBRANCH   7  10
ENDBRANCH   1   7
BRANCH   4  22
ATOM     22  C   UNL     1      44.229   4.075  11.031  0.00  0.00    +0.000 C 
BRANCH  22  23
ATOM     23  O   UNL     1      42.983   4.476  11.609  0.00  0.00    +0.000 OA
ATOM     24  H   UNL     1      42.782   5.374  11.295  0.00  0.00    +0.000 HD
ENDBRANCH  22  23
BRANCH  22  25
ATOM     25  C   UNL     1      44.178   4.304   9.512  0.00  0.00    +0.000 C 
BRANCH  25  26
ATOM     26  C   UNL     1      45.158   3.460   8.755  0.00  0.00    +0.000 A 
ATOM     27  C   UNL     1      45.274   2.095   9.024  0.00  0.00    +0.000 A 
ATOM     28  N   UNL     1      46.107   1.277   8.342  0.00  0.00    +0.000 NA
ATOM     29  C   UNL     1      46.842   1.885   7.383  0.00  0.00    +0.000 A 
ATOM     30  C   UNL     1      46.742   3.238   7.117  0.00  0.00    +0.000 A 
ATOM     31  N   UNL     1      45.900   4.057   7.788  0.00  0.00    +0.000 NA
ENDBRANCH  25  26
ENDBRANCH  22  25
ENDBRANCH   4  22
TORSDOF 7
ENDMDL
MODEL 3
REMARK VINA RESULT:    -7.306      1.505      2.060
REMARK INTER + INTRA:         -10.995
REMARK INTER:                 -10.031
REMARK INTRA:                  -0.965
REMARK UNBOUND:                -0.913
REMARK  Name = 
REMARK  8 active torsions:
REMARK  status: ('A' for Active; 'I' for Inactive)
REMARK    1  A    between atoms: C_1  and  C_2
REMARK    2  A    between atoms: C_2  and  N_3
REMARK    3  A    between atoms: C_2  and  C_19
REMARK    4  A    between atoms: N_3  and  C_4
REMARK    5  A    between atoms: C_7  and  C_8
REMARK    6  A    between atoms: C_8  and  O_9
REMARK    7  A    between atoms: C_8  and  C_10
REMARK    8  A    between atoms: C_10  and  C_11
REMARK                            x       y       z     vdW  Elec       q    Type
REMARK                         _______ _______ _______ _____ _____    ______ ____
ROOT
ATOM      1  C   UNL     1      47.868   5.845  14.920  0.00  0.00    +0.000 A 
ATOM      2  C   UNL     1      47.765   6.849  13.950  0.00  0.00    +0.000 A 
ATOM      3  C   UNL     1      46.775   6.811  12.957  0.00  0.00    +0.000 A 
ATOM      4  C   UNL     1      45.884   5.734  12.885  0.00  0.00    +0.000 A 
ATOM      5  C   UNL     1      46.059   4.681  13.795  0.00  0.00    +0.000 A 
ATOM      6  C   UNL     1      47.034   4.737  14.795  0.00  0.00    +0.000 A 
ENDROOT
BRANCH   1   7
ATOM      7  N   UNL     1      48.889   5.940  15.869  0.00  0.00    +0.000 N 
ATOM      8  H   UNL     1      49.770   5.730  15.400  0.00  0.00    +0.000 HD
BRANCH   7  10
ATOM      9  C   UNL     1      48.141   6.004  18.236  0.00  0.00    +0.000 C 
ATOM     10  C   UNL     1      48.819   5.174  17.133  0.00  0.00    +0.000 C 
BRANCH  10  11
ATOM     11  C   UNL     1      50.195   4.756  17.628  0.00  0.00    +0.000 A 
ATOM     12  C   UNL     1      51.065   5.596  18.302  0.00  0.00    +0.000 A 
ATOM     13  S   UNL     1      52.517   4.828  18.763  0.00  0.00    +0.000 S 
ATOM     14  C   UNL     1      52.010   3.343  18.099  0.00  0.00    +0.000 A 
ATOM     15  N   UNL     1      52.790   2.230  18.176  0.00  0.00    +0.000 NA
ATOM     16  C   UNL     1      52.258   1.175  17.657  0.00  0.00    +0.000 A 
ATOM     17  N   UNL     1      51.021   1.124  17.057  0.00  0.00    +0.000 N 
ATOM     18  C   UNL     1      50.197   2.224  16.955  0.00  0.00    +0.000 A 
ATOM     19  O   UNL     1      49.091   2.155  16.433  0.00  0.00    +0.000 OA
ATOM     20  C   UNL     1      50.758   3.435  17.528  0.00  0.00    +0.000 A 
ATOM     21  H   UNL     1      50.663   0.265  16.683  0.00  0.00    +0.000 HD
ENDBRANCH  10  11
ENDBRANCH   7  10
ENDBRANCH   1   7
BRANCH   4  22
ATOM     22  C   UNL     1      44.809   5.697  11.809  0.00  0.00    +0.000 C 
BRANCH  22  23
ATOM     23  O   UNL     1      43.844   6.709  12.113  0.00  0.00    +0.000 OA
ATOM     24  H   UNL     1      43.986   7.451  11.501  0.00  0.00    +0.000 HD
ENDBRANCH  22  23
BRANCH  22  25
ATOM     25  C   UNL     1      45.366   5.937  10.396  0.00  0.00    +0.000 C 
BRANCH  25  26
ATOM     26  C   UNL     1      45.442   4.687   9.572  0.00  0.00    +0.000 A 
ATOM     27  C   UNL     1      44.916   3.488  10.054  0.00  0.00    +0.000 A 
ATOM     28  N   UNL     1      44.915   2.342   9.337  0.00  0.00    +0.000 NA
ATOM     29  C   UNL     1      45.484   2.437   8.114  0.00  0.00    +0.000 A 
ATOM     30  C   UNL     1      46.018   3.618   7.632  0.00  0.00    +0.000 A 
ATOM     31  N   UNL     1      46.008   4.769   8.342  0.00  0.00    +0.000 NA
ENDBRANCH  25  26
ENDBRANCH  22  25
ENDBRANCH   4  22
TORSDOF 7
ENDMDL
MODEL 4
REMARK VINA RESULT:    -7.212      2.069      2.852
REMARK INTER + INTRA:         -10.865
REMARK INTER:                  -9.730
REMARK INTRA:                  -1.135
REMARK UNBOUND:                -0.913
REMARK  Name = 
REMARK  8 active torsions:
REMARK  status: ('A' for Active; 'I' for Inactive)
REMARK    1  A    between atoms: C_1  and  C_2
REMARK    2  A    between atoms: C_2  and  N_3
REMARK    3  A    between atoms: C_2  and  C_19
REMARK    4  A    between atoms: N_3  and  C_4
REMARK    5  A    between atoms: C_7  and  C_8
REMARK    6  A    between atoms: C_8  and  O_9
REMARK    7  A    between atoms: C_8  and  C_10
REMARK    8  A    between atoms: C_10  and  C_11
REMARK                            x       y       z     vdW  Elec       q    Type
REMARK                         _______ _______ _______ _____ _____    ______ ____
ROOT
ATOM      1  C   UNL     1      47.472   6.439  13.553  0.00  0.00    +0.000 A 
ATOM      2  C   UNL     1      46.462   7.213  12.967  0.00  0.00    +0.000 A 
ATOM      3  C   UNL     1      45.206   6.669  12.663  0.00  0.00    +0.000 A 
ATOM      4  C   UNL     1      44.944   5.315  12.897  0.00  0.00    +0.000 A 
ATOM      5  C   UNL     1      45.994   4.522  13.386  0.00  0.00    +0.000 A 
ATOM      6  C   UNL     1      47.235   5.076  13.708  0.00  0.00    +0.000 A 
ENDROOT
BRANCH   1   7
ATOM      7  N   UNL     1      48.705   7.044  13.814  0.00  0.00    +0.000 N 
ATOM      8  H   UNL     1      49.437   6.389  13.539  0.00  0.00    +0.000 HD
BRANCH   7  10
ATOM      9  C   UNL     1      49.111   9.112  15.127  0.00  0.00    +0.000 C 
ATOM     10  C   UNL     1      49.014   7.577  15.159  0.00  0.00    +0.000 C 
BRANCH  10  11
ATOM     11  C   UNL     1      50.321   7.027  15.709  0.00  0.00    +0.000 A 
ATOM     12  C   UNL     1      51.567   7.561  15.425  0.00  0.00    +0.000 A 
ATOM     13  S   UNL     1      52.841   6.750  16.221  0.00  0.00    +0.000 S 
ATOM     14  C   UNL     1      51.757   5.682  16.988  0.00  0.00    +0.000 A 
ATOM     15  N   UNL     1      52.199   4.727  17.853  0.00  0.00    +0.000 NA
ATOM     16  C   UNL     1      51.259   4.016  18.380  0.00  0.00    +0.000 A 
ATOM     17  N   UNL     1      49.916   4.160  18.119  0.00  0.00    +0.000 N 
ATOM     18  C   UNL     1      49.422   5.111  17.253  0.00  0.00    +0.000 A 
ATOM     19  O   UNL     1      48.221   5.235  17.048  0.00  0.00    +0.000 OA
ATOM     20  C   UNL     1      50.448   5.934  16.637  0.00  0.00    +0.000 A 
ATOM     21  H   UNL     1      49.237   3.579  18.575  0.00  0.00    +0.000 HD
ENDBRANCH  10  11
ENDBRANCH   7  10
ENDBRANCH   1   7
BRANCH   4  22
ATOM     22  C   UNL     1      43.579   4.728  12.569  0.00  0.00    +0.000 C 
BRANCH  22  23
ATOM     23  O   UNL     1      42.616   5.336  13.435  0.00  0.00    +0.000 OA
ATOM     24  H   UNL     1      41.738   4.993  13.194  0.00  0.00    +0.000 HD
ENDBRANCH  22  23
BRANCH  22  25
ATOM     25  C   UNL     1      43.162   4.960  11.107  0.00  0.00    +0.000 C 
BRANCH  25  26
ATOM     26  C   UNL     1      43.991   4.185  10.127  0.00  0.00    +0.000 A 
ATOM     27  C   UNL     1      44.828   4.848   9.227  0.00  0.00    +0.000 A 
ATOM     28  N   UNL     1      45.631   4.200   8.354  0.00  0.00    +0.000 NA
ATOM     29  C   UNL     1      45.551   2.851   8.402  0.00  0.00    +0.000 A 
ATOM     30  C   UNL     1      44.717   2.186   9.282  0.00  0.00    +0.000 A 
ATOM     31  N   UNL     1      43.923   2.831  10.166  0.00  0.00    +0.000 NA
ENDBRANCH  25  26
ENDBRANCH  22  25
ENDBRANCH   4  22
TORSDOF 7
ENDMDL
MODEL 5
REMARK VINA RESULT:    -7.152      2.422      3.134
REMARK INTER + INTRA:         -10.782
REMARK INTER:                 -10.632
REMARK INTRA:                  -0.150
REMARK UNBOUND:                -0.913
REMARK  Name = 
REMARK  8 active torsions:
REMARK  status: ('A' for Active; 'I' for Inactive)
REMARK    1  A    between atoms: C_1  and  C_2
REMARK    2  A    between atoms: C_2  and  N_3
REMARK    3  A    between atoms: C_2  and  C_19
REMARK    4  A    between atoms: N_3  and  C_4
REMARK    5  A    between atoms: C_7  and  C_8
REMARK    6  A    between atoms: C_8  and  O_9
REMARK    7  A    between atoms: C_8  and  C_10
REMARK    8  A    between atoms: C_10  and  C_11
REMARK                            x       y       z     vdW  Elec       q    Type
REMARK                         _______ _______ _______ _____ _____    ______ ____
ROOT
ATOM      1  C   UNL     1      46.075   5.864  12.794  0.00  0.00    +0.000 A 
ATOM      2  C   UNL     1      45.816   4.499  12.972  0.00  0.00    +0.000 A 
ATOM      3  C   UNL     1      45.181   3.738  11.979  0.00  0.00    +0.000 A 
ATOM      4  C   UNL     1      44.745   4.340  10.794  0.00  0.00    +0.000 A 
ATOM      5  C   UNL     1      44.914   5.728  10.667  0.00  0.00    +0.000 A 
ATOM      6  C   UNL     1      45.568   6.474  11.650  0.00  0.00    +0.000 A 
ENDROOT
BRANCH   1   7
ATOM      7  N   UNL     1      46.698   6.562  13.831  0.00  0.00    +0.000 N 
ATOM      8  H   UNL     1      45.973   7.055  14.354  0.00  0.00    +0.000 HD
BRANCH   7  10
ATOM      9  C   UNL     1      48.956   6.774  12.820  0.00  0.00    +0.000 C 
ATOM     10  C   UNL     1      47.811   7.495  13.551  0.00  0.00    +0.000 C 
BRANCH  10  11
ATOM     11  C   UNL     1      48.373   8.117  14.821  0.00  0.00    +0.000 A 
ATOM     12  C   UNL     1      48.524   9.479  15.016  0.00  0.00    +0.000 A 
ATOM     13  S   UNL     1      49.145   9.871  16.557  0.00  0.00    +0.000 S 
ATOM     14  C   UNL     1      49.200   8.231  17.015  0.00  0.00    +0.000 A 
ATOM     15  N   UNL     1      49.619   7.857  18.255  0.00  0.00    +0.000 NA
ATOM     16  C   UNL     1      49.575   6.584  18.466  0.00  0.00    +0.000 A 
ATOM     17  N   UNL     1      49.160   5.644  17.552  0.00  0.00    +0.000 N 
ATOM     18  C   UNL     1      48.727   5.974  16.286  0.00  0.00    +0.000 A 
ATOM     19  O   UNL     1      48.344   5.123  15.492  0.00  0.00    +0.000 OA
ATOM     20  C   UNL     1      48.761   7.399  16.007  0.00  0.00    +0.000 A 
ATOM     21  H   UNL     1      49.140   4.668  17.787  0.00  0.00    +0.000 HD
ENDBRANCH  10  11
ENDBRANCH   7  10
ENDBRANCH   1   7
BRANCH   4  22
ATOM     22  C   UNL     1      44.059   3.512   9.718  0.00  0.00    +0.000 C 
BRANCH  22  23
ATOM     23  O   UNL     1      44.068   4.269   8.503  0.00  0.00    +0.000 OA
ATOM     24  H   UNL     1      44.735   3.880   7.913  0.00  0.00    +0.000 HD
ENDBRANCH  22  23
BRANCH  22  25
ATOM     25  C   UNL     1      44.745   2.158   9.474  0.00  0.00    +0.000 C 
BRANCH  25  26
ATOM     26  C   UNL     1      45.817   2.220   8.428  0.00  0.00    +0.000 A 
ATOM     27  C   UNL     1      46.401   1.050   7.941  0.00  0.00    +0.000 A 
ATOM     28  N   UNL     1      47.337   1.042   6.966  0.00  0.00    +0.000 NA
ATOM     29  C   UNL     1      47.685   2.265   6.504  0.00  0.00    +0.000 A 
ATOM     30  C   UNL     1      47.121   3.431   6.988  0.00  0.00    +0.000 A 
ATOM     31  N   UNL     1      46.174   3.440   7.953  0.00  0.00    +0.000 NA
ENDBRANCH  25  26
ENDBRANCH  22  25
ENDBRANCH   4  22
TORSDOF 7
ENDMDL
MODEL 6
REMARK VINA RESULT:    -7.051      2.994      8.681
REMARK INTER + INTRA:         -10.643
REMARK INTER:                  -9.691
REMARK INTRA:                  -0.953
REMARK UNBOUND:                -0.913
REMARK  Name = 
REMARK  8 active torsions:
REMARK  status: ('A' for Active; 'I' for Inactive)
REMARK    1  A    between atoms: C_1  and  C_2
REMARK    2  A    between atoms: C_2  and  N_3
REMARK    3  A    between atoms: C_2  and  C_19
REMARK    4  A    between atoms: N_3  and  C_4
REMARK    5  A    between atoms: C_7  and  C_8
REMARK    6  A    between atoms: C_8  and  O_9
REMARK    7  A    between atoms: C_8  and  C_10
REMARK    8  A    between atoms: C_10  and  C_11
REMARK                            x       y       z     vdW  Elec       q    Type
REMARK                         _______ _______ _______ _____ _____    ______ ____
ROOT
ATOM      1  C   UNL     1      47.340   6.558  12.656  0.00  0.00    +0.000 A 
ATOM      2  C   UNL     1      47.121   5.374  13.370  0.00  0.00    +0.000 A 
ATOM      3  C   UNL     1      47.568   5.220  14.690  0.00  0.00    +0.000 A 
ATOM      4  C   UNL     1      48.291   6.241  15.317  0.00  0.00    +0.000 A 
ATOM      5  C   UNL     1      48.598   7.383  14.561  0.00  0.00    +0.000 A 
ATOM      6  C   UNL     1      48.130   7.537  13.254  0.00  0.00    +0.000 A 
ENDROOT
BRANCH   1   7
ATOM      7  N   UNL     1      46.880   6.635  11.338  0.00  0.00    +0.000 N 
ATOM      8  H   UNL     1      47.341   7.430  10.894  0.00  0.00    +0.000 HD
BRANCH   7  10
ATOM      9  C   UNL     1      44.706   7.592  12.063  0.00  0.00    +0.000 C 
ATOM     10  C   UNL     1      45.431   6.691  11.048  0.00  0.00    +0.000 C 
BRANCH  10  11
ATOM     11  C   UNL     1      44.784   5.315  11.084  0.00  0.00    +0.000 A 
ATOM     12  C   UNL     1      43.939   4.882  12.092  0.00  0.00    +0.000 A 
ATOM     13  S   UNL     1      43.340   3.305  11.833  0.00  0.00    +0.000 S 
ATOM     14  C   UNL     1      44.171   3.171  10.351  0.00  0.00    +0.000 A 
ATOM     15  N   UNL     1      44.067   2.053   9.581  0.00  0.00    +0.000 NA
ATOM     16  C   UNL     1      44.727   2.111   8.474  0.00  0.00    +0.000 A 
ATOM     17  N   UNL     1      45.492   3.178   8.063  0.00  0.00    +0.000 N 
ATOM     18  C   UNL     1      45.627   4.330   8.808  0.00  0.00    +0.000 A 
ATOM     19  O   UNL     1      46.299   5.276   8.416  0.00  0.00    +0.000 OA
ATOM     20  C   UNL     1      44.899   4.306  10.064  0.00  0.00    +0.000 A 
ATOM     21  H   UNL     1      45.971   3.161   7.181  0.00  0.00    +0.000 HD
ENDBRANCH  10  11
ENDBRANCH   7  10
ENDBRANCH   1   7
BRANCH   4  22
ATOM     22  C   UNL     1      48.772   6.073  16.751  0.00  0.00    +0.000 C 
BRANCH  22  23
ATOM     23  O   UNL     1      48.211   7.132  17.533  0.00  0.00    +0.000 OA
ATOM     24  H   UNL     1      48.926   7.755  17.750  0.00  0.00    +0.000 HD
ENDBRANCH  22  23
BRANCH  22  25
ATOM     25  C   UNL     1      48.369   4.723  17.364  0.00  0.00    +0.000 C 
BRANCH  25  26
ATOM     26  C   UNL     1      49.494   3.732  17.401  0.00  0.00    +0.000 A 
ATOM     27  C   UNL     1      49.316   2.440  16.903  0.00  0.00    +0.000 A 
ATOM     28  N   UNL     1      50.306   1.520  16.868  0.00  0.00    +0.000 NA
ATOM     29  C   UNL     1      51.489   1.940  17.372  0.00  0.00    +0.000 A 
ATOM     30  C   UNL     1      51.672   3.215  17.877  0.00  0.00    +0.000 A 
ATOM     31  N   UNL     1      50.687   4.141  17.901  0.00  0.00    +0.000 NA
ENDBRANCH  25  26
ENDBRANCH  22  25
ENDBRANCH   4  22
TORSDOF 7
ENDMDL
MODEL 7
REMARK VINA RESULT:    -6.857      3.291      8.960
REMARK INTER + INTRA:         -10.375
REMARK INTER:                  -9.243
REMARK INTRA:                  -1.132
REMARK UNBOUND:                -0.913
REMARK  Name = 
REMARK  8 active torsions:
REMARK  status: ('A' for Active; 'I' for Inactive)
REMARK    1  A    between atoms: C_1  and  C_2
REMARK    2  A    between atoms: C_2  and  N_3
REMARK    3  A    between atoms: C_2  and  C_19
REMARK    4  A    between atoms: N_3  and  C_4
REMARK    5  A    between atoms: C_7  and  C_8
REMARK    6  A    between atoms: C_8  and  O_9
REMARK    7  A    between atoms: C_8  and  C_10
REMARK    8  A    between atoms: C_10  and  C_11
REMARK                            x       y       z     vdW  Elec       q    Type
REMARK                         _______ _______ _______ _____ _____    ______ ____
ROOT
ATOM      1  C   UNL     1      48.660   6.436  15.665  0.00  0.00    +0.000 A 
ATOM      2  C   UNL     1      48.321   5.383  16.524  0.00  0.00    +0.000 A 
ATOM      3  C   UNL     1      49.194   4.952  17.533  0.00  0.00    +0.000 A 
ATOM      4  C   UNL     1      50.457   5.539  17.678  0.00  0.00    +0.000 A 
ATOM      5  C   UNL     1      50.830   6.520  16.747  0.00  0.00    +0.000 A 
ATOM      6  C   UNL     1      49.946   6.960  15.759  0.00  0.00    +0.000 A 
ENDROOT
BRANCH   1   7
ATOM      7  N   UNL     1      47.747   6.802  14.672  0.00  0.00    +0.000 N 
ATOM      8  H   UNL     1      46.808   6.697  15.059  0.00  0.00    +0.000 HD
BRANCH   7  10
ATOM      9  C   UNL     1      48.736   6.945  12.399  0.00  0.00    +0.000 C 
ATOM     10  C   UNL     1      47.792   6.171  13.335  0.00  0.00    +0.000 C 
BRANCH  10  11
ATOM     11  C   UNL     1      46.419   6.109  12.683  0.00  0.00    +0.000 A 
ATOM     12  C   UNL     1      45.795   7.191  12.086  0.00  0.00    +0.000 A 
ATOM     13  S   UNL     1      44.279   6.799  11.406  0.00  0.00    +0.000 S 
ATOM     14  C   UNL     1      44.430   5.166  11.868  0.00  0.00    +0.000 A 
ATOM     15  N   UNL     1      43.468   4.253  11.562  0.00  0.00    +0.000 NA
ATOM     16  C   UNL     1      43.738   3.051  11.948  0.00  0.00    +0.000 A 
ATOM     17  N   UNL     1      44.876   2.672  12.621  0.00  0.00    +0.000 N 
ATOM     18  C   UNL     1      45.877   3.560  12.952  0.00  0.00    +0.000 A 
ATOM     19  O   UNL     1      46.892   3.200  13.536  0.00  0.00    +0.000 OA
ATOM     20  C   UNL     1      45.613   4.926  12.535  0.00  0.00    +0.000 A 
ATOM     21  H   UNL     1      45.028   1.715  12.881  0.00  0.00    +0.000 HD
ENDBRANCH  10  11
ENDBRANCH   7  10
ENDBRANCH   1   7
BRANCH   4  22
ATOM     22  C   UNL     1      51.401   5.071  18.776  0.00  0.00    +0.000 C 
BRANCH  22  23
ATOM     23  O   UNL     1      50.751   4.022  19.501  0.00  0.00    +0.000 OA
ATOM     24  H   UNL     1      50.028   4.419  20.018  0.00  0.00    +0.000 HD
ENDBRANCH  22  23
BRANCH  22  25
ATOM     25  C   UNL     1      52.742   4.553  18.232  0.00  0.00    +0.000 C 
BRANCH  25  26
ATOM     26  C   UNL     1      52.814   3.056  18.168  0.00  0.00    +0.000 A 
ATOM     27  C   UNL     1      53.818   2.366  18.849  0.00  0.00    +0.000 A 
ATOM     28  N   UNL     1      53.904   1.017  18.864  0.00  0.00    +0.000 NA
ATOM     29  C   UNL     1      52.950   0.378  18.150  0.00  0.00    +0.000 A 
ATOM     30  C   UNL     1      51.958   1.054  17.463  0.00  0.00    +0.000 A 
ATOM     31  N   UNL     1      51.861   2.403  17.457  0.00  0.00    +0.000 NA
ENDBRANCH  25  26
ENDBRANCH  22  25
ENDBRANCH   4  22
TORSDOF 7
ENDMDL
MODEL 8
REMARK VINA RESULT:    -6.578      3.018      4.014
REMARK INTER + INTRA:          -9.990
REMARK INTER:                  -8.897
REMARK INTRA:                  -1.093
REMARK UNBOUND:                -0.913
REMARK  Name = 
REMARK  8 active torsions:
REMARK  status: ('A' for Active; 'I' for Inactive)
REMARK    1  A    between atoms: C_1  and  C_2
REMARK    2  A    between atoms: C_2  and  N_3
REMARK    3  A    between atoms: C_2  and  C_19
REMARK    4  A    between atoms: N_3  and  C_4
REMARK    5  A    between atoms: C_7  and  C_8
REMARK    6  A    between atoms: C_8  and  O_9
REMARK    7  A    between atoms: C_8  and  C_10
REMARK    8  A    between atoms: C_10  and  C_11
REMARK                            x       y       z     vdW  Elec       q    Type
REMARK                         _______ _______ _______ _____ _____    ______ ____
ROOT
ATOM      1  C   UNL     1      47.391   7.175  13.426  0.00  0.00    +0.000 A 
ATOM      2  C   UNL     1      46.316   7.774  12.757  0.00  0.00    +0.000 A 
ATOM      3  C   UNL     1      45.143   7.061  12.469  0.00  0.00    +0.000 A 
ATOM      4  C   UNL     1      45.035   5.707  12.806  0.00  0.00    +0.000 A 
ATOM      5  C   UNL     1      46.154   5.087  13.381  0.00  0.00    +0.000 A 
ATOM      6  C   UNL     1      47.310   5.809  13.685  0.00  0.00    +0.000 A 
ENDROOT
BRANCH   1   7
ATOM      7  N   UNL     1      48.534   7.941  13.666  0.00  0.00    +0.000 N 
ATOM      8  H   UNL     1      49.347   7.343  13.512  0.00  0.00    +0.000 HD
BRANCH   7  10
ATOM      9  C   UNL     1      49.511   9.958  14.736  0.00  0.00    +0.000 C 
ATOM     10  C   UNL     1      48.702   8.666  14.945  0.00  0.00    +0.000 C 
BRANCH  10  11
ATOM     11  C   UNL     1      49.412   7.823  15.993  0.00  0.00    +0.000 A 
ATOM     12  C   UNL     1      50.404   6.901  15.706  0.00  0.00    +0.000 A 
ATOM     13  S   UNL     1      51.036   6.140  17.097  0.00  0.00    +0.000 S 
ATOM     14  C   UNL     1      50.018   7.044  18.123  0.00  0.00    +0.000 A 
ATOM     15  N   UNL     1      50.069   6.897  19.475  0.00  0.00    +0.000 NA
ATOM     16  C   UNL     1      49.263   7.672  20.121  0.00  0.00    +0.000 A 
ATOM     17  N   UNL     1      48.400   8.575  19.544  0.00  0.00    +0.000 N 
ATOM     18  C   UNL     1      48.314   8.758  18.180  0.00  0.00    +0.000 A 
ATOM     19  O   UNL     1      47.553   9.580  17.687  0.00  0.00    +0.000 OA
ATOM     20  C   UNL     1      49.206   7.905  17.416  0.00  0.00    +0.000 A 
ATOM     21  H   UNL     1      47.808   9.156  20.108  0.00  0.00    +0.000 HD
ENDBRANCH  10  11
ENDBRANCH   7  10
ENDBRANCH   1   7
BRANCH   4  22
ATOM     22  C   UNL     1      43.760   4.938  12.495  0.00  0.00    +0.000 C 
BRANCH  22  23
ATOM     23  O   UNL     1      42.730   5.416  13.365  0.00  0.00    +0.000 OA
ATOM     24  H   UNL     1      43.157   5.832  14.134  0.00  0.00    +0.000 HD
ENDBRANCH  22  23
BRANCH  22  25
ATOM     25  C   UNL     1      43.303   5.098  11.036  0.00  0.00    +0.000 C 
BRANCH  25  26
ATOM     26  C   UNL     1      44.075   4.240  10.078  0.00  0.00    +0.000 A 
ATOM     27  C   UNL     1      44.929   4.819   9.138  0.00  0.00    +0.000 A 
ATOM     28  N   UNL     1      45.684   4.095   8.282  0.00  0.00    +0.000 NA
ATOM     29  C   UNL     1      45.536   2.754   8.390  0.00  0.00    +0.000 A 
ATOM     30  C   UNL     1      44.684   2.172   9.311  0.00  0.00    +0.000 A 
ATOM     31  N   UNL     1      43.939   2.894  10.177  0.00  0.00    +0.000 NA
ENDBRANCH  25  26
ENDBRANCH  22  25
ENDBRANCH   4  22
TORSDOF 7
ENDMDL
MODEL 9
REMARK VINA RESULT:    -6.554      4.363      5.620
REMARK INTER + INTRA:          -9.958
REMARK INTER:                  -9.082
REMARK INTRA:                  -0.876
REMARK UNBOUND:                -0.913
REMARK  Name = 
REMARK  8 active torsions:
REMARK  status: ('A' for Active; 'I' for Inactive)
REMARK    1  A    between atoms: C_1  and  C_2
REMARK    2  A    between atoms: C_2  and  N_3
REMARK    3  A    between atoms: C_2  and  C_19
REMARK    4  A    between atoms: N_3  and  C_4
REMARK    5  A    between atoms: C_7  and  C_8
REMARK    6  A    between atoms: C_8  and  O_9
REMARK    7  A    between atoms: C_8  and  C_10
REMARK    8  A    between atoms: C_10  and  C_11
REMARK                            x       y       z     vdW  Elec       q    Type
REMARK                         _______ _______ _______ _____ _____    ______ ____
ROOT
ATOM      1  C   UNL     1      46.981   6.034  13.559  0.00  0.00    +0.000 A 
ATOM      2  C   UNL     1      46.189   6.318  12.439  0.00  0.00    +0.000 A 
ATOM      3  C   UNL     1      45.458   5.315  11.785  0.00  0.00    +0.000 A 
ATOM      4  C   UNL     1      45.539   3.985  12.212  0.00  0.00    +0.000 A 
ATOM      5  C   UNL     1      46.415   3.692  13.268  0.00  0.00    +0.000 A 
ATOM      6  C   UNL     1      47.122   4.699  13.929  0.00  0.00    +0.000 A 
ENDROOT
BRANCH   1   7
ATOM      7  N   UNL     1      47.694   7.080  14.151  0.00  0.00    +0.000 N 
ATOM      8  H   UNL     1      47.054   7.868  14.260  0.00  0.00    +0.000 HD
BRANCH   7  10
ATOM      9  C   UNL     1      50.038   7.736  14.639  0.00  0.00    +0.000 C 
ATOM     10  C   UNL     1      48.959   7.562  13.556  0.00  0.00    +0.000 C 
BRANCH  10  11
ATOM     11  C   UNL     1      48.786   8.891  12.837  0.00  0.00    +0.000 A 
ATOM     12  C   UNL     1      47.736   9.764  13.064  0.00  0.00    +0.000 A 
ATOM     13  S   UNL     1      47.838  11.192  12.134  0.00  0.00    +0.000 S 
ATOM     14  C   UNL     1      49.305  10.693  11.425  0.00  0.00    +0.000 A 
ATOM     15  N   UNL     1      49.963  11.483  10.532  0.00  0.00    +0.000 NA
ATOM     16  C   UNL     1      51.076  10.985  10.107  0.00  0.00    +0.000 A 
ATOM     17  N   UNL     1      51.592   9.766  10.480  0.00  0.00    +0.000 N 
ATOM     18  C   UNL     1      50.962   8.932  11.379  0.00  0.00    +0.000 A 
ATOM     19  O   UNL     1      51.447   7.858  11.712  0.00  0.00    +0.000 OA
ATOM     20  C   UNL     1      49.705   9.455  11.883  0.00  0.00    +0.000 A 
ATOM     21  H   UNL     1      52.471   9.445  10.117  0.00  0.00    +0.000 HD
ENDBRANCH  10  11
ENDBRANCH   7  10
ENDBRANCH   1   7
BRANCH   4  22
ATOM     22  C   UNL     1      44.743   2.900  11.503  0.00  0.00    +0.000 C 
BRANCH  22  23
ATOM     23  O   UNL     1      43.637   2.544  12.339  0.00  0.00    +0.000 OA
ATOM     24  H   UNL     1      43.273   1.704  12.011  0.00  0.00    +0.000 HD
ENDBRANCH  22  23
BRANCH  22  25
ATOM     25  C   UNL     1      44.214   3.345  10.129  0.00  0.00    +0.000 C 
BRANCH  25  26
ATOM     26  C   UNL     1      45.176   3.073   9.011  0.00  0.00    +0.000 A 
ATOM     27  C   UNL     1      45.659   1.782   8.792  0.00  0.00    +0.000 A 
ATOM     28  N   UNL     1      46.491   1.470   7.773  0.00  0.00    +0.000 NA
ATOM     29  C   UNL     1      46.839   2.512   6.984  0.00  0.00    +0.000 A 
ATOM     30  C   UNL     1      46.374   3.796   7.200  0.00  0.00    +0.000 A 
ATOM     31  N   UNL     1      45.531   4.109   8.210  0.00  0.00    +0.000 NA
ENDBRANCH  25  26
ENDBRANCH  22  25
ENDBRANCH   4  22
TORSDOF 7
ENDMDL
