MODEL 1
REMARK VINA RESULT:    -7.650      0.000      0.000
REMARK INTER + INTRA:         -11.149
REMARK INTER:                 -10.334
REMARK INTRA:                  -0.815
REMARK UNBOUND:                -0.815
REMARK  Name = 
REMARK  8 active torsions:
REMARK  status: ('A' for Active; 'I' for Inactive)
REMARK    1  A    between atoms: C_1  and  N_2
REMARK    2  A    between atoms: C_4  and  C_5
REMARK    3  A    between atoms: N_7  and  C_8
REMARK    4  A    between atoms: C_8  and  C_9
REMARK    5  A    between atoms: C_12  and  C_13
REMARK    6  A    between atoms: C_13  and  S_14
REMARK    7  A    between atoms: S_14  and  N_15
REMARK    8  A    between atoms: C_21  and  O_22
REMARK                            x       y       z     vdW  Elec       q    Type
REMARK                         _______ _______ _______ _____ _____    ______ ____
ROOT
ATOM      1  C   UNL     1      46.481   4.414  13.492  0.00  0.00    +0.000 C 
ATOM      2  O   UNL     1      46.555   3.201  13.662  0.00  0.00    +0.000 OA
ATOM      3  N   UNL     1      45.549   5.004  12.673  0.00  0.00    +0.000 N 
ATOM      4  H   UNL     1      45.506   6.007  12.603  0.00  0.00    +0.000 HD
ENDROOT
BRANCH   1   8
ATOM      5  C   UNL     1      49.670   8.146  14.499  0.00  0.00    +0.000 C 
ATOM      6  N   UNL     1      48.816   6.989  14.650  0.00  0.00    +0.000 N 
ATOM      7  C   UNL     1      48.068   6.419  13.650  0.00  0.00    +0.000 A 
ATOM      8  C   UNL     1      47.391   5.329  14.180  0.00  0.00    +0.000 A 
ATOM      9  C   UNL     1      47.757   5.256  15.566  0.00  0.00    +0.000 A 
ATOM     10  C   UNL     1      47.465   4.441  16.666  0.00  0.00    +0.000 A 
ATOM     11  N   UNL     1      48.024   4.685  17.864  0.00  0.00    +0.000 NA
ATOM     12  C   UNL     1      48.863   5.729  17.957  0.00  0.00    +0.000 A 
ATOM     13  N   UNL     1      49.229   6.589  16.990  0.00  0.00    +0.000 NA
ATOM     14  C   UNL     1      48.641   6.300  15.816  0.00  0.00    +0.000 A 
BRANCH  10  15
ATOM     15  O   UNL     1      46.618   3.361  16.626  0.00  0.00    +0.000 OA
ATOM     16  H   UNL     1      46.543   3.075  15.692  0.00  0.00    +0.000 HD
ENDBRANCH  10  15
ENDBRANCH   1   8
BRANCH   3  17
ATOM     17  C   UNL     1      44.569   4.229  11.948  0.00  0.00    +0.000 C 
BRANCH  17  18
ATOM     18  C   UNL     1      44.983   3.945  10.525  0.00  0.00    +0.000 A 
ATOM     19  C   UNL     1      44.871   2.647  10.011  0.00  0.00    +0.000 A 
ATOM     20  C   UNL     1      45.220   2.360   8.687  0.00  0.00    +0.000 A 
ATOM     21  C   UNL     1      45.698   3.369   7.839  0.00  0.00    +0.000 A 
ATOM     22  C   UNL     1      45.830   4.665   8.362  0.00  0.00    +0.000 A 
ATOM     23  C   UNL     1      45.479   4.951   9.688  0.00  0.00    +0.000 A 
BRANCH  21  24
ATOM     24  C   UNL     1      46.170   3.078   6.434  0.00  0.00    +0.000 C 
BRANCH  24  25
ATOM     25  S   UNL     1      47.551   1.927   6.375  0.00  0.00    +0.000 S 
ATOM     26  O   UNL     1      48.610   2.468   7.205  0.00  0.00    +0.000 OA
ATOM     27  O   UNL     1      47.080   0.572   6.551  0.00  0.00    +0.000 OA
BRANCH  25  28
ATOM     28  N   UNL     1      48.096   2.052   4.807  0.00  0.00    +0.000 NA
ATOM     29  H   UNL     1      47.730   1.368   4.147  0.00  0.00    +0.000 HD
ATOM     30  H   UNL     1      49.045   2.395   4.700  0.00  0.00    +0.000 HD
ENDBRANCH  25  28
ENDBRANCH  24  25
ENDBRANCH  21  24
ENDBRANCH  17  18
ENDBRANCH   3  17
TORSDOF 7
ENDMDL
MODEL 2
REMARK VINA RESULT:    -7.420      1.144      2.642
REMARK INTER + INTRA:         -10.838
REMARK INTER:                 -10.036
REMARK INTRA:                  -0.802
REMARK UNBOUND:                -0.815
REMARK  Name = 
REMARK  8 active torsions:
REMARK  status: ('A' for Active; 'I' for Inactive)
REMARK    1  A    between atoms: C_1  and  N_2
REMARK    2  A    between atoms: C_4  and  C_5
REMARK    3  A    between atoms: N_7  and  C_8
REMARK    4  A    between atoms: C_8  and  C_9
REMARK    5  A    between atoms: C_12  and  C_13
REMARK    6  A    between atoms: C_13  and  S_14
REMARK    7  A    between atoms: S_14  and  N_15
REMARK    8  A    between atoms: C_21  and  O_22
REMARK                            x       y       z     vdW  Elec       q    Type
REMARK                         _______ _______ _______ _____ _____    ______ ____
ROOT
ATOM      1  C   UNL     1      45.947   4.056  13.198  0.00  0.00    +0.000 C 
ATOM      2  O   UNL     1      46.050   2.847  13.009  0.00  0.00    +0.000 OA
ATOM      3  N   UNL     1      44.983   4.831  12.601  0.00  0.00    +0.000 N 
ATOM      4  H   UNL     1      44.918   5.811  12.825  0.00  0.00    +0.000 HD
ENDROOT
BRANCH   1   8
ATOM      5  C   UNL     1      48.634   5.382  17.214  0.00  0.00    +0.000 C 
ATOM      6  N   UNL     1      48.065   5.366  15.886  0.00  0.00    +0.000 N 
ATOM      7  C   UNL     1      47.176   4.431  15.414  0.00  0.00    +0.000 A 
ATOM      8  C   UNL     1      46.856   4.757  14.103  0.00  0.00    +0.000 A 
ATOM      9  C   UNL     1      47.599   5.944  13.785  0.00  0.00    +0.000 A 
ATOM     10  C   UNL     1      47.757   6.795  12.685  0.00  0.00    +0.000 A 
ATOM     11  N   UNL     1      48.571   7.862  12.759  0.00  0.00    +0.000 NA
ATOM     12  C   UNL     1      49.216   8.073  13.917  0.00  0.00    +0.000 A 
ATOM     13  N   UNL     1      49.158   7.342  15.045  0.00  0.00    +0.000 NA
ATOM     14  C   UNL     1      48.332   6.289  14.914  0.00  0.00    +0.000 A 
BRANCH  10  15
ATOM     15  O   UNL     1      47.122   6.627  11.479  0.00  0.00    +0.000 OA
ATOM     16  H   UNL     1      46.768   7.499  11.205  0.00  0.00    +0.000 HD
ENDBRANCH  10  15
ENDBRANCH   1   8
BRANCH   3  17
ATOM     17  C   UNL     1      44.000   4.272  11.702  0.00  0.00    +0.000 C 
BRANCH  17  18
ATOM     18  C   UNL     1      44.570   3.941  10.344  0.00  0.00    +0.000 A 
ATOM     19  C   UNL     1      45.195   4.940   9.587  0.00  0.00    +0.000 A 
ATOM     20  C   UNL     1      45.757   4.655   8.338  0.00  0.00    +0.000 A 
ATOM     21  C   UNL     1      45.705   3.358   7.810  0.00  0.00    +0.000 A 
ATOM     22  C   UNL     1      45.061   2.363   8.561  0.00  0.00    +0.000 A 
ATOM     23  C   UNL     1      44.498   2.649   9.812  0.00  0.00    +0.000 A 
BRANCH  21  24
ATOM     24  C   UNL     1      46.221   3.034   6.426  0.00  0.00    +0.000 C 
BRANCH  24  25
ATOM     25  S   UNL     1      47.524   1.795   6.429  0.00  0.00    +0.000 S 
ATOM     26  O   UNL     1      48.492   2.177   7.438  0.00  0.00    +0.000 OA
ATOM     27  O   UNL     1      46.952   0.467   6.404  0.00  0.00    +0.000 OA
BRANCH  25  28
ATOM     28  N   UNL     1      48.282   2.023   4.964  0.00  0.00    +0.000 NA
ATOM     29  H   UNL     1      48.003   2.848   4.436  0.00  0.00    +0.000 HD
ATOM     30  H   UNL     1      48.544   1.176   4.470  0.00  0.00    +0.000 HD
ENDBRANCH  25  28
ENDBRANCH  24  25
ENDBRANCH  21  24
ENDBRANCH  17  18
ENDBRANCH   3  17
TORSDOF 7
ENDMDL
MODEL 3
REMARK VINA RESULT:    -7.164      2.913      4.101
REMARK INTER + INTRA:         -10.492
REMARK INTER:                  -9.669
REMARK INTRA:                  -0.823
REMARK UNBOUND:                -0.815
REMARK  Name = 
REMARK  8 active torsions:
REMARK  status: ('A' for Active; 'I' for Inactive)
REMARK    1  A    between atoms: C_1  and  N_2
REMARK    2  A    between atoms: C_4  and  C_5
REMARK    3  A    between atoms: N_7  and  C_8
REMARK    4  A    between atoms: C_8  and  C_9
REMARK    5  A    between atoms: C_12  and  C_13
REMARK    6  A    between atoms: C_13  and  S_14
REMARK    7  A    between atoms: S_14  and  N_15
REMARK    8  A    between atoms: C_21  and  O_22
REMARK                            x       y       z     vdW  Elec       q    Type
REMARK                         _______ _______ _______ _____ _____    ______ ____
ROOT
ATOM      1  C   UNL     1      48.691   6.814  14.621  0.00  0.00    +0.000 C 
ATOM      2  O   UNL     1      49.403   6.647  13.635  0.00  0.00    +0.000 OA
ATOM      3  N   UNL     1      47.529   7.546  14.594  0.00  0.00    +0.000 N 
ATOM      4  H   UNL     1      46.961   7.616  15.422  0.00  0.00    +0.000 HD
ENDROOT
BRANCH   1   8
ATOM      5  C   UNL     1      50.931   5.798  18.987  0.00  0.00    +0.000 C 
ATOM      6  N   UNL     1      50.022   5.749  17.864  0.00  0.00    +0.000 N 
ATOM      7  C   UNL     1      50.062   6.581  16.772  0.00  0.00    +0.000 A 
ATOM      8  C   UNL     1      49.036   6.218  15.910  0.00  0.00    +0.000 A 
ATOM      9  C   UNL     1      48.353   5.117  16.530  0.00  0.00    +0.000 A 
ATOM     10  C   UNL     1      47.266   4.285  16.237  0.00  0.00    +0.000 A 
ATOM     11  N   UNL     1      46.902   3.313  17.092  0.00  0.00    +0.000 NA
ATOM     12  C   UNL     1      47.617   3.176  18.219  0.00  0.00    +0.000 A 
ATOM     13  N   UNL     1      48.676   3.900  18.624  0.00  0.00    +0.000 NA
ATOM     14  C   UNL     1      48.995   4.857  17.735  0.00  0.00    +0.000 A 
BRANCH  10  15
ATOM     15  O   UNL     1      46.502   4.379  15.101  0.00  0.00    +0.000 OA
ATOM     16  H   UNL     1      46.804   3.684  14.481  0.00  0.00    +0.000 HD
ENDBRANCH  10  15
ENDBRANCH   1   8
BRANCH   3  17
ATOM     17  C   UNL     1      47.048   8.174  13.385  0.00  0.00    +0.000 C 
BRANCH  17  18
ATOM     18  C   UNL     1      46.249   7.236  12.515  0.00  0.00    +0.000 A 
ATOM     19  C   UNL     1      44.959   6.852  12.904  0.00  0.00    +0.000 A 
ATOM     20  C   UNL     1      44.184   6.006  12.103  0.00  0.00    +0.000 A 
ATOM     21  C   UNL     1      44.683   5.517  10.888  0.00  0.00    +0.000 A 
ATOM     22  C   UNL     1      45.983   5.886  10.510  0.00  0.00    +0.000 A 
ATOM     23  C   UNL     1      46.758   6.733  11.313  0.00  0.00    +0.000 A 
BRANCH  21  24
ATOM     24  C   UNL     1      43.910   4.530  10.044  0.00  0.00    +0.000 C 
BRANCH  24  25
ATOM     25  S   UNL     1      44.038   2.837  10.638  0.00  0.00    +0.000 S 
ATOM     26  O   UNL     1      42.857   2.560  11.432  0.00  0.00    +0.000 OA
ATOM     27  O   UNL     1      44.441   1.959   9.563  0.00  0.00    +0.000 OA
BRANCH  25  28
ATOM     28  N   UNL     1      45.306   2.897  11.716  0.00  0.00    +0.000 NA
ATOM     29  H   UNL     1      45.069   3.135  12.677  0.00  0.00    +0.000 HD
ATOM     30  H   UNL     1      46.195   3.197  11.329  0.00  0.00    +0.000 HD
ENDBRANCH  25  28
ENDBRANCH  24  25
ENDBRANCH  21  24
ENDBRANCH  17  18
ENDBRANCH   3  17
TORSDOF 7
ENDMDL
MODEL 4
REMARK VINA RESULT:    -6.955      4.467      8.862
REMARK INTER + INTRA:         -10.209
REMARK INTER:                  -9.371
REMARK INTRA:                  -0.839
REMARK UNBOUND:                -0.815
REMARK  Name = 
REMARK  8 active torsions:
REMARK  status: ('A' for Active; 'I' for Inactive)
REMARK    1  A    between atoms: C_1  and  N_2
REMARK    2  A    between atoms: C_4  and  C_5
REMARK    3  A    between atoms: N_7  and  C_8
REMARK    4  A    between atoms: C_8  and  C_9
REMARK    5  A    between atoms: C_12  and  C_13
REMARK    6  A    between atoms: C_13  and  S_14
REMARK    7  A    between atoms: S_14  and  N_15
REMARK    8  A    between atoms: C_21  and  O_22
REMARK                            x       y       z     vdW  Elec       q    Type
REMARK                         _______ _______ _______ _____ _____    ______ ____
ROOT
ATOM      1  C   UNL     1      46.957   4.021  14.555  0.00  0.00    +0.000 C 
ATOM      2  O   UNL     1      47.459   2.982  14.138  0.00  0.00    +0.000 OA
ATOM      3  N   UNL     1      46.850   4.322  15.891  0.00  0.00    +0.000 N 
ATOM      4  H   UNL     1      46.468   5.208  16.177  0.00  0.00    +0.000 HD
ENDROOT
BRANCH   1   8
ATOM      5  C   UNL     1      46.167   8.336  12.131  0.00  0.00    +0.000 C 
ATOM      6  N   UNL     1      46.078   6.952  12.539  0.00  0.00    +0.000 N 
ATOM      7  C   UNL     1      46.820   6.368  13.536  0.00  0.00    +0.000 A 
ATOM      8  C   UNL     1      46.445   5.034  13.634  0.00  0.00    +0.000 A 
ATOM      9  C   UNL     1      45.431   4.821  12.639  0.00  0.00    +0.000 A 
ATOM     10  C   UNL     1      44.636   3.760  12.192  0.00  0.00    +0.000 A 
ATOM     11  N   UNL     1      43.752   3.943  11.195  0.00  0.00    +0.000 NA
ATOM     12  C   UNL     1      43.666   5.170  10.658  0.00  0.00    +0.000 A 
ATOM     13  N   UNL     1      44.364   6.271  10.987  0.00  0.00    +0.000 NA
ATOM     14  C   UNL     1      45.232   6.032  11.985  0.00  0.00    +0.000 A 
BRANCH  10  15
ATOM     15  O   UNL     1      44.681   2.488  12.706  0.00  0.00    +0.000 OA
ATOM     16  H   UNL     1      45.340   2.483  13.431  0.00  0.00    +0.000 HD
ENDBRANCH  10  15
ENDBRANCH   1   8
BRANCH   3  17
ATOM     17  C   UNL     1      47.335   3.428  16.917  0.00  0.00    +0.000 C 
BRANCH  17  18
ATOM     18  C   UNL     1      48.814   3.579  17.175  0.00  0.00    +0.000 A 
ATOM     19  C   UNL     1      49.365   4.854  17.353  0.00  0.00    +0.000 A 
ATOM     20  C   UNL     1      50.728   5.022  17.622  0.00  0.00    +0.000 A 
ATOM     21  C   UNL     1      51.580   3.913  17.716  0.00  0.00    +0.000 A 
ATOM     22  C   UNL     1      51.030   2.637  17.517  0.00  0.00    +0.000 A 
ATOM     23  C   UNL     1      49.665   2.470  17.248  0.00  0.00    +0.000 A 
BRANCH  21  24
ATOM     24  C   UNL     1      53.070   4.062  17.914  0.00  0.00    +0.000 C 
BRANCH  24  25
ATOM     25  S   UNL     1      53.622   3.547  19.547  0.00  0.00    +0.000 S 
ATOM     26  O   UNL     1      52.762   4.188  20.524  0.00  0.00    +0.000 OA
ATOM     27  O   UNL     1      53.850   2.120  19.571  0.00  0.00    +0.000 OA
BRANCH  25  28
ATOM     28  N   UNL     1      55.110   4.278  19.704  0.00  0.00    +0.000 NA
ATOM     29  H   UNL     1      55.184   5.000  20.418  0.00  0.00    +0.000 HD
ATOM     30  H   UNL     1      55.648   4.361  18.848  0.00  0.00    +0.000 HD
ENDBRANCH  25  28
ENDBRANCH  24  25
ENDBRANCH  21  24
ENDBRANCH  17  18
ENDBRANCH   3  17
TORSDOF 7
ENDMDL
MODEL 5
REMARK VINA RESULT:    -6.782      4.375      8.350
REMARK INTER + INTRA:          -9.977
REMARK INTER:                  -9.603
REMARK INTRA:                  -0.374
REMARK UNBOUND:                -0.815
REMARK  Name = 
REMARK  8 active torsions:
REMARK  status: ('A' for Active; 'I' for Inactive)
REMARK    1  A    between atoms: C_1  and  N_2
REMARK    2  A    between atoms: C_4  and  C_5
REMARK    3  A    between atoms: N_7  and  C_8
REMARK    4  A    between atoms: C_8  and  C_9
REMARK    5  A    between atoms: C_12  and  C_13
REMARK    6  A    between atoms: C_13  and  S_14
REMARK    7  A    between atoms: S_14  and  N_15
REMARK    8  A    between atoms: C_21  and  O_22
REMARK                            x       y       z     vdW  Elec       q    Type
REMARK                         _______ _______ _______ _____ _____    ______ ____
ROOT
ATOM      1  C   UNL     1      48.353   6.420  14.745  0.00  0.00    +0.000 C 
ATOM      2  O   UNL     1      49.495   6.728  14.418  0.00  0.00    +0.000 OA
ATOM      3  N   UNL     1      47.997   6.108  16.034  0.00  0.00    +0.000 N 
ATOM      4  H   UNL     1      47.036   5.903  16.254  0.00  0.00    +0.000 HD
ENDROOT
BRANCH   1   8
ATOM      5  C   UNL     1      44.866   7.743  11.397  0.00  0.00    +0.000 C 
ATOM      6  N   UNL     1      45.710   6.950  12.263  0.00  0.00    +0.000 N 
ATOM      7  C   UNL     1      46.691   7.445  13.087  0.00  0.00    +0.000 A 
ATOM      8  C   UNL     1      47.272   6.380  13.761  0.00  0.00    +0.000 A 
ATOM      9  C   UNL     1      46.600   5.194  13.307  0.00  0.00    +0.000 A 
ATOM     10  C   UNL     1      46.665   3.818  13.552  0.00  0.00    +0.000 A 
ATOM     11  N   UNL     1      45.835   2.972  12.916  0.00  0.00    +0.000 NA
ATOM     12  C   UNL     1      44.955   3.498  12.050  0.00  0.00    +0.000 A 
ATOM     13  N   UNL     1      44.786   4.792  11.721  0.00  0.00    +0.000 NA
ATOM     14  C   UNL     1      45.640   5.591  12.383  0.00  0.00    +0.000 A 
BRANCH  10  15
ATOM     15  O   UNL     1      47.542   3.227  14.427  0.00  0.00    +0.000 OA
ATOM     16  H   UNL     1      47.312   3.530  15.330  0.00  0.00    +0.000 HD
ENDBRANCH  10  15
ENDBRANCH   1   8
BRANCH   3  17
ATOM     17  C   UNL     1      48.953   6.129  17.118  0.00  0.00    +0.000 C 
BRANCH  17  18
ATOM     18  C   UNL     1      49.720   4.836  17.247  0.00  0.00    +0.000 A 
ATOM     19  C   UNL     1      49.038   3.613  17.213  0.00  0.00    +0.000 A 
ATOM     20  C   UNL     1      49.727   2.398  17.302  0.00  0.00    +0.000 A 
ATOM     21  C   UNL     1      51.122   2.375  17.431  0.00  0.00    +0.000 A 
ATOM     22  C   UNL     1      51.802   3.602  17.485  0.00  0.00    +0.000 A 
ATOM     23  C   UNL     1      51.111   4.818  17.396  0.00  0.00    +0.000 A 
BRANCH  21  24
ATOM     24  C   UNL     1      51.889   1.087  17.620  0.00  0.00    +0.000 C 
BRANCH  24  25
ATOM     25  S   UNL     1      53.572   1.343  18.201  0.00  0.00    +0.000 S 
ATOM     26  O   UNL     1      54.396   1.633  17.044  0.00  0.00    +0.000 OA
ATOM     27  O   UNL     1      53.575   2.208  19.359  0.00  0.00    +0.000 OA
BRANCH  25  28
ATOM     28  N   UNL     1      54.038  -0.168  18.723  0.00  0.00    +0.000 NA
ATOM     29  H   UNL     1      55.013  -0.269  18.997  0.00  0.00    +0.000 HD
ATOM     30  H   UNL     1      53.555  -0.948  18.289  0.00  0.00    +0.000 HD
ENDBRANCH  25  28
ENDBRANCH  24  25
ENDBRANCH  21  24
ENDBRANCH  17  18
ENDBRANCH   3  17
TORSDOF 7
ENDMDL
MODEL 6
REMARK VINA RESULT:    -6.591      4.017      8.210
REMARK INTER + INTRA:          -9.719
REMARK INTER:                  -8.926
REMARK INTRA:                  -0.793
REMARK UNBOUND:                -0.815
REMARK  Name = 
REMARK  8 active torsions:
REMARK  status: ('A' for Active; 'I' for Inactive)
REMARK    1  A    between atoms: C_1  and  N_2
REMARK    2  A    between atoms: C_4  and  C_5
REMARK    3  A    between atoms: N_7  and  C_8
REMARK    4  A    between atoms: C_8  and  C_9
REMARK    5  A    between atoms: C_12  and  C_13
REMARK    6  A    between atoms: C_13  and  S_14
REMARK    7  A    between atoms: S_14  and  N_15
REMARK    8  A    between atoms: C_21  and  O_22
REMARK                            x       y       z     vdW  Elec       q    Type
REMARK                         _______ _______ _______ _____ _____    ______ ____
ROOT
ATOM      1  C   UNL     1      46.477   6.966  11.551  0.00  0.00    +0.000 C 
ATOM      2  O   UNL     1      45.843   7.952  11.917  0.00  0.00    +0.000 OA
ATOM      3  N   UNL     1      47.827   6.822  11.757  0.00  0.00    +0.000 N 
ATOM      4  H   UNL     1      48.289   5.973  11.474  0.00  0.00    +0.000 HD
ENDROOT
BRANCH   1   8
ATOM      5  C   UNL     1      44.859   3.767   8.050  0.00  0.00    +0.000 C 
ATOM      6  N   UNL     1      45.083   4.413   9.324  0.00  0.00    +0.000 N 
ATOM      7  C   UNL     1      45.851   5.534   9.522  0.00  0.00    +0.000 A 
ATOM      8  C   UNL     1      45.815   5.853  10.873  0.00  0.00    +0.000 A 
ATOM      9  C   UNL     1      44.986   4.865  11.504  0.00  0.00    +0.000 A 
ATOM     10  C   UNL     1      44.530   4.579  12.795  0.00  0.00    +0.000 A 
ATOM     11  N   UNL     1      43.726   3.523  13.017  0.00  0.00    +0.000 NA
ATOM     12  C   UNL     1      43.385   2.769  11.960  0.00  0.00    +0.000 A 
ATOM     13  N   UNL     1      43.750   2.928  10.675  0.00  0.00    +0.000 NA
ATOM     14  C   UNL     1      44.552   3.994  10.512  0.00  0.00    +0.000 A 
BRANCH  10  15
ATOM     15  O   UNL     1      44.845   5.316  13.910  0.00  0.00    +0.000 OA
ATOM     16  H   UNL     1      45.816   5.273  14.030  0.00  0.00    +0.000 HD
ENDBRANCH  10  15
ENDBRANCH   1   8
BRANCH   3  17
ATOM     17  C   UNL     1      48.610   7.829  12.436  0.00  0.00    +0.000 C 
BRANCH  17  18
ATOM     18  C   UNL     1      49.078   7.386  13.800  0.00  0.00    +0.000 A 
ATOM     19  C   UNL     1      48.226   6.638  14.622  0.00  0.00    +0.000 A 
ATOM     20  C   UNL     1      48.644   6.190  15.880  0.00  0.00    +0.000 A 
ATOM     21  C   UNL     1      49.931   6.483  16.352  0.00  0.00    +0.000 A 
ATOM     22  C   UNL     1      50.776   7.250  15.535  0.00  0.00    +0.000 A 
ATOM     23  C   UNL     1      50.356   7.698  14.276  0.00  0.00    +0.000 A 
BRANCH  21  24
ATOM     24  C   UNL     1      50.383   6.093  17.740  0.00  0.00    +0.000 C 
BRANCH  24  25
ATOM     25  S   UNL     1      50.157   4.344  18.093  0.00  0.00    +0.000 S 
ATOM     26  O   UNL     1      48.848   4.183  18.695  0.00  0.00    +0.000 OA
ATOM     27  O   UNL     1      50.562   3.548  16.957  0.00  0.00    +0.000 OA
BRANCH  25  28
ATOM     28  N   UNL     1      51.255   4.047  19.309  0.00  0.00    +0.000 NA
ATOM     29  H   UNL     1      52.117   3.578  19.034  0.00  0.00    +0.000 HD
ATOM     30  H   UNL     1      50.855   3.866  20.224  0.00  0.00    +0.000 HD
ENDBRANCH  25  28
ENDBRANCH  24  25
ENDBRANCH  21  24
ENDBRANCH  17  18
ENDBRANCH   3  17
TORSDOF 7
ENDMDL
MODEL 7
REMARK VINA RESULT:    -6.321      3.696      5.764
REMARK INTER + INTRA:          -9.353
REMARK INTER:                  -8.597
REMARK INTRA:                  -0.756
REMARK UNBOUND:                -0.815
REMARK  Name = 
REMARK  8 active torsions:
REMARK  status: ('A' for Active; 'I' for Inactive)
REMARK    1  A    between atoms: C_1  and  N_2
REMARK    2  A    between atoms: C_4  and  C_5
REMARK    3  A    between atoms: N_7  and  C_8
REMARK    4  A    between atoms: C_8  and  C_9
REMARK    5  A    between atoms: C_12  and  C_13
REMARK    6  A    between atoms: C_13  and  S_14
REMARK    7  A    between atoms: S_14  and  N_15
REMARK    8  A    between atoms: C_21  and  O_22
REMARK                            x       y       z     vdW  Elec       q    Type
REMARK                         _______ _______ _______ _____ _____    ______ ____
ROOT
ATOM      1  C   UNL     1      49.730   5.808  17.215  0.00  0.00    +0.000 C 
ATOM      2  O   UNL     1      48.814   6.030  18.002  0.00  0.00    +0.000 OA
ATOM      3  N   UNL     1      49.744   6.280  15.925  0.00  0.00    +0.000 N 
ATOM      4  H   UNL     1      50.541   6.104  15.336  0.00  0.00    +0.000 HD
ENDROOT
BRANCH   1   8
ATOM      5  C   UNL     1      54.228   4.457  18.959  0.00  0.00    +0.000 C 
ATOM      6  N   UNL     1      52.900   4.399  18.392  0.00  0.00    +0.000 N 
ATOM      7  C   UNL     1      52.079   5.479  18.182  0.00  0.00    +0.000 A 
ATOM      8  C   UNL     1      50.895   5.023  17.617  0.00  0.00    +0.000 A 
ATOM      9  C   UNL     1      51.025   3.599  17.493  0.00  0.00    +0.000 A 
ATOM     10  C   UNL     1      50.249   2.532  17.025  0.00  0.00    +0.000 A 
ATOM     11  N   UNL     1      50.723   1.275  17.064  0.00  0.00    +0.000 NA
ATOM     12  C   UNL     1      51.956   1.090  17.562  0.00  0.00    +0.000 A 
ATOM     13  N   UNL     1      52.804   2.017  18.042  0.00  0.00    +0.000 NA
ATOM     14  C   UNL     1      52.280   3.253  17.981  0.00  0.00    +0.000 A 
BRANCH  10  15
ATOM     15  O   UNL     1      48.985   2.663  16.505  0.00  0.00    +0.000 OA
ATOM     16  H   UNL     1      48.521   1.811  16.633  0.00  0.00    +0.000 HD
ENDBRANCH  10  15
ENDBRANCH   1   8
BRANCH   3  17
ATOM     17  C   UNL     1      48.672   7.091  15.395  0.00  0.00    +0.000 C 
BRANCH  17  18
ATOM     18  C   UNL     1      47.803   6.343  14.414  0.00  0.00    +0.000 A 
ATOM     19  C   UNL     1      47.352   5.053  14.723  0.00  0.00    +0.000 A 
ATOM     20  C   UNL     1      46.521   4.348  13.845  0.00  0.00    +0.000 A 
ATOM     21  C   UNL     1      46.121   4.916  12.628  0.00  0.00    +0.000 A 
ATOM     22  C   UNL     1      46.591   6.200  12.311  0.00  0.00    +0.000 A 
ATOM     23  C   UNL     1      47.423   6.906  13.191  0.00  0.00    +0.000 A 
BRANCH  21  24
ATOM     24  C   UNL     1      45.301   4.149  11.617  0.00  0.00    +0.000 C 
BRANCH  24  25
ATOM     25  S   UNL     1      43.530   4.399  11.807  0.00  0.00    +0.000 S 
ATOM     26  O   UNL     1      42.872   3.149  11.478  0.00  0.00    +0.000 OA
ATOM     27  O   UNL     1      43.252   5.087  13.047  0.00  0.00    +0.000 OA
BRANCH  25  28
ATOM     28  N   UNL     1      43.150   5.450  10.573  0.00  0.00    +0.000 NA
ATOM     29  H   UNL     1      43.514   6.397  10.659  0.00  0.00    +0.000 HD
ATOM     30  H   UNL     1      42.249   5.296  10.130  0.00  0.00    +0.000 HD
ENDBRANCH  25  28
ENDBRANCH  24  25
ENDBRANCH  21  24
ENDBRANCH  17  18
ENDBRANCH   3  17
TORSDOF 7
ENDMDL
MODEL 8
REMARK VINA RESULT:    -6.044      3.944      5.429
REMARK INTER + INTRA:          -8.979
REMARK INTER:                  -8.081
REMARK INTRA:                  -0.899
REMARK UNBOUND:                -0.815
REMARK  Name = 
REMARK  8 active torsions:
REMARK  status: ('A' for Active; 'I' for Inactive)
REMARK    1  A    between atoms: C_1  and  N_2
REMARK    2  A    between atoms: C_4  and  C_5
REMARK    3  A    between atoms: N_7  and  C_8
REMARK    4  A    between atoms: C_8  and  C_9
REMARK    5  A    between atoms: C_12  and  C_13
REMARK    6  A    between atoms: C_13  and  S_14
REMARK    7  A    between atoms: S_14  and  N_15
REMARK    8  A    between atoms: C_21  and  O_22
REMARK                            x       y       z     vdW  Elec       q    Type
REMARK                         _______ _______ _______ _____ _____    ______ ____
ROOT
ATOM      1  C   UNL     1      48.719   8.205  16.103  0.00  0.00    +0.000 C 
ATOM      2  O   UNL     1      49.709   7.766  15.525  0.00  0.00    +0.000 OA
ATOM      3  N   UNL     1      47.706   8.872  15.459  0.00  0.00    +0.000 N 
ATOM      4  H   UNL     1      46.897   9.175  15.976  0.00  0.00    +0.000 HD
ENDROOT
BRANCH   1   8
ATOM      5  C   UNL     1      47.848   9.043  20.966  0.00  0.00    +0.000 C 
ATOM      6  N   UNL     1      48.161   8.381  19.720  0.00  0.00    +0.000 N 
ATOM      7  C   UNL     1      48.206   8.986  18.489  0.00  0.00    +0.000 A 
ATOM      8  C   UNL     1      48.547   8.027  17.544  0.00  0.00    +0.000 A 
ATOM      9  C   UNL     1      48.706   6.791  18.257  0.00  0.00    +0.000 A 
ATOM     10  C   UNL     1      49.032   5.464  17.955  0.00  0.00    +0.000 A 
ATOM     11  N   UNL     1      49.093   4.538  18.928  0.00  0.00    +0.000 NA
ATOM     12  C   UNL     1      48.833   4.937  20.183  0.00  0.00    +0.000 A 
ATOM     13  N   UNL     1      48.509   6.169  20.612  0.00  0.00    +0.000 NA
ATOM     14  C   UNL     1      48.460   7.053  19.600  0.00  0.00    +0.000 A 
BRANCH  10  15
ATOM     15  O   UNL     1      49.308   5.003  16.692  0.00  0.00    +0.000 OA
ATOM     16  H   UNL     1      48.687   4.271  16.500  0.00  0.00    +0.000 HD
ENDBRANCH  10  15
ENDBRANCH   1   8
BRANCH   3  17
ATOM     17  C   UNL     1      47.727   9.102  14.033  0.00  0.00    +0.000 C 
BRANCH  17  18
ATOM     18  C   UNL     1      46.955   8.061  13.261  0.00  0.00    +0.000 A 
ATOM     19  C   UNL     1      45.695   8.373  12.735  0.00  0.00    +0.000 A 
ATOM     20  C   UNL     1      44.969   7.436  11.990  0.00  0.00    +0.000 A 
ATOM     21  C   UNL     1      45.487   6.155  11.755  0.00  0.00    +0.000 A 
ATOM     22  C   UNL     1      46.740   5.837  12.300  0.00  0.00    +0.000 A 
ATOM     23  C   UNL     1      47.466   6.776  13.046  0.00  0.00    +0.000 A 
BRANCH  21  24
ATOM     24  C   UNL     1      44.693   5.090  11.034  0.00  0.00    +0.000 C 
BRANCH  24  25
ATOM     25  S   UNL     1      43.345   4.423  12.021  0.00  0.00    +0.000 S 
ATOM     26  O   UNL     1      43.891   4.042  13.309  0.00  0.00    +0.000 OA
ATOM     27  O   UNL     1      42.183   5.276  11.923  0.00  0.00    +0.000 OA
BRANCH  25  28
ATOM     28  N   UNL     1      42.967   2.997  11.249  0.00  0.00    +0.000 NA
ATOM     29  H   UNL     1      43.747   2.377  11.040  0.00  0.00    +0.000 HD
ATOM     30  H   UNL     1      42.175   3.040  10.616  0.00  0.00    +0.000 HD
ENDBRANCH  25  28
ENDBRANCH  24  25
ENDBRANCH  21  24
ENDBRANCH  17  18
ENDBRANCH   3  17
TORSDOF 7
ENDMDL
MODEL 9
REMARK VINA RESULT:    -5.780      3.927      5.425
REMARK INTER + INTRA:          -8.623
REMARK INTER:                  -7.652
REMARK INTRA:                  -0.972
REMARK UNBOUND:                -0.815
REMARK  Name = 
REMARK  8 active torsions:
REMARK  status: ('A' for Active; 'I' for Inactive)
REMARK    1  A    between atoms: C_1  and  N_2
REMARK    2  A    between atoms: C_4  and  C_5
REMARK    3  A    between atoms: N_7  and  C_8
REMARK    4  A    between atoms: C_8  and  C_9
REMARK    5  A    between atoms: C_12  and  C_13
REMARK    6  A    between atoms: C_13  and  S_14
REMARK    7  A    between atoms: S_14  and  N_15
REMARK    8  A    between atoms: C_21  and  O_22
REMARK                            x       y       z     vdW  Elec       q    Type
REMARK                         _______ _______ _______ _____ _____    ______ ____
ROOT
ATOM      1  C   UNL     1      48.644   8.391  16.423  0.00  0.00    +0.000 C 
ATOM      2  O   UNL     1      47.898   9.244  16.894  0.00  0.00    +0.000 OA
ATOM      3  N   UNL     1      48.778   8.169  15.074  0.00  0.00    +0.000 N 
ATOM      4  H   UNL     1      49.437   7.484  14.742  0.00  0.00    +0.000 HD
ENDROOT
BRANCH   1   8
ATOM      5  C   UNL     1      52.022   6.818  19.775  0.00  0.00    +0.000 C 
ATOM      6  N   UNL     1      50.970   6.826  18.783  0.00  0.00    +0.000 N 
ATOM      7  C   UNL     1      50.449   7.948  18.187  0.00  0.00    +0.000 A 
ATOM      8  C   UNL     1      49.468   7.549  17.290  0.00  0.00    +0.000 A 
ATOM      9  C   UNL     1      49.404   6.116  17.365  0.00  0.00    +0.000 A 
ATOM     10  C   UNL     1      48.672   5.086  16.765  0.00  0.00    +0.000 A 
ATOM     11  N   UNL     1      48.900   3.803  17.097  0.00  0.00    +0.000 NA
ATOM     12  C   UNL     1      49.848   3.558  18.015  0.00  0.00    +0.000 A 
ATOM     13  N   UNL     1      50.621   4.445  18.668  0.00  0.00    +0.000 NA
ATOM     14  C   UNL     1      50.350   5.709  18.299  0.00  0.00    +0.000 A 
BRANCH  10  15
ATOM     15  O   UNL     1      47.694   5.279  15.821  0.00  0.00    +0.000 OA
ATOM     16  H   UNL     1      48.097   5.133  14.940  0.00  0.00    +0.000 HD
ENDBRANCH  10  15
ENDBRANCH   1   8
BRANCH   3  17
ATOM     17  C   UNL     1      48.047   8.941  14.096  0.00  0.00    +0.000 C 
BRANCH  17  18
ATOM     18  C   UNL     1      47.137   8.092  13.242  0.00  0.00    +0.000 A 
ATOM     19  C   UNL     1      45.859   8.559  12.907  0.00  0.00    +0.000 A 
ATOM     20  C   UNL     1      45.005   7.806  12.094  0.00  0.00    +0.000 A 
ATOM     21  C   UNL     1      45.407   6.559  11.595  0.00  0.00    +0.000 A 
ATOM     22  C   UNL     1      46.680   6.084  11.949  0.00  0.00    +0.000 A 
ATOM     23  C   UNL     1      47.535   6.839  12.764  0.00  0.00    +0.000 A 
BRANCH  21  24
ATOM     24  C   UNL     1      44.478   5.680  10.791  0.00  0.00    +0.000 C 
BRANCH  24  25
ATOM     25  S   UNL     1      43.300   4.778  11.807  0.00  0.00    +0.000 S 
ATOM     26  O   UNL     1      42.947   3.564  11.098  0.00  0.00    +0.000 OA
ATOM     27  O   UNL     1      43.751   4.739  13.180  0.00  0.00    +0.000 OA
BRANCH  25  28
ATOM     28  N   UNL     1      41.940   5.737  11.771  0.00  0.00    +0.000 NA
ATOM     29  H   UNL     1      41.902   6.492  12.453  0.00  0.00    +0.000 HD
ATOM     30  H   UNL     1      41.083   5.270  11.491  0.00  0.00    +0.000 HD
ENDBRANCH  25  28
ENDBRANCH  24  25
ENDBRANCH  21  24
ENDBRANCH  17  18
ENDBRANCH   3  17
TORSDOF 7
ENDMDL
