MODEL 1
REMARK VINA RESULT:    -7.875      0.000      0.000
REMARK INTER + INTRA:         -12.010
REMARK INTER:                 -11.097
REMARK INTRA:                  -0.912
REMARK UNBOUND:                -0.912
REMARK  Name = 
REMARK  7 active torsions:
REMARK  status: ('A' for Active; 'I' for Inactive)
REMARK    1  A    between atoms: C_2  and  C_20
REMARK    2  A    between atoms: N_3  and  C_4
REMARK    3  A    between atoms: C_4  and  C_5
REMARK    4  A    between atoms: C_8  and  C_9
REMARK    5  A    between atoms: C_9  and  N_10
REMARK    6  A    between atoms: N_10  and  C_11
REMARK    7  A    between atoms: C_11  and  C_12
REMARK                            x       y       z     vdW  Elec       q    Type
REMARK                         _______ _______ _______ _____ _____    ______ ____
ROOT
ATOM      1  C   UNL     1      46.485   4.441  13.018  0.00  0.00    +0.000 C 
ATOM      2  C   UNL     1      45.769   3.190  12.487  0.00  0.00    +0.000 C 
ATOM      3  C   UNL     1      44.273   3.413  12.281  0.00  0.00    +0.000 C 
ATOM      4  C   UNL     1      43.960   4.617  11.378  0.00  0.00    +0.000 C 
ATOM      5  C   UNL     1      44.733   5.870  11.834  0.00  0.00    +0.000 C 
ATOM      6  C   UNL     1      46.219   5.630  12.086  0.00  0.00    +0.000 C 
ENDROOT
BRANCH   1   7
ATOM      7  C   UNL     1      46.107   4.775  14.474  0.00  0.00    +0.000 C 
BRANCH   7  10
ATOM      8  O   UNL     1      46.493   3.481  17.008  0.00  0.00    +0.000 OA
ATOM      9  C   UNL     1      47.367   4.194  16.538  0.00  0.00    +0.000 C 
ATOM     10  N   UNL     1      47.275   4.819  15.320  0.00  0.00    +0.000 N 
ATOM     11  H   UNL     1      48.031   5.416  15.015  0.00  0.00    +0.000 HD
BRANCH   9  12
ATOM     12  C   UNL     1      48.662   4.372  17.197  0.00  0.00    +0.000 A 
ATOM     13  C   UNL     1      48.974   5.541  17.866  0.00  0.00    +0.000 A 
ATOM     14  S   UNL     1      50.488   5.478  18.653  0.00  0.00    +0.000 S 
ATOM     15  C   UNL     1      50.794   3.905  18.072  0.00  0.00    +0.000 A 
ATOM     16  N   UNL     1      51.933   3.239  18.393  0.00  0.00    +0.000 NA
ATOM     17  C   UNL     1      52.036   2.070  17.853  0.00  0.00    +0.000 A 
ATOM     18  N   UNL     1      51.109   1.509  17.013  0.00  0.00    +0.000 N 
ATOM     19  C   UNL     1      49.932   2.135  16.681  0.00  0.00    +0.000 A 
ATOM     20  O   UNL     1      49.105   1.583  15.960  0.00  0.00    +0.000 OA
ATOM     21  C   UNL     1      49.760   3.445  17.279  0.00  0.00    +0.000 A 
ATOM     22  H   UNL     1      51.248   0.591  16.619  0.00  0.00    +0.000 HD
ENDBRANCH   9  12
ENDBRANCH   7  10
ENDBRANCH   1   7
BRANCH   4  23
ATOM     23  C   UNL     1      44.181   4.317   9.875  0.00  0.00    +0.000 C 
BRANCH  23  24
ATOM     24  N   UNL     1      43.972   2.919   9.475  0.00  0.00    +0.000 NA
ATOM     25  H   UNL     1      42.977   2.722   9.396  0.00  0.00    +0.000 HD
BRANCH  24  26
ATOM     26  C   UNL     1      44.647   2.563   8.221  0.00  0.00    +0.000 C 
BRANCH  26  27
ATOM     27  C   UNL     1      46.178   2.753   8.324  0.00  0.00    +0.000 C 
ATOM     28  C   UNL     1      46.714   3.880   7.430  0.00  0.00    +0.000 C 
ATOM     29  C   UNL     1      46.664   3.504   5.950  0.00  0.00    +0.000 C 
ATOM     30  C   UNL     1      47.252   2.118   5.676  0.00  0.00    +0.000 C 
ATOM     31  N   UNL     1      46.718   1.085   6.566  0.00  0.00    +0.000 NA
ATOM     32  C   UNL     1      46.916   1.449   7.970  0.00  0.00    +0.000 C 
ATOM     33  H   UNL     1      47.186   0.200   6.375  0.00  0.00    +0.000 HD
ENDBRANCH  26  27
ENDBRANCH  24  26
ENDBRANCH  23  24
ENDBRANCH   4  23
TORSDOF 7
ENDMDL
MODEL 2
REMARK VINA RESULT:    -7.437      1.539      2.106
REMARK INTER + INTRA:         -11.392
REMARK INTER:                 -10.461
REMARK INTRA:                  -0.931
REMARK UNBOUND:                -0.912
REMARK  Name = 
REMARK  7 active torsions:
REMARK  status: ('A' for Active; 'I' for Inactive)
REMARK    1  A    between atoms: C_2  and  C_20
REMARK    2  A    between atoms: N_3  and  C_4
REMARK    3  A    between atoms: C_4  and  C_5
REMARK    4  A    between atoms: C_8  and  C_9
REMARK    5  A    between atoms: C_9  and  N_10
REMARK    6  A    between atoms: N_10  and  C_11
REMARK    7  A    between atoms: C_11  and  C_12
REMARK                            x       y       z     vdW  Elec       q    Type
REMARK                         _______ _______ _______ _____ _____    ______ ____
ROOT
ATOM      1  C   UNL     1      47.878   6.095  13.629  0.00  0.00    +0.000 C 
ATOM      2  C   UNL     1      47.144   4.750  13.517  0.00  0.00    +0.000 C 
ATOM      3  C   UNL     1      45.647   4.875  13.791  0.00  0.00    +0.000 C 
ATOM      4  C   UNL     1      44.956   5.923  12.903  0.00  0.00    +0.000 C 
ATOM      5  C   UNL     1      45.720   7.261  12.925  0.00  0.00    +0.000 C 
ATOM      6  C   UNL     1      47.224   7.126  12.701  0.00  0.00    +0.000 C 
ENDROOT
BRANCH   1   7
ATOM      7  C   UNL     1      47.958   6.616  15.078  0.00  0.00    +0.000 C 
BRANCH   7  10
ATOM      8  O   UNL     1      47.916   4.730  17.241  0.00  0.00    +0.000 OA
ATOM      9  C   UNL     1      48.977   5.170  16.826  0.00  0.00    +0.000 C 
ATOM     10  N   UNL     1      49.086   6.046  15.776  0.00  0.00    +0.000 N 
ATOM     11  H   UNL     1      49.999   6.386  15.511  0.00  0.00    +0.000 HD
BRANCH   9  12
ATOM     12  C   UNL     1      50.265   4.719  17.354  0.00  0.00    +0.000 A 
ATOM     13  C   UNL     1      51.147   5.602  17.951  0.00  0.00    +0.000 A 
ATOM     14  S   UNL     1      52.530   4.833  18.594  0.00  0.00    +0.000 S 
ATOM     15  C   UNL     1      52.014   3.305  18.040  0.00  0.00    +0.000 A 
ATOM     16  N   UNL     1      52.742   2.183  18.275  0.00  0.00    +0.000 NA
ATOM     17  C   UNL     1      52.239   1.107  17.768  0.00  0.00    +0.000 A 
ATOM     18  N   UNL     1      51.080   1.050  17.038  0.00  0.00    +0.000 N 
ATOM     19  C   UNL     1      50.299   2.155  16.797  0.00  0.00    +0.000 A 
ATOM     20  O   UNL     1      49.244   2.060  16.176  0.00  0.00    +0.000 OA
ATOM     21  C   UNL     1      50.812   3.388  17.364  0.00  0.00    +0.000 A 
ATOM     22  H   UNL     1      50.739   0.178  16.663  0.00  0.00    +0.000 HD
ENDBRANCH   9  12
ENDBRANCH   7  10
ENDBRANCH   1   7
BRANCH   4  23
ATOM     23  C   UNL     1      44.709   5.422  11.458  0.00  0.00    +0.000 C 
BRANCH  23  24
ATOM     24  N   UNL     1      44.277   4.023  11.343  0.00  0.00    +0.000 NA
ATOM     25  H   UNL     1      43.330   3.978  10.974  0.00  0.00    +0.000 HD
BRANCH  24  26
ATOM     26  C   UNL     1      45.170   3.202  10.515  0.00  0.00    +0.000 C 
BRANCH  26  27
ATOM     27  C   UNL     1      44.497   2.796   9.184  0.00  0.00    +0.000 C 
ATOM     28  C   UNL     1      45.021   1.470   8.615  0.00  0.00    +0.000 C 
ATOM     29  C   UNL     1      46.445   1.605   8.080  0.00  0.00    +0.000 C 
ATOM     30  C   UNL     1      46.615   2.821   7.165  0.00  0.00    +0.000 C 
ATOM     31  N   UNL     1      46.084   4.054   7.749  0.00  0.00    +0.000 NA
ATOM     32  C   UNL     1      44.677   3.894   8.121  0.00  0.00    +0.000 C 
ATOM     33  H   UNL     1      46.174   4.813   7.074  0.00  0.00    +0.000 HD
ENDBRANCH  26  27
ENDBRANCH  24  26
ENDBRANCH  23  24
ENDBRANCH   4  23
TORSDOF 7
ENDMDL
MODEL 3
REMARK VINA RESULT:    -7.362      2.037      2.642
REMARK INTER + INTRA:         -11.286
REMARK INTER:                 -10.782
REMARK INTRA:                  -0.504
REMARK UNBOUND:                -0.912
REMARK  Name = 
REMARK  7 active torsions:
REMARK  status: ('A' for Active; 'I' for Inactive)
REMARK    1  A    between atoms: C_2  and  C_20
REMARK    2  A    between atoms: N_3  and  C_4
REMARK    3  A    between atoms: C_4  and  C_5
REMARK    4  A    between atoms: C_8  and  C_9
REMARK    5  A    between atoms: C_9  and  N_10
REMARK    6  A    between atoms: N_10  and  C_11
REMARK    7  A    between atoms: C_11  and  C_12
REMARK                            x       y       z     vdW  Elec       q    Type
REMARK                         _______ _______ _______ _____ _____    ______ ____
ROOT
ATOM      1  C   UNL     1      46.627   5.999  12.218  0.00  0.00    +0.000 C 
ATOM      2  C   UNL     1      45.961   4.838  12.973  0.00  0.00    +0.000 C 
ATOM      3  C   UNL     1      44.491   5.109  13.287  0.00  0.00    +0.000 C 
ATOM      4  C   UNL     1      43.664   5.465  12.041  0.00  0.00    +0.000 C 
ATOM      5  C   UNL     1      44.351   6.568  11.213  0.00  0.00    +0.000 C 
ATOM      6  C   UNL     1      45.833   6.317  10.945  0.00  0.00    +0.000 C 
ENDROOT
BRANCH   1   7
ATOM      7  C   UNL     1      46.812   7.255  13.092  0.00  0.00    +0.000 C 
BRANCH   7  10
ATOM      8  O   UNL     1      49.568   6.922  13.822  0.00  0.00    +0.000 OA
ATOM      9  C   UNL     1      48.685   6.743  14.647  0.00  0.00    +0.000 C 
ATOM     10  N   UNL     1      47.348   6.914  14.388  0.00  0.00    +0.000 N 
ATOM     11  H   UNL     1      46.677   6.719  15.117  0.00  0.00    +0.000 HD
BRANCH   9  12
ATOM     12  C   UNL     1      48.980   6.420  16.043  0.00  0.00    +0.000 A 
ATOM     13  C   UNL     1      49.620   7.324  16.871  0.00  0.00    +0.000 A 
ATOM     14  S   UNL     1      49.754   6.776  18.483  0.00  0.00    +0.000 S 
ATOM     15  C   UNL     1      49.010   5.290  18.104  0.00  0.00    +0.000 A 
ATOM     16  N   UNL     1      48.794   4.343  19.053  0.00  0.00    +0.000 NA
ATOM     17  C   UNL     1      48.250   3.259  18.609  0.00  0.00    +0.000 A 
ATOM     18  N   UNL     1      47.912   3.029  17.300  0.00  0.00    +0.000 N 
ATOM     19  C   UNL     1      48.089   3.967  16.312  0.00  0.00    +0.000 A 
ATOM     20  O   UNL     1      47.733   3.744  15.158  0.00  0.00    +0.000 OA
ATOM     21  C   UNL     1      48.680   5.212  16.765  0.00  0.00    +0.000 A 
ATOM     22  H   UNL     1      47.492   2.158  17.013  0.00  0.00    +0.000 HD
ENDBRANCH   9  12
ENDBRANCH   7  10
ENDBRANCH   1   7
BRANCH   4  23
ATOM     23  C   UNL     1      43.312   4.229  11.176  0.00  0.00    +0.000 C 
BRANCH  23  24
ATOM     24  N   UNL     1      44.160   3.049  11.393  0.00  0.00    +0.000 NA
ATOM     25  H   UNL     1      43.588   2.207  11.421  0.00  0.00    +0.000 HD
BRANCH  24  26
ATOM     26  C   UNL     1      45.216   2.894  10.384  0.00  0.00    +0.000 C 
BRANCH  26  27
ATOM     27  C   UNL     1      44.634   2.511   9.004  0.00  0.00    +0.000 C 
ATOM     28  C   UNL     1      45.376   1.347   8.332  0.00  0.00    +0.000 C 
ATOM     29  C   UNL     1      46.764   1.763   7.849  0.00  0.00    +0.000 C 
ATOM     30  C   UNL     1      46.742   3.071   7.054  0.00  0.00    +0.000 C 
ATOM     31  N   UNL     1      46.009   4.140   7.733  0.00  0.00    +0.000 NA
ATOM     32  C   UNL     1      44.643   3.719   8.051  0.00  0.00    +0.000 C 
ATOM     33  H   UNL     1      45.980   4.964   7.133  0.00  0.00    +0.000 HD
ENDBRANCH  26  27
ENDBRANCH  24  26
ENDBRANCH  23  24
ENDBRANCH   4  23
TORSDOF 7
ENDMDL
MODEL 4
REMARK VINA RESULT:    -7.254      3.633      8.939
REMARK INTER + INTRA:         -11.135
REMARK INTER:                  -9.696
REMARK INTRA:                  -1.439
REMARK UNBOUND:                -0.912
REMARK  Name = 
REMARK  7 active torsions:
REMARK  status: ('A' for Active; 'I' for Inactive)
REMARK    1  A    between atoms: C_2  and  C_20
REMARK    2  A    between atoms: N_3  and  C_4
REMARK    3  A    between atoms: C_4  and  C_5
REMARK    4  A    between atoms: C_8  and  C_9
REMARK    5  A    between atoms: C_9  and  N_10
REMARK    6  A    between atoms: N_10  and  C_11
REMARK    7  A    between atoms: C_11  and  C_12
REMARK                            x       y       z     vdW  Elec       q    Type
REMARK                         _______ _______ _______ _____ _____    ______ ____
ROOT
ATOM      1  C   UNL     1      48.461   7.945  12.298  0.00  0.00    +0.000 C 
ATOM      2  C   UNL     1      48.970   9.056  13.228  0.00  0.00    +0.000 C 
ATOM      3  C   UNL     1      48.373   8.966  14.631  0.00  0.00    +0.000 C 
ATOM      4  C   UNL     1      48.586   7.594  15.290  0.00  0.00    +0.000 C 
ATOM      5  C   UNL     1      48.165   6.452  14.346  0.00  0.00    +0.000 C 
ATOM      6  C   UNL     1      48.725   6.573  12.930  0.00  0.00    +0.000 C 
ENDROOT
BRANCH   1   7
ATOM      7  C   UNL     1      46.977   8.112  11.920  0.00  0.00    +0.000 C 
BRANCH   7  10
ATOM      8  O   UNL     1      44.206   7.595  11.377  0.00  0.00    +0.000 OA
ATOM      9  C   UNL     1      44.990   6.670  11.521  0.00  0.00    +0.000 C 
ATOM     10  N   UNL     1      46.334   6.831  11.748  0.00  0.00    +0.000 N 
ATOM     11  H   UNL     1      46.912   6.014  11.885  0.00  0.00    +0.000 HD
BRANCH   9  12
ATOM     12  C   UNL     1      44.582   5.273  11.363  0.00  0.00    +0.000 A 
ATOM     13  C   UNL     1      43.863   4.619  12.346  0.00  0.00    +0.000 A 
ATOM     14  S   UNL     1      43.399   3.038  11.894  0.00  0.00    +0.000 S 
ATOM     15  C   UNL     1      44.198   3.166  10.393  0.00  0.00    +0.000 A 
ATOM     16  N   UNL     1      44.182   2.151   9.492  0.00  0.00    +0.000 NA
ATOM     17  C   UNL     1      44.857   2.383   8.415  0.00  0.00    +0.000 A 
ATOM     18  N   UNL     1      45.556   3.535   8.161  0.00  0.00    +0.000 N 
ATOM     19  C   UNL     1      45.580   4.598   9.032  0.00  0.00    +0.000 A 
ATOM     20  O   UNL     1      46.181   5.631   8.752  0.00  0.00    +0.000 OA
ATOM     21  C   UNL     1      44.820   4.392  10.251  0.00  0.00    +0.000 A 
ATOM     22  H   UNL     1      46.069   3.657   7.301  0.00  0.00    +0.000 HD
ENDBRANCH   9  12
ENDBRANCH   7  10
ENDBRANCH   1   7
BRANCH   4  23
ATOM     23  C   UNL     1      50.026   7.399  15.828  0.00  0.00    +0.000 C 
BRANCH  23  24
ATOM     24  N   UNL     1      50.125   6.726  17.129  0.00  0.00    +0.000 NA
ATOM     25  H   UNL     1      49.261   6.846  17.653  0.00  0.00    +0.000 HD
BRANCH  24  26
ATOM     26  C   UNL     1      50.445   5.297  17.025  0.00  0.00    +0.000 C 
BRANCH  26  27
ATOM     27  C   UNL     1      49.775   4.480  18.154  0.00  0.00    +0.000 C 
ATOM     28  C   UNL     1      49.437   3.039  17.745  0.00  0.00    +0.000 C 
ATOM     29  C   UNL     1      48.278   2.987  16.752  0.00  0.00    +0.000 C 
ATOM     30  C   UNL     1      47.085   3.836  17.198  0.00  0.00    +0.000 C 
ATOM     31  N   UNL     1      47.465   5.194  17.591  0.00  0.00    +0.000 NA
ATOM     32  C   UNL     1      48.487   5.170  18.638  0.00  0.00    +0.000 C 
ATOM     33  H   UNL     1      46.642   5.691  17.930  0.00  0.00    +0.000 HD
ENDBRANCH  26  27
ENDBRANCH  24  26
ENDBRANCH  23  24
ENDBRANCH   4  23
TORSDOF 7
ENDMDL
MODEL 5
REMARK VINA RESULT:    -6.939      2.618      3.681
REMARK INTER + INTRA:         -10.691
REMARK INTER:                  -9.967
REMARK INTRA:                  -0.724
REMARK UNBOUND:                -0.912
REMARK  Name = 
REMARK  7 active torsions:
REMARK  status: ('A' for Active; 'I' for Inactive)
REMARK    1  A    between atoms: C_2  and  C_20
REMARK    2  A    between atoms: N_3  and  C_4
REMARK    3  A    between atoms: C_4  and  C_5
REMARK    4  A    between atoms: C_8  and  C_9
REMARK    5  A    between atoms: C_9  and  N_10
REMARK    6  A    between atoms: N_10  and  C_11
REMARK    7  A    between atoms: C_11  and  C_12
REMARK                            x       y       z     vdW  Elec       q    Type
REMARK                         _______ _______ _______ _____ _____    ______ ____
ROOT
ATOM      1  C   UNL     1      47.681   6.377  12.740  0.00  0.00    +0.000 C 
ATOM      2  C   UNL     1      46.804   5.176  13.123  0.00  0.00    +0.000 C 
ATOM      3  C   UNL     1      45.349   5.569  13.371  0.00  0.00    +0.000 C 
ATOM      4  C   UNL     1      44.717   6.323  12.190  0.00  0.00    +0.000 C 
ATOM      5  C   UNL     1      45.618   7.483  11.724  0.00  0.00    +0.000 C 
ATOM      6  C   UNL     1      47.081   7.097  11.525  0.00  0.00    +0.000 C 
ENDROOT
BRANCH   1   7
ATOM      7  C   UNL     1      47.910   7.351  13.912  0.00  0.00    +0.000 C 
BRANCH   7  10
ATOM      8  O   UNL     1      50.163   6.593  15.521  0.00  0.00    +0.000 OA
ATOM      9  C   UNL     1      49.029   6.303  15.870  0.00  0.00    +0.000 C 
ATOM     10  N   UNL     1      47.898   6.657  15.177  0.00  0.00    +0.000 N 
ATOM     11  H   UNL     1      46.997   6.354  15.518  0.00  0.00    +0.000 HD
BRANCH   9  12
ATOM     12  C   UNL     1      48.756   5.624  17.138  0.00  0.00    +0.000 A 
ATOM     13  C   UNL     1      48.929   4.259  17.273  0.00  0.00    +0.000 A 
ATOM     14  S   UNL     1      48.662   3.706  18.868  0.00  0.00    +0.000 S 
ATOM     15  C   UNL     1      48.251   5.271  19.406  0.00  0.00    +0.000 A 
ATOM     16  N   UNL     1      47.926   5.512  20.703  0.00  0.00    +0.000 NA
ATOM     17  C   UNL     1      47.608   6.738  20.953  0.00  0.00    +0.000 A 
ATOM     18  N   UNL     1      47.575   7.745  20.023  0.00  0.00    +0.000 N 
ATOM     19  C   UNL     1      47.920   7.553  18.707  0.00  0.00    +0.000 A 
ATOM     20  O   UNL     1      47.921   8.488  17.911  0.00  0.00    +0.000 OA
ATOM     21  C   UNL     1      48.304   6.193  18.379  0.00  0.00    +0.000 A 
ATOM     22  H   UNL     1      47.314   8.686  20.279  0.00  0.00    +0.000 HD
ENDBRANCH   9  12
ENDBRANCH   7  10
ENDBRANCH   1   7
BRANCH   4  23
ATOM     23  C   UNL     1      44.325   5.389  11.018  0.00  0.00    +0.000 C 
BRANCH  23  24
ATOM     24  N   UNL     1      44.353   3.952  11.323  0.00  0.00    +0.000 NA
ATOM     25  H   UNL     1      43.415   3.562  11.258  0.00  0.00    +0.000 HD
BRANCH  24  26
ATOM     26  C   UNL     1      45.265   3.189  10.462  0.00  0.00    +0.000 C 
BRANCH  26  27
ATOM     27  C   UNL     1      44.563   2.714   9.169  0.00  0.00    +0.000 C 
ATOM     28  C   UNL     1      45.147   1.412   8.601  0.00  0.00    +0.000 C 
ATOM     29  C   UNL     1      46.535   1.627   8.002  0.00  0.00    +0.000 C 
ATOM     30  C   UNL     1      46.588   2.831   7.059  0.00  0.00    +0.000 C 
ATOM     31  N   UNL     1      46.004   4.040   7.644  0.00  0.00    +0.000 NA
ATOM     32  C   UNL     1      44.628   3.800   8.080  0.00  0.00    +0.000 C 
ATOM     33  H   UNL     1      46.016   4.789   6.953  0.00  0.00    +0.000 HD
ENDBRANCH  26  27
ENDBRANCH  24  26
ENDBRANCH  23  24
ENDBRANCH   4  23
TORSDOF 7
ENDMDL
MODEL 6
REMARK VINA RESULT:    -6.929      2.528      3.504
REMARK INTER + INTRA:         -10.676
REMARK INTER:                  -9.821
REMARK INTRA:                  -0.855
REMARK UNBOUND:                -0.912
REMARK  Name = 
REMARK  7 active torsions:
REMARK  status: ('A' for Active; 'I' for Inactive)
REMARK    1  A    between atoms: C_2  and  C_20
REMARK    2  A    between atoms: N_3  and  C_4
REMARK    3  A    between atoms: C_4  and  C_5
REMARK    4  A    between atoms: C_8  and  C_9
REMARK    5  A    between atoms: C_9  and  N_10
REMARK    6  A    between atoms: N_10  and  C_11
REMARK    7  A    between atoms: C_11  and  C_12
REMARK                            x       y       z     vdW  Elec       q    Type
REMARK                         _______ _______ _______ _____ _____    ______ ____
ROOT
ATOM      1  C   UNL     1      48.368   7.992  12.608  0.00  0.00    +0.000 C 
ATOM      2  C   UNL     1      47.748   6.601  12.412  0.00  0.00    +0.000 C 
ATOM      3  C   UNL     1      46.410   6.448  13.132  0.00  0.00    +0.000 C 
ATOM      4  C   UNL     1      45.391   7.533  12.749  0.00  0.00    +0.000 C 
ATOM      5  C   UNL     1      46.011   8.940  12.852  0.00  0.00    +0.000 C 
ATOM      6  C   UNL     1      47.372   9.074  12.173  0.00  0.00    +0.000 C 
ENDROOT
BRANCH   1   7
ATOM      7  C   UNL     1      48.861   8.232  14.048  0.00  0.00    +0.000 C 
BRANCH   7  10
ATOM      8  O   UNL     1      48.601   7.814  16.877  0.00  0.00    +0.000 OA
ATOM      9  C   UNL     1      48.871   6.880  16.136  0.00  0.00    +0.000 C 
ATOM     10  N   UNL     1      48.980   6.989  14.773  0.00  0.00    +0.000 N 
ATOM     11  H   UNL     1      49.236   6.174  14.233  0.00  0.00    +0.000 HD
BRANCH   9  12
ATOM     12  C   UNL     1      49.011   5.511  16.633  0.00  0.00    +0.000 A 
ATOM     13  C   UNL     1      47.926   4.656  16.701  0.00  0.00    +0.000 A 
ATOM     14  S   UNL     1      48.347   3.078  17.201  0.00  0.00    +0.000 S 
ATOM     15  C   UNL     1      49.985   3.511  17.396  0.00  0.00    +0.000 A 
ATOM     16  N   UNL     1      50.915   2.606  17.795  0.00  0.00    +0.000 NA
ATOM     17  C   UNL     1      52.106   3.090  17.927  0.00  0.00    +0.000 A 
ATOM     18  N   UNL     1      52.450   4.398  17.707  0.00  0.00    +0.000 N 
ATOM     19  C   UNL     1      51.548   5.342  17.279  0.00  0.00    +0.000 A 
ATOM     20  O   UNL     1      51.902   6.496  17.051  0.00  0.00    +0.000 OA
ATOM     21  C   UNL     1      50.198   4.843  17.097  0.00  0.00    +0.000 A 
ATOM     22  H   UNL     1      53.399   4.718  17.832  0.00  0.00    +0.000 HD
ENDBRANCH   9  12
ENDBRANCH   7  10
ENDBRANCH   1   7
BRANCH   4  23
ATOM     23  C   UNL     1      44.740   7.288  11.365  0.00  0.00    +0.000 C 
BRANCH  23  24
ATOM     24  N   UNL     1      43.440   6.605  11.394  0.00  0.00    +0.000 NA
ATOM     25  H   UNL     1      42.723   7.196  10.978  0.00  0.00    +0.000 HD
BRANCH  24  26
ATOM     26  C   UNL     1      43.451   5.298  10.724  0.00  0.00    +0.000 C 
BRANCH  26  27
ATOM     27  C   UNL     1      44.886   4.736  10.595  0.00  0.00    +0.000 C 
ATOM     28  C   UNL     1      45.376   4.642   9.144  0.00  0.00    +0.000 C 
ATOM     29  C   UNL     1      44.662   3.532   8.374  0.00  0.00    +0.000 C 
ATOM     30  C   UNL     1      44.637   2.208   9.142  0.00  0.00    +0.000 C 
ATOM     31  N   UNL     1      44.178   2.359  10.524  0.00  0.00    +0.000 NA
ATOM     32  C   UNL     1      44.988   3.344  11.242  0.00  0.00    +0.000 C 
ATOM     33  H   UNL     1      44.236   1.458  10.999  0.00  0.00    +0.000 HD
ENDBRANCH  26  27
ENDBRANCH  24  26
ENDBRANCH  23  24
ENDBRANCH   4  23
TORSDOF 7
ENDMDL
MODEL 7
REMARK VINA RESULT:    -6.645      2.488      3.703
REMARK INTER + INTRA:         -10.276
REMARK INTER:                  -9.121
REMARK INTRA:                  -1.155
REMARK UNBOUND:                -0.912
REMARK  Name = 
REMARK  7 active torsions:
REMARK  status: ('A' for Active; 'I' for Inactive)
REMARK    1  A    between atoms: C_2  and  C_20
REMARK    2  A    between atoms: N_3  and  C_4
REMARK    3  A    between atoms: C_4  and  C_5
REMARK    4  A    between atoms: C_8  and  C_9
REMARK    5  A    between atoms: C_9  and  N_10
REMARK    6  A    between atoms: N_10  and  C_11
REMARK    7  A    between atoms: C_11  and  C_12
REMARK                            x       y       z     vdW  Elec       q    Type
REMARK                         _______ _______ _______ _____ _____    ______ ____
ROOT
ATOM      1  C   UNL     1      48.819   7.542  12.228  0.00  0.00    +0.000 C 
ATOM      2  C   UNL     1      47.828   6.422  12.578  0.00  0.00    +0.000 C 
ATOM      3  C   UNL     1      46.603   6.936  13.332  0.00  0.00    +0.000 C 
ATOM      4  C   UNL     1      45.872   8.069  12.594  0.00  0.00    +0.000 C 
ATOM      5  C   UNL     1      46.855   9.170  12.152  0.00  0.00    +0.000 C 
ATOM      6  C   UNL     1      48.102   8.647  11.442  0.00  0.00    +0.000 C 
ENDROOT
BRANCH   1   7
ATOM      7  C   UNL     1      49.541   8.112  13.464  0.00  0.00    +0.000 C 
BRANCH   7  10
ATOM      8  O   UNL     1      48.707   8.034  16.210  0.00  0.00    +0.000 OA
ATOM      9  C   UNL     1      49.391   7.134  15.746  0.00  0.00    +0.000 C 
ATOM     10  N   UNL     1      49.802   7.079  14.438  0.00  0.00    +0.000 N 
ATOM     11  H   UNL     1      50.390   6.315  14.139  0.00  0.00    +0.000 HD
BRANCH   9  12
ATOM     12  C   UNL     1      49.761   5.956  16.532  0.00  0.00    +0.000 A 
ATOM     13  C   UNL     1      51.011   5.844  17.115  0.00  0.00    +0.000 A 
ATOM     14  S   UNL     1      51.177   4.442  18.076  0.00  0.00    +0.000 S 
ATOM     15  C   UNL     1      49.601   3.917  17.691  0.00  0.00    +0.000 A 
ATOM     16  N   UNL     1      49.090   2.769  18.207  0.00  0.00    +0.000 NA
ATOM     17  C   UNL     1      47.897   2.488  17.800  0.00  0.00    +0.000 A 
ATOM     18  N   UNL     1      47.170   3.243  16.916  0.00  0.00    +0.000 N 
ATOM     19  C   UNL     1      47.637   4.424  16.389  0.00  0.00    +0.000 A 
ATOM     20  O   UNL     1      46.941   5.097  15.634  0.00  0.00    +0.000 OA
ATOM     21  C   UNL     1      48.968   4.794  16.832  0.00  0.00    +0.000 A 
ATOM     22  H   UNL     1      46.242   2.968  16.632  0.00  0.00    +0.000 HD
ENDBRANCH   9  12
ENDBRANCH   7  10
ENDBRANCH   1   7
BRANCH   4  23
ATOM     23  C   UNL     1      45.005   7.561  11.415  0.00  0.00    +0.000 C 
BRANCH  23  24
ATOM     24  N   UNL     1      43.876   6.700  11.791  0.00  0.00    +0.000 NA
ATOM     25  H   UNL     1      43.007   7.231  11.769  0.00  0.00    +0.000 HD
BRANCH  24  26
ATOM     26  C   UNL     1      43.746   5.506  10.947  0.00  0.00    +0.000 C 
BRANCH  26  27
ATOM     27  C   UNL     1      45.117   4.840  10.687  0.00  0.00    +0.000 C 
ATOM     28  C   UNL     1      45.477   4.747   9.197  0.00  0.00    +0.000 C 
ATOM     29  C   UNL     1      44.618   3.716   8.469  0.00  0.00    +0.000 C 
ATOM     30  C   UNL     1      44.553   2.378   9.209  0.00  0.00    +0.000 C 
ATOM     31  N   UNL     1      44.222   2.526  10.628  0.00  0.00    +0.000 NA
ATOM     32  C   UNL     1      45.163   3.427  11.295  0.00  0.00    +0.000 C 
ATOM     33  H   UNL     1      44.249   1.611  11.078  0.00  0.00    +0.000 HD
ENDBRANCH  26  27
ENDBRANCH  24  26
ENDBRANCH  23  24
ENDBRANCH   4  23
TORSDOF 7
ENDMDL
MODEL 8
REMARK VINA RESULT:    -6.613      3.419      5.099
REMARK INTER + INTRA:         -10.231
REMARK INTER:                  -9.082
REMARK INTRA:                  -1.149
REMARK UNBOUND:                -0.912
REMARK  Name = 
REMARK  7 active torsions:
REMARK  status: ('A' for Active; 'I' for Inactive)
REMARK    1  A    between atoms: C_2  and  C_20
REMARK    2  A    between atoms: N_3  and  C_4
REMARK    3  A    between atoms: C_4  and  C_5
REMARK    4  A    between atoms: C_8  and  C_9
REMARK    5  A    between atoms: C_9  and  N_10
REMARK    6  A    between atoms: N_10  and  C_11
REMARK    7  A    between atoms: C_11  and  C_12
REMARK                            x       y       z     vdW  Elec       q    Type
REMARK                         _______ _______ _______ _____ _____    ______ ____
ROOT
ATOM      1  C   UNL     1      49.398   8.987  12.533  0.00  0.00    +0.000 C 
ATOM      2  C   UNL     1      48.882   7.972  11.502  0.00  0.00    +0.000 C 
ATOM      3  C   UNL     1      48.138   6.806  12.149  0.00  0.00    +0.000 C 
ATOM      4  C   UNL     1      46.985   7.256  13.061  0.00  0.00    +0.000 C 
ATOM      5  C   UNL     1      47.450   8.341  14.051  0.00  0.00    +0.000 C 
ATOM      6  C   UNL     1      48.237   9.480  13.406  0.00  0.00    +0.000 C 
ENDROOT
BRANCH   1   7
ATOM      7  C   UNL     1      50.551   8.435  13.393  0.00  0.00    +0.000 C 
BRANCH   7  10
ATOM      8  O   UNL     1      52.034   7.200  15.517  0.00  0.00    +0.000 OA
ATOM      9  C   UNL     1      50.893   7.591  15.707  0.00  0.00    +0.000 C 
ATOM     10  N   UNL     1      50.129   8.221  14.756  0.00  0.00    +0.000 N 
ATOM     11  H   UNL     1      49.182   8.488  14.984  0.00  0.00    +0.000 HD
BRANCH   9  12
ATOM     12  C   UNL     1      50.253   7.512  17.021  0.00  0.00    +0.000 A 
ATOM     13  C   UNL     1      50.693   8.280  18.083  0.00  0.00    +0.000 A 
ATOM     14  S   UNL     1      49.726   8.107  19.480  0.00  0.00    +0.000 S 
ATOM     15  C   UNL     1      48.726   6.955  18.720  0.00  0.00    +0.000 A 
ATOM     16  N   UNL     1      47.667   6.399  19.364  0.00  0.00    +0.000 NA
ATOM     17  C   UNL     1      47.023   5.520  18.670  0.00  0.00    +0.000 A 
ATOM     18  N   UNL     1      47.346   5.138  17.393  0.00  0.00    +0.000 N 
ATOM     19  C   UNL     1      48.392   5.691  16.694  0.00  0.00    +0.000 A 
ATOM     20  O   UNL     1      48.625   5.356  15.537  0.00  0.00    +0.000 OA
ATOM     21  C   UNL     1      49.137   6.699  17.425  0.00  0.00    +0.000 A 
ATOM     22  H   UNL     1      46.806   4.442  16.903  0.00  0.00    +0.000 HD
ENDBRANCH   9  12
ENDBRANCH   7  10
ENDBRANCH   1   7
BRANCH   4  23
ATOM     23  C   UNL     1      45.727   7.696  12.271  0.00  0.00    +0.000 C 
BRANCH  23  24
ATOM     24  N   UNL     1      44.473   7.047  12.672  0.00  0.00    +0.000 NA
ATOM     25  H   UNL     1      43.811   7.054  11.900  0.00  0.00    +0.000 HD
BRANCH  24  26
ATOM     26  C   UNL     1      44.655   5.671  13.153  0.00  0.00    +0.000 C 
BRANCH  26  27
ATOM     27  C   UNL     1      43.457   4.771  12.771  0.00  0.00    +0.000 C 
ATOM     28  C   UNL     1      43.867   3.348  12.368  0.00  0.00    +0.000 C 
ATOM     29  C   UNL     1      44.570   3.321  11.012  0.00  0.00    +0.000 C 
ATOM     30  C   UNL     1      43.811   4.110   9.942  0.00  0.00    +0.000 C 
ATOM     31  N   UNL     1      43.431   5.453  10.384  0.00  0.00    +0.000 NA
ATOM     32  C   UNL     1      42.648   5.396  11.620  0.00  0.00    +0.000 C 
ATOM     33  H   UNL     1      42.882   5.906   9.654  0.00  0.00    +0.000 HD
ENDBRANCH  26  27
ENDBRANCH  24  26
ENDBRANCH  23  24
ENDBRANCH   4  23
TORSDOF 7
ENDMDL
MODEL 9
REMARK VINA RESULT:    -6.598      4.113      9.579
REMARK INTER + INTRA:         -10.210
REMARK INTER:                  -8.867
REMARK INTRA:                  -1.343
REMARK UNBOUND:                -0.912
REMARK  Name = 
REMARK  7 active torsions:
REMARK  status: ('A' for Active; 'I' for Inactive)
REMARK    1  A    between atoms: C_2  and  C_20
REMARK    2  A    between atoms: N_3  and  C_4
REMARK    3  A    between atoms: C_4  and  C_5
REMARK    4  A    between atoms: C_8  and  C_9
REMARK    5  A    between atoms: C_9  and  N_10
REMARK    6  A    between atoms: N_10  and  C_11
REMARK    7  A    between atoms: C_11  and  C_12
REMARK                            x       y       z     vdW  Elec       q    Type
REMARK                         _______ _______ _______ _____ _____    ______ ____
ROOT
ATOM      1  C   UNL     1      47.879   4.333  17.779  0.00  0.00    +0.000 C 
ATOM      2  C   UNL     1      49.015   3.610  18.518  0.00  0.00    +0.000 C 
ATOM      3  C   UNL     1      50.345   3.692  17.774  0.00  0.00    +0.000 C 
ATOM      4  C   UNL     1      50.768   5.135  17.449  0.00  0.00    +0.000 C 
ATOM      5  C   UNL     1      49.617   5.915  16.784  0.00  0.00    +0.000 C 
ATOM      6  C   UNL     1      48.277   5.789  17.505  0.00  0.00    +0.000 C 
ENDROOT
BRANCH   1   7
ATOM      7  C   UNL     1      47.455   3.615  16.483  0.00  0.00    +0.000 C 
BRANCH   7  10
ATOM      8  O   UNL     1      47.116   3.264  13.654  0.00  0.00    +0.000 OA
ATOM      9  C   UNL     1      46.771   4.305  14.193  0.00  0.00    +0.000 C 
ATOM     10  N   UNL     1      46.868   4.539  15.542  0.00  0.00    +0.000 N 
ATOM     11  H   UNL     1      46.587   5.438  15.907  0.00  0.00    +0.000 HD
BRANCH   9  12
ATOM     12  C   UNL     1      46.119   5.385  13.452  0.00  0.00    +0.000 A 
ATOM     13  C   UNL     1      46.742   6.605  13.261  0.00  0.00    +0.000 A 
ATOM     14  S   UNL     1      45.842   7.668  12.271  0.00  0.00    +0.000 S 
ATOM     15  C   UNL     1      44.568   6.545  12.119  0.00  0.00    +0.000 A 
ATOM     16  N   UNL     1      43.466   6.819  11.374  0.00  0.00    +0.000 NA
ATOM     17  C   UNL     1      42.574   5.885  11.379  0.00  0.00    +0.000 A 
ATOM     18  N   UNL     1      42.677   4.705  12.070  0.00  0.00    +0.000 N 
ATOM     19  C   UNL     1      43.783   4.375  12.816  0.00  0.00    +0.000 A 
ATOM     20  O   UNL     1      43.859   3.290  13.386  0.00  0.00    +0.000 OA
ATOM     21  C   UNL     1      44.823   5.386  12.826  0.00  0.00    +0.000 A 
ATOM     22  H   UNL     1      41.942   4.015  12.038  0.00  0.00    +0.000 HD
ENDBRANCH   9  12
ENDBRANCH   7  10
ENDBRANCH   1   7
BRANCH   4  23
ATOM     23  C   UNL     1      51.341   5.886  18.677  0.00  0.00    +0.000 C 
BRANCH  23  24
ATOM     24  N   UNL     1      51.313   7.352  18.586  0.00  0.00    +0.000 NA
ATOM     25  H   UNL     1      50.992   7.640  17.664  0.00  0.00    +0.000 HD
BRANCH  24  26
ATOM     26  C   UNL     1      50.483   7.985  19.618  0.00  0.00    +0.000 C 
BRANCH  26  27
ATOM     27  C   UNL     1      50.269   9.490  19.333  0.00  0.00    +0.000 C 
ATOM     28  C   UNL     1      48.846   9.974  19.647  0.00  0.00    +0.000 C 
ATOM     29  C   UNL     1      47.829   9.439  18.642  0.00  0.00    +0.000 C 
ATOM     30  C   UNL     1      48.278   9.632  17.192  0.00  0.00    +0.000 C 
ATOM     31  N   UNL     1      49.646   9.168  16.952  0.00  0.00    +0.000 NA
ATOM     32  C   UNL     1      50.588   9.819  17.863  0.00  0.00    +0.000 C 
ATOM     33  H   UNL     1      49.908   9.374  15.988  0.00  0.00    +0.000 HD
ENDBRANCH  26  27
ENDBRANCH  24  26
ENDBRANCH  23  24
ENDBRANCH   4  23
TORSDOF 7
ENDMDL
