MODEL 1
REMARK VINA RESULT:    -9.219      0.000      0.000
REMARK INTER + INTRA:         -13.263
REMARK INTER:                 -12.453
REMARK INTRA:                  -0.810
REMARK UNBOUND:                -0.810
REMARK  Name = 
REMARK  7 active torsions:
REMARK  status: ('A' for Active; 'I' for Inactive)
REMARK    1  A    between atoms: C_1  and  C_2
REMARK    2  A    between atoms: C_2  and  C_3
REMARK    3  A    between atoms: C_2  and  C_14
REMARK    4  A    between atoms: C_3  and  N_4
REMARK    5  A    between atoms: C_8  and  C_9
REMARK    6  A    between atoms: C_18  and  N_19
REMARK    7  A    between atoms: N_19  and  C_20
REMARK                            x       y       z     vdW  Elec       q    Type
REMARK                         _______ _______ _______ _____ _____    ______ ____
ROOT
ATOM      1  C   UNL     1      42.511   5.757  11.870  0.00  0.00    +0.000 C 
ATOM      2  C   UNL     1      43.290   4.525  12.338  0.00  0.00    +0.000 C 
ENDROOT
BRANCH   2   3
ATOM      3  C   UNL     1      44.686   4.915  12.806  0.00  0.00    +0.000 A 
ATOM      4  C   UNL     1      45.236   6.127  12.401  0.00  0.00    +0.000 A 
ATOM      5  C   UNL     1      46.485   6.486  12.889  0.00  0.00    +0.000 A 
ATOM      6  C   UNL     1      47.151   5.628  13.758  0.00  0.00    +0.000 A 
ATOM      7  C   UNL     1      46.557   4.423  14.110  0.00  0.00    +0.000 A 
ATOM      8  N   UNL     1      45.334   4.070  13.654  0.00  0.00    +0.000 NA
BRANCH   7   9
ATOM      9  N   UNL     1      47.167   3.526  14.997  0.00  0.00    +0.000 N 
ATOM     10  H   UNL     1      47.525   2.755  14.439  0.00  0.00    +0.000 HD
BRANCH   9  11
ATOM     11  C   UNL     1      47.934   3.863  16.157  0.00  0.00    +0.000 C 
ATOM     12  C   UNL     1      48.617   2.641  16.807  0.00  0.00    +0.000 C 
ATOM     13  C   UNL     1      48.116   3.147  18.173  0.00  0.00    +0.000 C 
ATOM     14  C   UNL     1      47.057   3.977  17.424  0.00  0.00    +0.000 C 
ENDBRANCH   9  11
ENDBRANCH   7   9
ENDBRANCH   2   3
BRANCH   2  15
ATOM     15  C   UNL     1      43.405   3.445  11.245  0.00  0.00    +0.000 C 
BRANCH  15  16
ATOM     16  N   UNL     1      43.644   4.033   9.928  0.00  0.00    +0.000 N 
ATOM     17  C   UNL     1      44.681   3.551   9.145  0.00  0.00    +0.000 A 
ATOM     18  C   UNL     1      45.069   2.218   9.127  0.00  0.00    +0.000 A 
ATOM     19  C   UNL     1      46.070   1.800   8.247  0.00  0.00    +0.000 A 
ATOM     20  C   UNL     1      46.654   2.717   7.377  0.00  0.00    +0.000 A 
ATOM     21  C   UNL     1      46.211   4.026   7.462  0.00  0.00    +0.000 A 
ATOM     22  N   UNL     1      45.251   4.457   8.325  0.00  0.00    +0.000 NA
ATOM     23  H   UNL     1      43.703   5.048   9.890  0.00  0.00    +0.000 HD
BRANCH  20  24
ATOM     24  C   UNL     1      47.682   2.236   6.420  0.00  0.00    +0.000 C 
ATOM     25  N   UNL     1      47.945   2.971   5.302  0.00  0.00    +0.000 N 
ATOM     26  O   UNL     1      48.288   1.192   6.617  0.00  0.00    +0.000 OA
ATOM     27  H   UNL     1      47.495   3.829   5.029  0.00  0.00    +0.000 HD
ATOM     28  H   UNL     1      48.642   2.590   4.668  0.00  0.00    +0.000 HD
ENDBRANCH  20  24
ENDBRANCH  15  16
ENDBRANCH   2  15
TORSDOF 6
ENDMDL
MODEL 2
REMARK VINA RESULT:    -8.603      1.987      3.099
REMARK INTER + INTRA:         -12.431
REMARK INTER:                 -11.365
REMARK INTRA:                  -1.066
REMARK UNBOUND:                -0.810
REMARK  Name = 
REMARK  7 active torsions:
REMARK  status: ('A' for Active; 'I' for Inactive)
REMARK    1  A    between atoms: C_1  and  C_2
REMARK    2  A    between atoms: C_2  and  C_3
REMARK    3  A    between atoms: C_2  and  C_14
REMARK    4  A    between atoms: C_3  and  N_4
REMARK    5  A    between atoms: C_8  and  C_9
REMARK    6  A    between atoms: C_18  and  N_19
REMARK    7  A    between atoms: N_19  and  C_20
REMARK                            x       y       z     vdW  Elec       q    Type
REMARK                         _______ _______ _______ _____ _____    ______ ____
ROOT
ATOM      1  C   UNL     1      43.235   6.882  11.389  0.00  0.00    +0.000 C 
ATOM      2  C   UNL     1      43.392   5.487  11.999  0.00  0.00    +0.000 C 
ENDROOT
BRANCH   2   3
ATOM      3  C   UNL     1      44.750   5.341  12.672  0.00  0.00    +0.000 A 
ATOM      4  C   UNL     1      45.289   4.074  12.872  0.00  0.00    +0.000 A 
ATOM      5  C   UNL     1      46.554   3.970  13.433  0.00  0.00    +0.000 A 
ATOM      6  C   UNL     1      47.241   5.128  13.785  0.00  0.00    +0.000 A 
ATOM      7  C   UNL     1      46.642   6.363  13.578  0.00  0.00    +0.000 A 
ATOM      8  N   UNL     1      45.417   6.476  13.017  0.00  0.00    +0.000 NA
BRANCH   7   9
ATOM      9  N   UNL     1      47.291   7.565  13.892  0.00  0.00    +0.000 N 
ATOM     10  H   UNL     1      47.446   7.564  14.897  0.00  0.00    +0.000 HD
BRANCH   9  11
ATOM     11  C   UNL     1      48.290   8.224  13.109  0.00  0.00    +0.000 C 
ATOM     12  C   UNL     1      48.303   7.766  11.634  0.00  0.00    +0.000 C 
ATOM     13  C   UNL     1      49.835   7.642  11.736  0.00  0.00    +0.000 C 
ATOM     14  C   UNL     1      49.681   7.569  13.266  0.00  0.00    +0.000 C 
ENDBRANCH   9  11
ENDBRANCH   7   9
ENDBRANCH   2   3
BRANCH   2  15
ATOM     15  C   UNL     1      43.219   4.362  10.960  0.00  0.00    +0.000 C 
BRANCH  15  16
ATOM     16  N   UNL     1      43.728   4.756   9.648  0.00  0.00    +0.000 N 
ATOM     17  C   UNL     1      44.729   4.005   9.051  0.00  0.00    +0.000 A 
ATOM     18  C   UNL     1      44.834   2.626   9.186  0.00  0.00    +0.000 A 
ATOM     19  C   UNL     1      45.823   1.935   8.484  0.00  0.00    +0.000 A 
ATOM     20  C   UNL     1      46.682   2.628   7.636  0.00  0.00    +0.000 A 
ATOM     21  C   UNL     1      46.512   4.000   7.561  0.00  0.00    +0.000 A 
ATOM     22  N   UNL     1      45.565   4.695   8.251  0.00  0.00    +0.000 NA
ATOM     23  H   UNL     1      43.998   5.730   9.541  0.00  0.00    +0.000 HD
BRANCH  20  24
ATOM     24  C   UNL     1      47.695   1.863   6.866  0.00  0.00    +0.000 C 
ATOM     25  N   UNL     1      48.630   2.540   6.141  0.00  0.00    +0.000 N 
ATOM     26  O   UNL     1      47.697   0.639   6.869  0.00  0.00    +0.000 OA
ATOM     27  H   UNL     1      48.709   3.539   6.049  0.00  0.00    +0.000 HD
ATOM     28  H   UNL     1      49.289   1.971   5.615  0.00  0.00    +0.000 HD
ENDBRANCH  20  24
ENDBRANCH  15  16
ENDBRANCH   2  15
TORSDOF 6
ENDMDL
MODEL 3
REMARK VINA RESULT:    -7.709      3.160      8.017
REMARK INTER + INTRA:         -11.223
REMARK INTER:                 -10.274
REMARK INTRA:                  -0.950
REMARK UNBOUND:                -0.810
REMARK  Name = 
REMARK  7 active torsions:
REMARK  status: ('A' for Active; 'I' for Inactive)
REMARK    1  A    between atoms: C_1  and  C_2
REMARK    2  A    between atoms: C_2  and  C_3
REMARK    3  A    between atoms: C_2  and  C_14
REMARK    4  A    between atoms: C_3  and  N_4
REMARK    5  A    between atoms: C_8  and  C_9
REMARK    6  A    between atoms: C_18  and  N_19
REMARK    7  A    between atoms: N_19  and  C_20
REMARK                            x       y       z     vdW  Elec       q    Type
REMARK                         _______ _______ _______ _____ _____    ______ ____
ROOT
ATOM      1  C   UNL     1      45.672   7.932  12.843  0.00  0.00    +0.000 C 
ATOM      2  C   UNL     1      46.213   6.698  12.117  0.00  0.00    +0.000 C 
ENDROOT
BRANCH   2   3
ATOM      3  C   UNL     1      45.104   5.682  11.880  0.00  0.00    +0.000 A 
ATOM      4  C   UNL     1      43.809   5.961  12.304  0.00  0.00    +0.000 A 
ATOM      5  C   UNL     1      42.804   5.046  12.022  0.00  0.00    +0.000 A 
ATOM      6  C   UNL     1      43.119   3.878  11.334  0.00  0.00    +0.000 A 
ATOM      7  C   UNL     1      44.434   3.647  10.954  0.00  0.00    +0.000 A 
ATOM      8  N   UNL     1      45.417   4.539  11.209  0.00  0.00    +0.000 NA
BRANCH   7   9
ATOM      9  N   UNL     1      44.810   2.501  10.241  0.00  0.00    +0.000 N 
ATOM     10  H   UNL     1      44.491   1.699  10.780  0.00  0.00    +0.000 HD
BRANCH   9  11
ATOM     11  C   UNL     1      44.800   2.339   8.820  0.00  0.00    +0.000 C 
ATOM     12  C   UNL     1      46.151   1.848   8.257  0.00  0.00    +0.000 C 
ATOM     13  C   UNL     1      46.039   2.934   7.171  0.00  0.00    +0.000 C 
ATOM     14  C   UNL     1      45.040   3.674   8.079  0.00  0.00    +0.000 C 
ENDBRANCH   9  11
ENDBRANCH   7   9
ENDBRANCH   2   3
BRANCH   2  15
ATOM     15  C   UNL     1      47.366   6.019  12.880  0.00  0.00    +0.000 C 
BRANCH  15  16
ATOM     16  N   UNL     1      46.876   4.996  13.802  0.00  0.00    +0.000 N 
ATOM     17  C   UNL     1      47.527   4.798  15.009  0.00  0.00    +0.000 A 
ATOM     18  C   UNL     1      48.116   5.823  15.738  0.00  0.00    +0.000 A 
ATOM     19  C   UNL     1      48.680   5.552  16.986  0.00  0.00    +0.000 A 
ATOM     20  C   UNL     1      48.627   4.260  17.503  0.00  0.00    +0.000 A 
ATOM     21  C   UNL     1      48.025   3.296  16.711  0.00  0.00    +0.000 A 
ATOM     22  N   UNL     1      47.486   3.537  15.484  0.00  0.00    +0.000 NA
ATOM     23  H   UNL     1      46.714   4.072  13.408  0.00  0.00    +0.000 HD
BRANCH  20  24
ATOM     24  C   UNL     1      49.192   4.008  18.851  0.00  0.00    +0.000 C 
ATOM     25  N   UNL     1      48.417   3.402  19.795  0.00  0.00    +0.000 N 
ATOM     26  O   UNL     1      50.337   4.341  19.128  0.00  0.00    +0.000 OA
ATOM     27  H   UNL     1      47.461   3.106  19.686  0.00  0.00    +0.000 HD
ATOM     28  H   UNL     1      48.843   3.269  20.709  0.00  0.00    +0.000 HD
ENDBRANCH  20  24
ENDBRANCH  15  16
ENDBRANCH   2  15
TORSDOF 6
ENDMDL
MODEL 4
REMARK VINA RESULT:    -7.392      2.896      8.130
REMARK INTER + INTRA:         -10.795
REMARK INTER:                 -10.105
REMARK INTRA:                  -0.690
REMARK UNBOUND:                -0.810
REMARK  Name = 
REMARK  7 active torsions:
REMARK  status: ('A' for Active; 'I' for Inactive)
REMARK    1  A    between atoms: C_1  and  C_2
REMARK    2  A    between atoms: C_2  and  C_3
REMARK    3  A    between atoms: C_2  and  C_14
REMARK    4  A    between atoms: C_3  and  N_4
REMARK    5  A    between atoms: C_8  and  C_9
REMARK    6  A    between atoms: C_18  and  N_19
REMARK    7  A    between atoms: N_19  and  C_20
REMARK                            x       y       z     vdW  Elec       q    Type
REMARK                         _______ _______ _______ _____ _____    ______ ____
ROOT
ATOM      1  C   UNL     1      44.720   7.318  11.321  0.00  0.00    +0.000 C 
ATOM      2  C   UNL     1      45.621   6.139  11.697  0.00  0.00    +0.000 C 
ENDROOT
BRANCH   2   3
ATOM      3  C   UNL     1      45.131   4.854  11.043  0.00  0.00    +0.000 A 
ATOM      4  C   UNL     1      44.332   3.973  11.765  0.00  0.00    +0.000 A 
ATOM      5  C   UNL     1      43.848   2.839  11.127  0.00  0.00    +0.000 A 
ATOM      6  C   UNL     1      44.180   2.612   9.795  0.00  0.00    +0.000 A 
ATOM      7  C   UNL     1      44.997   3.519   9.134  0.00  0.00    +0.000 A 
ATOM      8  N   UNL     1      45.460   4.635   9.740  0.00  0.00    +0.000 NA
BRANCH   7   9
ATOM      9  N   UNL     1      45.349   3.357   7.787  0.00  0.00    +0.000 N 
ATOM     10  H   UNL     1      44.662   3.869   7.238  0.00  0.00    +0.000 HD
BRANCH   9  11
ATOM     11  C   UNL     1      46.674   3.323   7.251  0.00  0.00    +0.000 C 
ATOM     12  C   UNL     1      46.702   3.258   5.709  0.00  0.00    +0.000 C 
ATOM     13  C   UNL     1      47.752   2.137   5.822  0.00  0.00    +0.000 C 
ATOM     14  C   UNL     1      47.273   1.898   7.265  0.00  0.00    +0.000 C 
ENDBRANCH   9  11
ENDBRANCH   7   9
ENDBRANCH   2   3
BRANCH   2  15
ATOM     15  C   UNL     1      45.715   5.927  13.221  0.00  0.00    +0.000 C 
BRANCH  15  16
ATOM     16  N   UNL     1      47.078   6.124  13.710  0.00  0.00    +0.000 N 
ATOM     17  C   UNL     1      47.507   5.428  14.829  0.00  0.00    +0.000 A 
ATOM     18  C   UNL     1      47.098   4.135  15.128  0.00  0.00    +0.000 A 
ATOM     19  C   UNL     1      47.642   3.474  16.231  0.00  0.00    +0.000 A 
ATOM     20  C   UNL     1      48.610   4.105  17.008  0.00  0.00    +0.000 A 
ATOM     21  C   UNL     1      48.960   5.394  16.642  0.00  0.00    +0.000 A 
ATOM     22  N   UNL     1      48.427   6.063  15.582  0.00  0.00    +0.000 NA
ATOM     23  H   UNL     1      47.377   7.087  13.839  0.00  0.00    +0.000 HD
BRANCH  20  24
ATOM     24  C   UNL     1      49.206   3.362  18.147  0.00  0.00    +0.000 C 
ATOM     25  N   UNL     1      48.551   3.339  19.342  0.00  0.00    +0.000 N 
ATOM     26  O   UNL     1      50.276   2.780  18.028  0.00  0.00    +0.000 OA
ATOM     27  H   UNL     1      47.682   3.797  19.558  0.00  0.00    +0.000 HD
ATOM     28  H   UNL     1      49.010   2.834  20.095  0.00  0.00    +0.000 HD
ENDBRANCH  20  24
ENDBRANCH  15  16
ENDBRANCH   2  15
TORSDOF 6
ENDMDL
MODEL 5
REMARK VINA RESULT:    -7.192      3.205      8.296
REMARK INTER + INTRA:         -10.525
REMARK INTER:                  -9.787
REMARK INTRA:                  -0.738
REMARK UNBOUND:                -0.810
REMARK  Name = 
REMARK  7 active torsions:
REMARK  status: ('A' for Active; 'I' for Inactive)
REMARK    1  A    between atoms: C_1  and  C_2
REMARK    2  A    between atoms: C_2  and  C_3
REMARK    3  A    between atoms: C_2  and  C_14
REMARK    4  A    between atoms: C_3  and  N_4
REMARK    5  A    between atoms: C_8  and  C_9
REMARK    6  A    between atoms: C_18  and  N_19
REMARK    7  A    between atoms: N_19  and  C_20
REMARK                            x       y       z     vdW  Elec       q    Type
REMARK                         _______ _______ _______ _____ _____    ______ ____
ROOT
ATOM      1  C   UNL     1      47.776   5.930  13.026  0.00  0.00    +0.000 C 
ATOM      2  C   UNL     1      46.926   4.731  13.453  0.00  0.00    +0.000 C 
ENDROOT
BRANCH   2   3
ATOM      3  C   UNL     1      45.614   4.696  12.682  0.00  0.00    +0.000 A 
ATOM      4  C   UNL     1      44.406   4.707  13.373  0.00  0.00    +0.000 A 
ATOM      5  C   UNL     1      43.224   4.736  12.646  0.00  0.00    +0.000 A 
ATOM      6  C   UNL     1      43.279   4.746  11.255  0.00  0.00    +0.000 A 
ATOM      7  C   UNL     1      44.515   4.716  10.624  0.00  0.00    +0.000 A 
ATOM      8  N   UNL     1      45.672   4.704  11.322  0.00  0.00    +0.000 NA
BRANCH   7   9
ATOM      9  N   UNL     1      44.636   4.746   9.228  0.00  0.00    +0.000 N 
ATOM     10  H   UNL     1      45.239   5.532   9.000  0.00  0.00    +0.000 HD
BRANCH   9  11
ATOM     11  C   UNL     1      44.729   3.616   8.356  0.00  0.00    +0.000 C 
ATOM     12  C   UNL     1      45.108   2.313   9.092  0.00  0.00    +0.000 C 
ATOM     13  C   UNL     1      46.142   2.043   7.982  0.00  0.00    +0.000 C 
ATOM     14  C   UNL     1      46.097   3.543   7.640  0.00  0.00    +0.000 C 
ENDBRANCH   9  11
ENDBRANCH   7   9
ENDBRANCH   2   3
BRANCH   2  15
ATOM     15  C   UNL     1      46.625   4.726  14.964  0.00  0.00    +0.000 C 
BRANCH  15  16
ATOM     16  N   UNL     1      47.083   3.493  15.602  0.00  0.00    +0.000 N 
ATOM     17  C   UNL     1      48.332   3.459  16.201  0.00  0.00    +0.000 A 
ATOM     18  C   UNL     1      48.897   4.547  16.854  0.00  0.00    +0.000 A 
ATOM     19  C   UNL     1      50.125   4.405  17.503  0.00  0.00    +0.000 A 
ATOM     20  C   UNL     1      50.763   3.167  17.512  0.00  0.00    +0.000 A 
ATOM     21  C   UNL     1      50.133   2.136  16.836  0.00  0.00    +0.000 A 
ATOM     22  N   UNL     1      48.946   2.259  16.182  0.00  0.00    +0.000 NA
ATOM     23  H   UNL     1      47.005   2.642  15.051  0.00  0.00    +0.000 HD
BRANCH  20  24
ATOM     24  C   UNL     1      52.045   3.031  18.249  0.00  0.00    +0.000 C 
ATOM     25  N   UNL     1      52.197   3.671  19.443  0.00  0.00    +0.000 N 
ATOM     26  O   UNL     1      52.964   2.362  17.797  0.00  0.00    +0.000 OA
ATOM     27  H   UNL     1      51.520   4.262  19.897  0.00  0.00    +0.000 HD
ATOM     28  H   UNL     1      53.099   3.563  19.898  0.00  0.00    +0.000 HD
ENDBRANCH  20  24
ENDBRANCH  15  16
ENDBRANCH   2  15
TORSDOF 6
ENDMDL
MODEL 6
REMARK VINA RESULT:    -6.602      3.752      7.330
REMARK INTER + INTRA:          -9.728
REMARK INTER:                  -9.089
REMARK INTRA:                  -0.639
REMARK UNBOUND:                -0.810
REMARK  Name = 
REMARK  7 active torsions:
REMARK  status: ('A' for Active; 'I' for Inactive)
REMARK    1  A    between atoms: C_1  and  C_2
REMARK    2  A    between atoms: C_2  and  C_3
REMARK    3  A    between atoms: C_2  and  C_14
REMARK    4  A    between atoms: C_3  and  N_4
REMARK    5  A    between atoms: C_8  and  C_9
REMARK    6  A    between atoms: C_18  and  N_19
REMARK    7  A    between atoms: N_19  and  C_20
REMARK                            x       y       z     vdW  Elec       q    Type
REMARK                         _______ _______ _______ _____ _____    ______ ____
ROOT
ATOM      1  C   UNL     1      46.415   4.753  14.161  0.00  0.00    +0.000 C 
ATOM      2  C   UNL     1      45.345   5.420  13.293  0.00  0.00    +0.000 C 
ENDROOT
BRANCH   2   3
ATOM      3  C   UNL     1      44.865   4.470  12.203  0.00  0.00    +0.000 A 
ATOM      4  C   UNL     1      43.923   3.492  12.506  0.00  0.00    +0.000 A 
ATOM      5  C   UNL     1      43.457   2.678  11.483  0.00  0.00    +0.000 A 
ATOM      6  C   UNL     1      43.946   2.857  10.193  0.00  0.00    +0.000 A 
ATOM      7  C   UNL     1      44.900   3.838   9.957  0.00  0.00    +0.000 A 
ATOM      8  N   UNL     1      45.349   4.647  10.943  0.00  0.00    +0.000 NA
BRANCH   7   9
ATOM      9  N   UNL     1      45.415   4.081   8.677  0.00  0.00    +0.000 N 
ATOM     10  H   UNL     1      46.187   4.734   8.788  0.00  0.00    +0.000 HD
BRANCH   9  11
ATOM     11  C   UNL     1      45.552   3.128   7.619  0.00  0.00    +0.000 C 
ATOM     12  C   UNL     1      46.381   1.890   8.022  0.00  0.00    +0.000 C 
ATOM     13  C   UNL     1      47.154   2.035   6.697  0.00  0.00    +0.000 C 
ATOM     14  C   UNL     1      46.689   3.502   6.641  0.00  0.00    +0.000 C 
ENDBRANCH   9  11
ENDBRANCH   7   9
ENDBRANCH   2   3
BRANCH   2  15
ATOM     15  C   UNL     1      45.837   6.728  12.644  0.00  0.00    +0.000 C 
BRANCH  15  16
ATOM     16  N   UNL     1      46.749   7.457  13.522  0.00  0.00    +0.000 N 
ATOM     17  C   UNL     1      48.062   7.657  13.127  0.00  0.00    +0.000 A 
ATOM     18  C   UNL     1      48.440   7.863  11.806  0.00  0.00    +0.000 A 
ATOM     19  C   UNL     1      49.774   8.139  11.502  0.00  0.00    +0.000 A 
ATOM     20  C   UNL     1      50.712   8.232  12.526  0.00  0.00    +0.000 A 
ATOM     21  C   UNL     1      50.253   8.011  13.814  0.00  0.00    +0.000 A 
ATOM     22  N   UNL     1      48.961   7.722  14.129  0.00  0.00    +0.000 NA
ATOM     23  H   UNL     1      46.785   7.151  14.492  0.00  0.00    +0.000 HD
BRANCH  20  24
ATOM     24  C   UNL     1      52.115   8.573  12.180  0.00  0.00    +0.000 C 
ATOM     25  N   UNL     1      52.400   9.022  10.925  0.00  0.00    +0.000 N 
ATOM     26  O   UNL     1      53.015   8.451  13.000  0.00  0.00    +0.000 OA
ATOM     27  H   UNL     1      51.747   9.141  10.168  0.00  0.00    +0.000 HD
ATOM     28  H   UNL     1      53.377   9.224  10.731  0.00  0.00    +0.000 HD
ENDBRANCH  20  24
ENDBRANCH  15  16
ENDBRANCH   2  15
TORSDOF 6
ENDMDL
MODEL 7
REMARK VINA RESULT:    -6.524      2.973      4.984
REMARK INTER + INTRA:          -9.622
REMARK INTER:                  -8.444
REMARK INTRA:                  -1.178
REMARK UNBOUND:                -0.810
REMARK  Name = 
REMARK  7 active torsions:
REMARK  status: ('A' for Active; 'I' for Inactive)
REMARK    1  A    between atoms: C_1  and  C_2
REMARK    2  A    between atoms: C_2  and  C_3
REMARK    3  A    between atoms: C_2  and  C_14
REMARK    4  A    between atoms: C_3  and  N_4
REMARK    5  A    between atoms: C_8  and  C_9
REMARK    6  A    between atoms: C_18  and  N_19
REMARK    7  A    between atoms: N_19  and  C_20
REMARK                            x       y       z     vdW  Elec       q    Type
REMARK                         _______ _______ _______ _____ _____    ______ ____
ROOT
ATOM      1  C   UNL     1      49.433   8.093  12.883  0.00  0.00    +0.000 C 
ATOM      2  C   UNL     1      48.431   8.850  13.760  0.00  0.00    +0.000 C 
ENDROOT
BRANCH   2   3
ATOM      3  C   UNL     1      48.615   8.487  15.227  0.00  0.00    +0.000 A 
ATOM      4  C   UNL     1      48.453   9.463  16.205  0.00  0.00    +0.000 A 
ATOM      5  C   UNL     1      48.567   9.095  17.538  0.00  0.00    +0.000 A 
ATOM      6  C   UNL     1      48.845   7.769  17.858  0.00  0.00    +0.000 A 
ATOM      7  C   UNL     1      49.014   6.845  16.836  0.00  0.00    +0.000 A 
ATOM      8  N   UNL     1      48.890   7.190  15.535  0.00  0.00    +0.000 NA
BRANCH   7   9
ATOM      9  N   UNL     1      49.275   5.493  17.094  0.00  0.00    +0.000 N 
ATOM     10  H   UNL     1      49.666   5.440  18.031  0.00  0.00    +0.000 HD
BRANCH   9  11
ATOM     11  C   UNL     1      48.474   4.378  16.691  0.00  0.00    +0.000 C 
ATOM     12  C   UNL     1      47.109   4.321  17.410  0.00  0.00    +0.000 C 
ATOM     13  C   UNL     1      47.358   2.822  17.662  0.00  0.00    +0.000 C 
ATOM     14  C   UNL     1      48.859   3.082  17.439  0.00  0.00    +0.000 C 
ENDBRANCH   9  11
ENDBRANCH   7   9
ENDBRANCH   2   3
BRANCH   2  15
ATOM     15  C   UNL     1      46.969   8.587  13.353  0.00  0.00    +0.000 C 
BRANCH  15  16
ATOM     16  N   UNL     1      46.566   7.212  13.645  0.00  0.00    +0.000 N 
ATOM     17  C   UNL     1      45.969   6.451  12.653  0.00  0.00    +0.000 A 
ATOM     18  C   UNL     1      46.300   6.553  11.308  0.00  0.00    +0.000 A 
ATOM     19  C   UNL     1      45.709   5.691  10.382  0.00  0.00    +0.000 A 
ATOM     20  C   UNL     1      44.811   4.719  10.816  0.00  0.00    +0.000 A 
ATOM     21  C   UNL     1      44.534   4.688  12.172  0.00  0.00    +0.000 A 
ATOM     22  N   UNL     1      45.085   5.531  13.089  0.00  0.00    +0.000 NA
ATOM     23  H   UNL     1      46.012   7.073  14.487  0.00  0.00    +0.000 HD
BRANCH  20  24
ATOM     24  C   UNL     1      44.233   3.785   9.818  0.00  0.00    +0.000 C 
ATOM     25  N   UNL     1      44.196   4.153   8.506  0.00  0.00    +0.000 N 
ATOM     26  O   UNL     1      43.786   2.698  10.156  0.00  0.00    +0.000 OA
ATOM     27  H   UNL     1      44.514   5.027   8.119  0.00  0.00    +0.000 HD
ATOM     28  H   UNL     1      43.773   3.488   7.864  0.00  0.00    +0.000 HD
ENDBRANCH  20  24
ENDBRANCH  15  16
ENDBRANCH   2  15
TORSDOF 6
ENDMDL
MODEL 8
REMARK VINA RESULT:    -6.509      3.743      5.766
REMARK INTER + INTRA:          -9.602
REMARK INTER:                  -8.440
REMARK INTRA:                  -1.162
REMARK UNBOUND:                -0.810
REMARK  Name = 
REMARK  7 active torsions:
REMARK  status: ('A' for Active; 'I' for Inactive)
REMARK    1  A    between atoms: C_1  and  C_2
REMARK    2  A    between atoms: C_2  and  C_3
REMARK    3  A    between atoms: C_2  and  C_14
REMARK    4  A    between atoms: C_3  and  N_4
REMARK    5  A    between atoms: C_8  and  C_9
REMARK    6  A    between atoms: C_18  and  N_19
REMARK    7  A    between atoms: N_19  and  C_20
REMARK                            x       y       z     vdW  Elec       q    Type
REMARK                         _______ _______ _______ _____ _____    ______ ____
ROOT
ATOM      1  C   UNL     1      50.377   9.518  13.412  0.00  0.00    +0.000 C 
ATOM      2  C   UNL     1      49.300   8.469  13.698  0.00  0.00    +0.000 C 
ENDROOT
BRANCH   2   3
ATOM      3  C   UNL     1      49.675   7.625  14.908  0.00  0.00    +0.000 A 
ATOM      4  C   UNL     1      51.016   7.396  15.201  0.00  0.00    +0.000 A 
ATOM      5  C   UNL     1      51.334   6.675  16.343  0.00  0.00    +0.000 A 
ATOM      6  C   UNL     1      50.310   6.198  17.155  0.00  0.00    +0.000 A 
ATOM      7  C   UNL     1      48.990   6.444  16.800  0.00  0.00    +0.000 A 
ATOM      8  N   UNL     1      48.670   7.159  15.698  0.00  0.00    +0.000 NA
BRANCH   7   9
ATOM      9  N   UNL     1      47.916   6.008  17.587  0.00  0.00    +0.000 N 
ATOM     10  H   UNL     1      47.228   6.757  17.590  0.00  0.00    +0.000 HD
BRANCH   9  11
ATOM     11  C   UNL     1      47.390   4.680  17.651  0.00  0.00    +0.000 C 
ATOM     12  C   UNL     1      48.334   3.688  18.364  0.00  0.00    +0.000 C 
ATOM     13  C   UNL     1      48.089   2.698  17.209  0.00  0.00    +0.000 C 
ATOM     14  C   UNL     1      47.637   3.890  16.346  0.00  0.00    +0.000 C 
ENDBRANCH   9  11
ENDBRANCH   7   9
ENDBRANCH   2   3
BRANCH   2  15
ATOM     15  C   UNL     1      49.041   7.541  12.495  0.00  0.00    +0.000 C 
BRANCH  15  16
ATOM     16  N   UNL     1      48.391   6.297  12.903  0.00  0.00    +0.000 N 
ATOM     17  C   UNL     1      47.059   6.088  12.583  0.00  0.00    +0.000 A 
ATOM     18  C   UNL     1      46.473   6.545  11.409  0.00  0.00    +0.000 A 
ATOM     19  C   UNL     1      45.145   6.220  11.125  0.00  0.00    +0.000 A 
ATOM     20  C   UNL     1      44.425   5.419  12.008  0.00  0.00    +0.000 A 
ATOM     21  C   UNL     1      45.082   5.008  13.155  0.00  0.00    +0.000 A 
ATOM     22  N   UNL     1      46.370   5.330  13.459  0.00  0.00    +0.000 NA
ATOM     23  H   UNL     1      48.498   6.029  13.878  0.00  0.00    +0.000 HD
BRANCH  20  24
ATOM     24  C   UNL     1      43.030   5.050  11.659  0.00  0.00    +0.000 C 
ATOM     25  N   UNL     1      42.052   5.995  11.741  0.00  0.00    +0.000 N 
ATOM     26  O   UNL     1      42.748   3.912  11.308  0.00  0.00    +0.000 OA
ATOM     27  H   UNL     1      42.164   6.951  12.036  0.00  0.00    +0.000 HD
ATOM     28  H   UNL     1      41.110   5.688  11.511  0.00  0.00    +0.000 HD
ENDBRANCH  20  24
ENDBRANCH  15  16
ENDBRANCH   2  15
TORSDOF 6
ENDMDL
MODEL 9
REMARK VINA RESULT:    -6.477      3.735      5.772
REMARK INTER + INTRA:          -9.559
REMARK INTER:                  -8.362
REMARK INTRA:                  -1.196
REMARK UNBOUND:                -0.810
REMARK  Name = 
REMARK  7 active torsions:
REMARK  status: ('A' for Active; 'I' for Inactive)
REMARK    1  A    between atoms: C_1  and  C_2
REMARK    2  A    between atoms: C_2  and  C_3
REMARK    3  A    between atoms: C_2  and  C_14
REMARK    4  A    between atoms: C_3  and  N_4
REMARK    5  A    between atoms: C_8  and  C_9
REMARK    6  A    between atoms: C_18  and  N_19
REMARK    7  A    between atoms: N_19  and  C_20
REMARK                            x       y       z     vdW  Elec       q    Type
REMARK                         _______ _______ _______ _____ _____    ______ ____
ROOT
ATOM      1  C   UNL     1      50.901   8.157  15.018  0.00  0.00    +0.000 C 
ATOM      2  C   UNL     1      49.374   8.099  15.102  0.00  0.00    +0.000 C 
ENDROOT
BRANCH   2   3
ATOM      3  C   UNL     1      48.928   7.440  16.401  0.00  0.00    +0.000 A 
ATOM      4  C   UNL     1      48.771   8.212  17.548  0.00  0.00    +0.000 A 
ATOM      5  C   UNL     1      48.306   7.599  18.703  0.00  0.00    +0.000 A 
ATOM      6  C   UNL     1      48.019   6.238  18.685  0.00  0.00    +0.000 A 
ATOM      7  C   UNL     1      48.215   5.518  17.514  0.00  0.00    +0.000 A 
ATOM      8  N   UNL     1      48.652   6.108  16.379  0.00  0.00    +0.000 NA
BRANCH   7   9
ATOM      9  N   UNL     1      47.925   4.150  17.427  0.00  0.00    +0.000 N 
ATOM     10  H   UNL     1      47.431   4.007  16.549  0.00  0.00    +0.000 HD
BRANCH   9  11
ATOM     11  C   UNL     1      48.764   3.072  17.852  0.00  0.00    +0.000 C 
ATOM     12  C   UNL     1      50.263   3.439  17.862  0.00  0.00    +0.000 C 
ATOM     13  C   UNL     1      50.546   2.106  17.144  0.00  0.00    +0.000 C 
ATOM     14  C   UNL     1      49.071   2.084  16.703  0.00  0.00    +0.000 C 
ENDBRANCH   9  11
ENDBRANCH   7   9
ENDBRANCH   2   3
BRANCH   2  15
ATOM     15  C   UNL     1      48.742   7.351  13.913  0.00  0.00    +0.000 C 
BRANCH  15  16
ATOM     16  N   UNL     1      47.291   7.526  13.873  0.00  0.00    +0.000 N 
ATOM     17  C   UNL     1      46.497   6.519  13.349  0.00  0.00    +0.000 A 
ATOM     18  C   UNL     1      46.789   5.168  13.480  0.00  0.00    +0.000 A 
ATOM     19  C   UNL     1      45.893   4.215  12.993  0.00  0.00    +0.000 A 
ATOM     20  C   UNL     1      44.701   4.624  12.401  0.00  0.00    +0.000 A 
ATOM     21  C   UNL     1      44.489   5.989  12.307  0.00  0.00    +0.000 A 
ATOM     22  N   UNL     1      45.358   6.934  12.759  0.00  0.00    +0.000 NA
ATOM     23  H   UNL     1      46.951   8.398  13.474  0.00  0.00    +0.000 HD
BRANCH  20  24
ATOM     24  C   UNL     1      43.745   3.589  11.934  0.00  0.00    +0.000 C 
ATOM     25  N   UNL     1      43.825   2.329  12.448  0.00  0.00    +0.000 N 
ATOM     26  O   UNL     1      42.895   3.850  11.093  0.00  0.00    +0.000 OA
ATOM     27  H   UNL     1      44.493   1.999  13.124  0.00  0.00    +0.000 HD
ATOM     28  H   UNL     1      43.161   1.652  12.081  0.00  0.00    +0.000 HD
ENDBRANCH  20  24
ENDBRANCH  15  16
ENDBRANCH   2  15
TORSDOF 6
ENDMDL
