MODEL 1
REMARK VINA RESULT:    -8.647      0.000      0.000
REMARK INTER + INTRA:         -11.820
REMARK INTER:                 -11.175
REMARK INTRA:                  -0.645
REMARK UNBOUND:                -0.645
REMARK  Name = 
REMARK  5 active torsions:
REMARK  status: ('A' for Active; 'I' for Inactive)
REMARK    1  A    between atoms: C_2  and  C_4
REMARK    2  A    between atoms: C_7  and  N_8
REMARK    3  A    between atoms: N_8  and  C_9
REMARK    4  A    between atoms: C_9  and  C_10
REMARK    5  A    between atoms: C_14  and  C_15
REMARK                            x       y       z     vdW  Elec       q    Type
REMARK                         _______ _______ _______ _____ _____    ______ ____
ROOT
ATOM      1  C   UNL     1      43.778   4.592  11.273  0.00  0.00    +0.000 C 
ENDROOT
BRANCH   1   2
ATOM      2  C   UNL     1      44.903   5.401  11.883  0.00  0.00    +0.000 A 
ATOM      3  C   UNL     1      45.295   6.626  11.345  0.00  0.00    +0.000 A 
ATOM      4  C   UNL     1      46.321   7.320  11.964  0.00  0.00    +0.000 A 
ATOM      5  N   UNL     1      46.972   6.883  13.065  0.00  0.00    +0.000 NA
ATOM      6  C   UNL     1      46.610   5.684  13.583  0.00  0.00    +0.000 A 
ATOM      7  C   UNL     1      45.584   4.927  13.016  0.00  0.00    +0.000 A 
BRANCH   6   8
ATOM      8  C   UNL     1      47.359   5.251  14.776  0.00  0.00    +0.000 A 
ATOM      9  C   UNL     1      48.413   6.015  15.291  0.00  0.00    +0.000 A 
ATOM     10  N   UNL     1      49.142   5.702  16.398  0.00  0.00    +0.000 NA
ATOM     11  C   UNL     1      48.815   4.551  17.024  0.00  0.00    +0.000 A 
ATOM     12  C   UNL     1      47.805   3.714  16.592  0.00  0.00    +0.000 A 
ATOM     13  F   UNL     1      47.529   2.581  17.249  0.00  0.00    +0.000 F 
ATOM     14  C   UNL     1      47.072   4.063  15.463  0.00  0.00    +0.000 A 
ENDBRANCH   6   8
ENDBRANCH   1   2
BRANCH   1  15
ATOM     15  N   UNL     1      43.790   4.799   9.829  0.00  0.00    +0.000 N 
ATOM     16  H   UNL     1      43.941   5.777   9.598  0.00  0.00    +0.000 HD
BRANCH  15  20
ATOM     17  C   UNL     1      46.387   2.317   7.824  0.00  0.00    +0.000 A 
ATOM     18  C   UNL     1      46.382   3.680   7.573  0.00  0.00    +0.000 A 
ATOM     19  N   UNL     1      45.539   4.543   8.209  0.00  0.00    +0.000 NA
ATOM     20  C   UNL     1      44.690   4.001   9.108  0.00  0.00    +0.000 A 
ATOM     21  C   UNL     1      44.729   2.621   9.362  0.00  0.00    +0.000 A 
ATOM     22  N   UNL     1      45.555   1.743   8.733  0.00  0.00    +0.000 NA
BRANCH  17  24
ATOM     23  N   UNL     1      48.403   2.026   6.514  0.00  0.00    +0.000 N 
ATOM     24  C   UNL     1      47.313   1.420   7.078  0.00  0.00    +0.000 C 
ATOM     25  O   UNL     1      47.118   0.215   6.980  0.00  0.00    +0.000 OA
ATOM     26  H   UNL     1      49.074   1.471   6.003  0.00  0.00    +0.000 HD
ATOM     27  H   UNL     1      48.542   3.025   6.621  0.00  0.00    +0.000 HD
ENDBRANCH  17  24
ENDBRANCH  15  20
ENDBRANCH   1  15
TORSDOF 5
ENDMDL
MODEL 2
REMARK VINA RESULT:    -8.398      2.628      3.872
REMARK INTER + INTRA:         -11.497
REMARK INTER:                 -10.870
REMARK INTRA:                  -0.627
REMARK UNBOUND:                -0.645
REMARK  Name = 
REMARK  5 active torsions:
REMARK  status: ('A' for Active; 'I' for Inactive)
REMARK    1  A    between atoms: C_2  and  C_4
REMARK    2  A    between atoms: C_7  and  N_8
REMARK    3  A    between atoms: N_8  and  C_9
REMARK    4  A    between atoms: C_9  and  C_10
REMARK    5  A    between atoms: C_14  and  C_15
REMARK                            x       y       z     vdW  Elec       q    Type
REMARK                         _______ _______ _______ _____ _____    ______ ____
ROOT
ATOM      1  C   UNL     1      43.554   4.663  11.141  0.00  0.00    +0.000 C 
ENDROOT
BRANCH   1   2
ATOM      2  C   UNL     1      44.800   5.064  11.902  0.00  0.00    +0.000 A 
ATOM      3  C   UNL     1      45.365   4.232  12.866  0.00  0.00    +0.000 A 
ATOM      4  C   UNL     1      46.514   4.656  13.512  0.00  0.00    +0.000 A 
ATOM      5  N   UNL     1      47.128   5.834  13.265  0.00  0.00    +0.000 NA
ATOM      6  C   UNL     1      46.574   6.658  12.343  0.00  0.00    +0.000 A 
ATOM      7  C   UNL     1      45.418   6.300  11.649  0.00  0.00    +0.000 A 
BRANCH   6   8
ATOM      8  C   UNL     1      47.278   7.934  12.120  0.00  0.00    +0.000 A 
ATOM      9  C   UNL     1      46.627   9.163  12.282  0.00  0.00    +0.000 A 
ATOM     10  N   UNL     1      47.204  10.385  12.119  0.00  0.00    +0.000 NA
ATOM     11  C   UNL     1      48.505  10.389  11.757  0.00  0.00    +0.000 A 
ATOM     12  C   UNL     1      49.238   9.236  11.554  0.00  0.00    +0.000 A 
ATOM     13  F   UNL     1      50.524   9.299  11.188  0.00  0.00    +0.000 F 
ATOM     14  C   UNL     1      48.625   8.001  11.735  0.00  0.00    +0.000 A 
ENDBRANCH   6   8
ENDBRANCH   1   2
BRANCH   1  15
ATOM     15  N   UNL     1      43.783   4.896   9.720  0.00  0.00    +0.000 N 
ATOM     16  H   UNL     1      44.112   5.843   9.550  0.00  0.00    +0.000 HD
BRANCH  15  20
ATOM     17  C   UNL     1      46.222   2.083   7.970  0.00  0.00    +0.000 A 
ATOM     18  C   UNL     1      46.345   3.423   7.639  0.00  0.00    +0.000 A 
ATOM     19  N   UNL     1      45.558   4.392   8.188  0.00  0.00    +0.000 NA
ATOM     20  C   UNL     1      44.635   3.981   9.083  0.00  0.00    +0.000 A 
ATOM     21  C   UNL     1      44.546   2.621   9.420  0.00  0.00    +0.000 A 
ATOM     22  N   UNL     1      45.312   1.639   8.877  0.00  0.00    +0.000 NA
BRANCH  17  24
ATOM     23  N   UNL     1      46.819  -0.240   7.626  0.00  0.00    +0.000 N 
ATOM     24  C   UNL     1      47.091   1.066   7.316  0.00  0.00    +0.000 C 
ATOM     25  O   UNL     1      47.990   1.375   6.542  0.00  0.00    +0.000 OA
ATOM     26  H   UNL     1      47.367  -0.977   7.208  0.00  0.00    +0.000 HD
ATOM     27  H   UNL     1      46.062  -0.464   8.262  0.00  0.00    +0.000 HD
ENDBRANCH  17  24
ENDBRANCH  15  20
ENDBRANCH   1  15
TORSDOF 5
ENDMDL
MODEL 3
REMARK VINA RESULT:    -8.141      2.688      3.346
REMARK INTER + INTRA:         -11.166
REMARK INTER:                 -10.523
REMARK INTRA:                  -0.642
REMARK UNBOUND:                -0.645
REMARK  Name = 
REMARK  5 active torsions:
REMARK  status: ('A' for Active; 'I' for Inactive)
REMARK    1  A    between atoms: C_2  and  C_4
REMARK    2  A    between atoms: C_7  and  N_8
REMARK    3  A    between atoms: N_8  and  C_9
REMARK    4  A    between atoms: C_9  and  C_10
REMARK    5  A    between atoms: C_14  and  C_15
REMARK                            x       y       z     vdW  Elec       q    Type
REMARK                         _______ _______ _______ _____ _____    ______ ____
ROOT
ATOM      1  C   UNL     1      44.296   5.854  10.736  0.00  0.00    +0.000 C 
ENDROOT
BRANCH   1   2
ATOM      2  C   UNL     1      45.379   5.607  11.765  0.00  0.00    +0.000 A 
ATOM      3  C   UNL     1      45.280   4.573  12.694  0.00  0.00    +0.000 A 
ATOM      4  C   UNL     1      46.315   4.396  13.596  0.00  0.00    +0.000 A 
ATOM      5  N   UNL     1      47.424   5.166  13.634  0.00  0.00    +0.000 NA
ATOM      6  C   UNL     1      47.520   6.187  12.747  0.00  0.00    +0.000 A 
ATOM      7  C   UNL     1      46.518   6.427  11.806  0.00  0.00    +0.000 A 
BRANCH   6   8
ATOM      8  C   UNL     1      48.744   7.002  12.840  0.00  0.00    +0.000 A 
ATOM      9  C   UNL     1      49.414   7.174  14.057  0.00  0.00    +0.000 A 
ATOM     10  N   UNL     1      50.560   7.889  14.228  0.00  0.00    +0.000 NA
ATOM     11  C   UNL     1      51.064   8.485  13.126  0.00  0.00    +0.000 A 
ATOM     12  C   UNL     1      50.475   8.395  11.880  0.00  0.00    +0.000 A 
ATOM     13  F   UNL     1      51.015   9.013  10.823  0.00  0.00    +0.000 F 
ATOM     14  C   UNL     1      49.310   7.651  11.733  0.00  0.00    +0.000 A 
ENDBRANCH   6   8
ENDBRANCH   1   2
BRANCH   1  15
ATOM     15  N   UNL     1      43.856   4.566  10.209  0.00  0.00    +0.000 N 
ATOM     16  H   UNL     1      42.946   4.641   9.764  0.00  0.00    +0.000 HD
BRANCH  15  20
ATOM     17  C   UNL     1      46.468   2.534   7.765  0.00  0.00    +0.000 A 
ATOM     18  C   UNL     1      46.323   3.908   7.652  0.00  0.00    +0.000 A 
ATOM     19  N   UNL     1      45.469   4.626   8.436  0.00  0.00    +0.000 NA
ATOM     20  C   UNL     1      44.753   3.926   9.342  0.00  0.00    +0.000 A 
ATOM     21  C   UNL     1      44.935   2.538   9.454  0.00  0.00    +0.000 A 
ATOM     22  N   UNL     1      45.773   1.804   8.676  0.00  0.00    +0.000 NA
BRANCH  17  24
ATOM     23  N   UNL     1      48.483   2.510   6.421  0.00  0.00    +0.000 N 
ATOM     24  C   UNL     1      47.397   1.802   6.861  0.00  0.00    +0.000 C 
ATOM     25  O   UNL     1      47.209   0.635   6.536  0.00  0.00    +0.000 OA
ATOM     26  H   UNL     1      49.156   2.066   5.813  0.00  0.00    +0.000 HD
ATOM     27  H   UNL     1      48.616   3.471   6.716  0.00  0.00    +0.000 HD
ENDBRANCH  17  24
ENDBRANCH  15  20
ENDBRANCH   1  15
TORSDOF 5
ENDMDL
MODEL 4
REMARK VINA RESULT:    -7.773      2.452      2.904
REMARK INTER + INTRA:         -10.689
REMARK INTER:                 -10.082
REMARK INTRA:                  -0.607
REMARK UNBOUND:                -0.645
REMARK  Name = 
REMARK  5 active torsions:
REMARK  status: ('A' for Active; 'I' for Inactive)
REMARK    1  A    between atoms: C_2  and  C_4
REMARK    2  A    between atoms: C_7  and  N_8
REMARK    3  A    between atoms: N_8  and  C_9
REMARK    4  A    between atoms: C_9  and  C_10
REMARK    5  A    between atoms: C_14  and  C_15
REMARK                            x       y       z     vdW  Elec       q    Type
REMARK                         _______ _______ _______ _____ _____    ______ ____
ROOT
ATOM      1  C   UNL     1      43.914   5.003  11.080  0.00  0.00    +0.000 C 
ENDROOT
BRANCH   1   2
ATOM      2  C   UNL     1      44.618   6.290  11.457  0.00  0.00    +0.000 A 
ATOM      3  C   UNL     1      44.042   7.534  11.209  0.00  0.00    +0.000 A 
ATOM      4  C   UNL     1      44.736   8.670  11.594  0.00  0.00    +0.000 A 
ATOM      5  N   UNL     1      45.943   8.648  12.199  0.00  0.00    +0.000 NA
ATOM      6  C   UNL     1      46.520   7.443  12.426  0.00  0.00    +0.000 A 
ATOM      7  C   UNL     1      45.882   6.254  12.068  0.00  0.00    +0.000 A 
BRANCH   6   8
ATOM      8  C   UNL     1      47.840   7.477  13.079  0.00  0.00    +0.000 A 
ATOM      9  C   UNL     1      48.088   6.765  14.258  0.00  0.00    +0.000 A 
ATOM     10  N   UNL     1      49.281   6.723  14.914  0.00  0.00    +0.000 NA
ATOM     11  C   UNL     1      50.286   7.446  14.376  0.00  0.00    +0.000 A 
ATOM     12  C   UNL     1      50.146   8.198  13.226  0.00  0.00    +0.000 A 
ATOM     13  F   UNL     1      51.176   8.903  12.741  0.00  0.00    +0.000 F 
ATOM     14  C   UNL     1      48.919   8.216  12.572  0.00  0.00    +0.000 A 
ENDBRANCH   6   8
ENDBRANCH   1   2
BRANCH   1  15
ATOM     15  N   UNL     1      43.827   4.932   9.626  0.00  0.00    +0.000 N 
ATOM     16  H   UNL     1      43.965   5.845   9.203  0.00  0.00    +0.000 HD
BRANCH  15  20
ATOM     17  C   UNL     1      46.249   2.061   7.949  0.00  0.00    +0.000 A 
ATOM     18  C   UNL     1      46.346   3.384   7.548  0.00  0.00    +0.000 A 
ATOM     19  N   UNL     1      45.564   4.371   8.071  0.00  0.00    +0.000 NA
ATOM     20  C   UNL     1      44.671   3.995   9.012  0.00  0.00    +0.000 A 
ATOM     21  C   UNL     1      44.608   2.652   9.418  0.00  0.00    +0.000 A 
ATOM     22  N   UNL     1      45.371   1.653   8.903  0.00  0.00    +0.000 NA
BRANCH  17  24
ATOM     23  N   UNL     1      46.822  -0.274   7.652  0.00  0.00    +0.000 N 
ATOM     24  C   UNL     1      47.112   1.022   7.321  0.00  0.00    +0.000 C 
ATOM     25  O   UNL     1      48.021   1.306   6.550  0.00  0.00    +0.000 OA
ATOM     26  H   UNL     1      47.365  -1.026   7.253  0.00  0.00    +0.000 HD
ATOM     27  H   UNL     1      46.057  -0.478   8.286  0.00  0.00    +0.000 HD
ENDBRANCH  17  24
ENDBRANCH  15  20
ENDBRANCH   1  15
TORSDOF 5
ENDMDL
MODEL 5
REMARK VINA RESULT:    -7.707      3.584      7.138
REMARK INTER + INTRA:         -10.604
REMARK INTER:                  -9.909
REMARK INTRA:                  -0.695
REMARK UNBOUND:                -0.645
REMARK  Name = 
REMARK  5 active torsions:
REMARK  status: ('A' for Active; 'I' for Inactive)
REMARK    1  A    between atoms: C_2  and  C_4
REMARK    2  A    between atoms: C_7  and  N_8
REMARK    3  A    between atoms: N_8  and  C_9
REMARK    4  A    between atoms: C_9  and  C_10
REMARK    5  A    between atoms: C_14  and  C_15
REMARK                            x       y       z     vdW  Elec       q    Type
REMARK                         _______ _______ _______ _____ _____    ______ ____
ROOT
ATOM      1  C   UNL     1      44.002   6.681  11.452  0.00  0.00    +0.000 C 
ENDROOT
BRANCH   1   2
ATOM      2  C   UNL     1      43.982   5.208  11.105  0.00  0.00    +0.000 A 
ATOM      3  C   UNL     1      43.182   4.305  11.803  0.00  0.00    +0.000 A 
ATOM      4  C   UNL     1      43.201   2.974  11.421  0.00  0.00    +0.000 A 
ATOM      5  N   UNL     1      43.951   2.491  10.407  0.00  0.00    +0.000 NA
ATOM      6  C   UNL     1      44.747   3.358   9.735  0.00  0.00    +0.000 A 
ATOM      7  C   UNL     1      44.780   4.715  10.060  0.00  0.00    +0.000 A 
BRANCH   6   8
ATOM      8  C   UNL     1      45.551   2.776   8.645  0.00  0.00    +0.000 A 
ATOM      9  C   UNL     1      46.039   3.567   7.599  0.00  0.00    +0.000 A 
ATOM     10  N   UNL     1      46.806   3.118   6.567  0.00  0.00    +0.000 NA
ATOM     11  C   UNL     1      47.092   1.798   6.564  0.00  0.00    +0.000 A 
ATOM     12  C   UNL     1      46.647   0.925   7.537  0.00  0.00    +0.000 A 
ATOM     13  F   UNL     1      46.955  -0.377   7.479  0.00  0.00    +0.000 F 
ATOM     14  C   UNL     1      45.873   1.413   8.583  0.00  0.00    +0.000 A 
ENDBRANCH   6   8
ENDBRANCH   1   2
BRANCH   1  15
ATOM     15  N   UNL     1      44.670   6.845  12.739  0.00  0.00    +0.000 N 
ATOM     16  H   UNL     1      44.504   6.046  13.344  0.00  0.00    +0.000 HD
BRANCH  15  20
ATOM     17  C   UNL     1      48.735   7.468  12.640  0.00  0.00    +0.000 A 
ATOM     18  C   UNL     1      47.858   8.502  12.350  0.00  0.00    +0.000 A 
ATOM     19  N   UNL     1      46.504   8.344  12.367  0.00  0.00    +0.000 NA
ATOM     20  C   UNL     1      46.045   7.113  12.679  0.00  0.00    +0.000 A 
ATOM     21  C   UNL     1      46.953   6.089  12.991  0.00  0.00    +0.000 A 
ATOM     22  N   UNL     1      48.305   6.222  12.971  0.00  0.00    +0.000 NA
BRANCH  17  24
ATOM     23  N   UNL     1      50.853   7.734  13.785  0.00  0.00    +0.000 N 
ATOM     24  C   UNL     1      50.206   7.694  12.579  0.00  0.00    +0.000 C 
ATOM     25  O   UNL     1      50.804   7.828  11.518  0.00  0.00    +0.000 OA
ATOM     26  H   UNL     1      51.852   7.875  13.811  0.00  0.00    +0.000 HD
ATOM     27  H   UNL     1      50.332   7.610  14.646  0.00  0.00    +0.000 HD
ENDBRANCH  17  24
ENDBRANCH  15  20
ENDBRANCH   1  15
TORSDOF 5
ENDMDL
MODEL 6
REMARK VINA RESULT:    -7.635      3.392      7.474
REMARK INTER + INTRA:         -10.511
REMARK INTER:                 -10.171
REMARK INTRA:                  -0.341
REMARK UNBOUND:                -0.645
REMARK  Name = 
REMARK  5 active torsions:
REMARK  status: ('A' for Active; 'I' for Inactive)
REMARK    1  A    between atoms: C_2  and  C_4
REMARK    2  A    between atoms: C_7  and  N_8
REMARK    3  A    between atoms: N_8  and  C_9
REMARK    4  A    between atoms: C_9  and  C_10
REMARK    5  A    between atoms: C_14  and  C_15
REMARK                            x       y       z     vdW  Elec       q    Type
REMARK                         _______ _______ _______ _____ _____    ______ ____
ROOT
ATOM      1  C   UNL     1      45.843   7.104  12.388  0.00  0.00    +0.000 C 
ENDROOT
BRANCH   1   2
ATOM      2  C   UNL     1      45.065   6.096  11.568  0.00  0.00    +0.000 A 
ATOM      3  C   UNL     1      43.694   5.919  11.741  0.00  0.00    +0.000 A 
ATOM      4  C   UNL     1      43.044   4.990  10.946  0.00  0.00    +0.000 A 
ATOM      5  N   UNL     1      43.657   4.240  10.005  0.00  0.00    +0.000 NA
ATOM      6  C   UNL     1      44.994   4.392   9.843  0.00  0.00    +0.000 A 
ATOM      7  C   UNL     1      45.719   5.310  10.605  0.00  0.00    +0.000 A 
BRANCH   6   8
ATOM      8  C   UNL     1      45.615   3.543   8.811  0.00  0.00    +0.000 A 
ATOM      9  C   UNL     1      46.191   4.098   7.661  0.00  0.00    +0.000 A 
ATOM     10  N   UNL     1      46.803   3.392   6.671  0.00  0.00    +0.000 NA
ATOM     11  C   UNL     1      46.831   2.050   6.821  0.00  0.00    +0.000 A 
ATOM     12  C   UNL     1      46.278   1.398   7.907  0.00  0.00    +0.000 A 
ATOM     13  F   UNL     1      46.328   0.064   8.000  0.00  0.00    +0.000 F 
ATOM     14  C   UNL     1      45.666   2.145   8.907  0.00  0.00    +0.000 A 
ENDBRANCH   6   8
ENDBRANCH   1   2
BRANCH   1  15
ATOM     15  N   UNL     1      47.194   6.593  12.591  0.00  0.00    +0.000 N 
ATOM     16  H   UNL     1      47.884   7.334  12.515  0.00  0.00    +0.000 HD
BRANCH  15  20
ATOM     17  C   UNL     1      47.660   4.381  16.028  0.00  0.00    +0.000 A 
ATOM     18  C   UNL     1      48.340   5.578  15.864  0.00  0.00    +0.000 A 
ATOM     19  N   UNL     1      48.221   6.344  14.743  0.00  0.00    +0.000 NA
ATOM     20  C   UNL     1      47.400   5.876  13.779  0.00  0.00    +0.000 A 
ATOM     21  C   UNL     1      46.703   4.674  13.978  0.00  0.00    +0.000 A 
ATOM     22  N   UNL     1      46.815   3.891  15.083  0.00  0.00    +0.000 NA
BRANCH  17  24
ATOM     23  N   UNL     1      46.773   2.829  17.663  0.00  0.00    +0.000 N 
ATOM     24  C   UNL     1      47.851   3.574  17.264  0.00  0.00    +0.000 C 
ATOM     25  O   UNL     1      48.907   3.567  17.885  0.00  0.00    +0.000 OA
ATOM     26  H   UNL     1      46.841   2.252  18.488  0.00  0.00    +0.000 HD
ATOM     27  H   UNL     1      45.914   2.848  17.123  0.00  0.00    +0.000 HD
ENDBRANCH  17  24
ENDBRANCH  15  20
ENDBRANCH   1  15
TORSDOF 5
ENDMDL
MODEL 7
REMARK VINA RESULT:    -7.383      3.833      8.387
REMARK INTER + INTRA:         -10.186
REMARK INTER:                  -9.729
REMARK INTRA:                  -0.457
REMARK UNBOUND:                -0.645
REMARK  Name = 
REMARK  5 active torsions:
REMARK  status: ('A' for Active; 'I' for Inactive)
REMARK    1  A    between atoms: C_2  and  C_4
REMARK    2  A    between atoms: C_7  and  N_8
REMARK    3  A    between atoms: N_8  and  C_9
REMARK    4  A    between atoms: C_9  and  C_10
REMARK    5  A    between atoms: C_14  and  C_15
REMARK                            x       y       z     vdW  Elec       q    Type
REMARK                         _______ _______ _______ _____ _____    ______ ____
ROOT
ATOM      1  C   UNL     1      45.808   5.274  14.016  0.00  0.00    +0.000 C 
ENDROOT
BRANCH   1   2
ATOM      2  C   UNL     1      44.968   4.920  12.807  0.00  0.00    +0.000 A 
ATOM      3  C   UNL     1      43.589   5.120  12.794  0.00  0.00    +0.000 A 
ATOM      4  C   UNL     1      42.885   4.788  11.649  0.00  0.00    +0.000 A 
ATOM      5  N   UNL     1      43.454   4.280  10.534  0.00  0.00    +0.000 NA
ATOM      6  C   UNL     1      44.792   4.064  10.544  0.00  0.00    +0.000 A 
ATOM      7  C   UNL     1      45.569   4.376  11.661  0.00  0.00    +0.000 A 
BRANCH   6   8
ATOM      8  C   UNL     1      45.359   3.500   9.307  0.00  0.00    +0.000 A 
ATOM      9  C   UNL     1      45.702   4.318   8.223  0.00  0.00    +0.000 A 
ATOM     10  N   UNL     1      46.250   3.885   7.055  0.00  0.00    +0.000 NA
ATOM     11  C   UNL     1      46.455   2.554   6.947  0.00  0.00    +0.000 A 
ATOM     12  C   UNL     1      46.138   1.655   7.946  0.00  0.00    +0.000 A 
ATOM     13  F   UNL     1      46.356   0.345   7.782  0.00  0.00    +0.000 F 
ATOM     14  C   UNL     1      45.587   2.127   9.133  0.00  0.00    +0.000 A 
ENDBRANCH   6   8
ENDBRANCH   1   2
BRANCH   1  15
ATOM     15  N   UNL     1      46.610   4.111  14.379  0.00  0.00    +0.000 N 
ATOM     16  H   UNL     1      47.313   3.913  13.672  0.00  0.00    +0.000 HD
BRANCH  15  20
ATOM     17  C   UNL     1      48.489   4.397  18.028  0.00  0.00    +0.000 A 
ATOM     18  C   UNL     1      47.654   3.326  17.749  0.00  0.00    +0.000 A 
ATOM     19  N   UNL     1      47.007   3.189  16.556  0.00  0.00    +0.000 NA
ATOM     20  C   UNL     1      47.215   4.161  15.643  0.00  0.00    +0.000 A 
ATOM     21  C   UNL     1      48.084   5.223  15.941  0.00  0.00    +0.000 A 
ATOM     22  N   UNL     1      48.731   5.384  17.125  0.00  0.00    +0.000 NA
BRANCH  17  24
ATOM     23  N   UNL     1      48.482   3.924  20.403  0.00  0.00    +0.000 N 
ATOM     24  C   UNL     1      49.148   4.507  19.359  0.00  0.00    +0.000 C 
ATOM     25  O   UNL     1      50.222   5.076  19.512  0.00  0.00    +0.000 OA
ATOM     26  H   UNL     1      48.880   3.956  21.330  0.00  0.00    +0.000 HD
ATOM     27  H   UNL     1      47.599   3.452  20.243  0.00  0.00    +0.000 HD
ENDBRANCH  17  24
ENDBRANCH  15  20
ENDBRANCH   1  15
TORSDOF 5
ENDMDL
MODEL 8
REMARK VINA RESULT:    -6.641      3.687      7.843
REMARK INTER + INTRA:          -9.227
REMARK INTER:                  -8.744
REMARK INTRA:                  -0.482
REMARK UNBOUND:                -0.645
REMARK  Name = 
REMARK  5 active torsions:
REMARK  status: ('A' for Active; 'I' for Inactive)
REMARK    1  A    between atoms: C_2  and  C_4
REMARK    2  A    between atoms: C_7  and  N_8
REMARK    3  A    between atoms: N_8  and  C_9
REMARK    4  A    between atoms: C_9  and  C_10
REMARK    5  A    between atoms: C_14  and  C_15
REMARK                            x       y       z     vdW  Elec       q    Type
REMARK                         _______ _______ _______ _____ _____    ______ ____
ROOT
ATOM      1  C   UNL     1      48.379   7.521  13.456  0.00  0.00    +0.000 C 
ENDROOT
BRANCH   1   2
ATOM      2  C   UNL     1      47.073   7.408  12.699  0.00  0.00    +0.000 A 
ATOM      3  C   UNL     1      46.118   8.423  12.737  0.00  0.00    +0.000 A 
ATOM      4  C   UNL     1      44.952   8.259  12.007  0.00  0.00    +0.000 A 
ATOM      5  N   UNL     1      44.679   7.171  11.254  0.00  0.00    +0.000 NA
ATOM      6  C   UNL     1      45.593   6.170  11.227  0.00  0.00    +0.000 A 
ATOM      7  C   UNL     1      46.793   6.263  11.935  0.00  0.00    +0.000 A 
BRANCH   6   8
ATOM      8  C   UNL     1      45.241   5.004  10.400  0.00  0.00    +0.000 A 
ATOM      9  C   UNL     1      44.442   3.969  10.902  0.00  0.00    +0.000 A 
ATOM     10  N   UNL     1      44.050   2.869  10.202  0.00  0.00    +0.000 NA
ATOM     11  C   UNL     1      44.493   2.780   8.929  0.00  0.00    +0.000 A 
ATOM     12  C   UNL     1      45.299   3.734   8.340  0.00  0.00    +0.000 A 
ATOM     13  F   UNL     1      45.715   3.590   7.076  0.00  0.00    +0.000 F 
ATOM     14  C   UNL     1      45.677   4.851   9.076  0.00  0.00    +0.000 A 
ENDBRANCH   6   8
ENDBRANCH   1   2
BRANCH   1  15
ATOM     15  N   UNL     1      48.078   7.712  14.871  0.00  0.00    +0.000 N 
ATOM     16  H   UNL     1      47.114   8.003  15.007  0.00  0.00    +0.000 HD
BRANCH  15  20
ATOM     17  C   UNL     1      48.805   4.406  17.209  0.00  0.00    +0.000 A 
ATOM     18  C   UNL     1      49.199   5.666  17.631  0.00  0.00    +0.000 A 
ATOM     19  N   UNL     1      48.984   6.791  16.891  0.00  0.00    +0.000 NA
ATOM     20  C   UNL     1      48.362   6.620  15.705  0.00  0.00    +0.000 A 
ATOM     21  C   UNL     1      47.951   5.337  15.310  0.00  0.00    +0.000 A 
ATOM     22  N   UNL     1      48.165   4.203  16.028  0.00  0.00    +0.000 NA
BRANCH  17  24
ATOM     23  N   UNL     1      48.511   3.199  19.288  0.00  0.00    +0.000 N 
ATOM     24  C   UNL     1      49.092   3.210  18.049  0.00  0.00    +0.000 C 
ATOM     25  O   UNL     1      49.798   2.289  17.656  0.00  0.00    +0.000 OA
ATOM     26  H   UNL     1      48.659   2.411  19.903  0.00  0.00    +0.000 HD
ATOM     27  H   UNL     1      47.924   3.972  19.582  0.00  0.00    +0.000 HD
ENDBRANCH  17  24
ENDBRANCH  15  20
ENDBRANCH   1  15
TORSDOF 5
ENDMDL
MODEL 9
REMARK VINA RESULT:    -6.488      4.025      8.231
REMARK INTER + INTRA:          -9.029
REMARK INTER:                  -8.463
REMARK INTRA:                  -0.566
REMARK UNBOUND:                -0.645
REMARK  Name = 
REMARK  5 active torsions:
REMARK  status: ('A' for Active; 'I' for Inactive)
REMARK    1  A    between atoms: C_2  and  C_4
REMARK    2  A    between atoms: C_7  and  N_8
REMARK    3  A    between atoms: N_8  and  C_9
REMARK    4  A    between atoms: C_9  and  C_10
REMARK    5  A    between atoms: C_14  and  C_15
REMARK                            x       y       z     vdW  Elec       q    Type
REMARK                         _______ _______ _______ _____ _____    ______ ____
ROOT
ATOM      1  C   UNL     1      47.747   3.896  16.834  0.00  0.00    +0.000 C 
ENDROOT
BRANCH   1   2
ATOM      2  C   UNL     1      47.560   4.727  15.582  0.00  0.00    +0.000 A 
ATOM      3  C   UNL     1      48.267   5.912  15.382  0.00  0.00    +0.000 A 
ATOM      4  C   UNL     1      48.059   6.613  14.206  0.00  0.00    +0.000 A 
ATOM      5  N   UNL     1      47.209   6.220  13.233  0.00  0.00    +0.000 NA
ATOM      6  C   UNL     1      46.503   5.080  13.427  0.00  0.00    +0.000 A 
ATOM      7  C   UNL     1      46.660   4.317  14.586  0.00  0.00    +0.000 A 
BRANCH   6   8
ATOM      8  C   UNL     1      45.583   4.703  12.340  0.00  0.00    +0.000 A 
ATOM      9  C   UNL     1      45.571   5.397  11.123  0.00  0.00    +0.000 A 
ATOM     10  N   UNL     1      44.772   5.103  10.060  0.00  0.00    +0.000 NA
ATOM     11  C   UNL     1      43.920   4.068  10.219  0.00  0.00    +0.000 A 
ATOM     12  C   UNL     1      43.838   3.327  11.381  0.00  0.00    +0.000 A 
ATOM     13  F   UNL     1      42.968   2.314  11.486  0.00  0.00    +0.000 F 
ATOM     14  C   UNL     1      44.671   3.643  12.448  0.00  0.00    +0.000 A 
ENDBRANCH   6   8
ENDBRANCH   1   2
BRANCH   1  15
ATOM     15  N   UNL     1      48.911   4.399  17.554  0.00  0.00    +0.000 N 
ATOM     16  H   UNL     1      48.666   4.681  18.499  0.00  0.00    +0.000 HD
BRANCH  15  20
ATOM     17  C   UNL     1      52.053   1.745  17.617  0.00  0.00    +0.000 A 
ATOM     18  C   UNL     1      52.213   3.035  18.099  0.00  0.00    +0.000 A 
ATOM     19  N   UNL     1      51.203   3.951  18.097  0.00  0.00    +0.000 NA
ATOM     20  C   UNL     1      50.020   3.542  17.591  0.00  0.00    +0.000 A 
ATOM     21  C   UNL     1      49.876   2.223  17.131  0.00  0.00    +0.000 A 
ATOM     22  N   UNL     1      50.871   1.298  17.116  0.00  0.00    +0.000 NA
BRANCH  17  24
ATOM     23  N   UNL     1      52.992  -0.390  18.272  0.00  0.00    +0.000 N 
ATOM     24  C   UNL     1      53.200   0.796  17.620  0.00  0.00    +0.000 C 
ATOM     25  O   UNL     1      54.264   1.054  17.069  0.00  0.00    +0.000 OA
ATOM     26  H   UNL     1      53.728  -1.080  18.303  0.00  0.00    +0.000 HD
ATOM     27  H   UNL     1      52.097  -0.578  18.711  0.00  0.00    +0.000 HD
ENDBRANCH  17  24
ENDBRANCH  15  20
ENDBRANCH   1  15
TORSDOF 5
ENDMDL
