MODEL 1
REMARK VINA RESULT:    -7.994      0.000      0.000
REMARK INTER + INTRA:         -10.301
REMARK INTER:                 -10.097
REMARK INTRA:                  -0.204
REMARK UNBOUND:                -0.204
REMARK  Name = 
REMARK  5 active torsions:
REMARK  status: ('A' for Active; 'I' for Inactive)
REMARK    1  A    between atoms: N_1  and  C_2
REMARK    2  A    between atoms: C_2  and  C_3
REMARK    3  A    between atoms: C_6  and  C_7
REMARK    4  A    between atoms: C_7  and  N_8
REMARK    5  A    between atoms: C_13  and  C_14
REMARK                            x       y       z     vdW  Elec       q    Type
REMARK                         _______ _______ _______ _____ _____    ______ ____
ROOT
ATOM      1  N   UNL     1      44.932   4.501  11.416  0.00  0.00    +0.000 N 
ATOM      2  C   UNL     1      44.901   3.463  12.314  0.00  0.00    +0.000 A 
ATOM      3  C   UNL     1      45.937   3.641  13.203  0.00  0.00    +0.000 A 
ATOM      4  C   UNL     1      46.585   4.851  12.864  0.00  0.00    +0.000 A 
ATOM      5  N   UNL     1      47.668   5.419  13.448  0.00  0.00    +0.000 NA
ATOM      6  C   UNL     1      48.039   6.607  12.897  0.00  0.00    +0.000 A 
ATOM      7  C   UNL     1      47.382   7.260  11.859  0.00  0.00    +0.000 A 
ATOM      8  C   UNL     1      46.270   6.660  11.271  0.00  0.00    +0.000 A 
ATOM      9  C   UNL     1      45.902   5.412  11.782  0.00  0.00    +0.000 A 
ENDROOT
BRANCH   6  10
ATOM     10  C   UNL     1      49.281   7.228  13.461  0.00  0.00    +0.000 C 
ATOM     11  N   UNL     1      50.344   7.322  12.604  0.00  0.00    +0.000 N 
ATOM     12  O   UNL     1      49.351   7.643  14.612  0.00  0.00    +0.000 OA
ATOM     13  H   UNL     1      50.252   6.992  11.650  0.00  0.00    +0.000 HD
ATOM     14  H   UNL     1      51.199   7.758  12.920  0.00  0.00    +0.000 HD
ENDBRANCH   6  10
BRANCH   1  15
ATOM     15  C   UNL     1      44.060   4.600  10.252  0.00  0.00    +0.000 C 
BRANCH  15  19
ATOM     16  C   UNL     1      46.692   2.134   7.755  0.00  0.00    +0.000 C 
ATOM     17  C   UNL     1      45.468   1.469   8.402  0.00  0.00    +0.000 C 
ATOM     18  C   UNL     1      44.869   2.339   9.504  0.00  0.00    +0.000 C 
ATOM     19  C   UNL     1      44.512   3.760   9.032  0.00  0.00    +0.000 C 
ATOM     20  C   UNL     1      45.697   4.403   8.290  0.00  0.00    +0.000 C 
ATOM     21  C   UNL     1      46.285   3.506   7.199  0.00  0.00    +0.000 C 
BRANCH  16  22
ATOM     22  C   UNL     1      47.292   1.211   6.679  0.00  0.00    +0.000 C 
BRANCH  22  23
ATOM     23  N   UNL     1      48.490   1.778   6.071  0.00  0.00    +0.000 NA
ATOM     24  H   UNL     1      49.317   1.402   6.534  0.00  0.00    +0.000 HD
ATOM     25  H   UNL     1      48.512   2.786   6.221  0.00  0.00    +0.000 HD
ENDBRANCH  22  23
ENDBRANCH  16  22
ENDBRANCH  15  19
ENDBRANCH   1  15
TORSDOF 5
ENDMDL
MODEL 2
REMARK VINA RESULT:    -7.883      1.722      2.470
REMARK INTER + INTRA:         -10.161
REMARK INTER:                  -9.788
REMARK INTRA:                  -0.373
REMARK UNBOUND:                -0.204
REMARK  Name = 
REMARK  5 active torsions:
REMARK  status: ('A' for Active; 'I' for Inactive)
REMARK    1  A    between atoms: N_1  and  C_2
REMARK    2  A    between atoms: C_2  and  C_3
REMARK    3  A    between atoms: C_6  and  C_7
REMARK    4  A    between atoms: C_7  and  N_8
REMARK    5  A    between atoms: C_13  and  C_14
REMARK                            x       y       z     vdW  Elec       q    Type
REMARK                         _______ _______ _______ _____ _____    ______ ____
ROOT
ATOM      1  N   UNL     1      44.732   5.295  10.962  0.00  0.00    +0.000 N 
ATOM      2  C   UNL     1      45.050   6.618  10.779  0.00  0.00    +0.000 A 
ATOM      3  C   UNL     1      45.901   6.992  11.794  0.00  0.00    +0.000 A 
ATOM      4  C   UNL     1      46.148   5.848  12.586  0.00  0.00    +0.000 A 
ATOM      5  N   UNL     1      46.909   5.744  13.703  0.00  0.00    +0.000 NA
ATOM      6  C   UNL     1      46.962   4.489  14.227  0.00  0.00    +0.000 A 
ATOM      7  C   UNL     1      46.354   3.359  13.688  0.00  0.00    +0.000 A 
ATOM      8  C   UNL     1      45.576   3.486  12.539  0.00  0.00    +0.000 A 
ATOM      9  C   UNL     1      45.460   4.775  12.013  0.00  0.00    +0.000 A 
ENDROOT
BRANCH   6  10
ATOM     10  C   UNL     1      47.726   4.348  15.508  0.00  0.00    +0.000 C 
ATOM     11  N   UNL     1      47.918   5.503  16.219  0.00  0.00    +0.000 N 
ATOM     12  O   UNL     1      48.149   3.272  15.914  0.00  0.00    +0.000 OA
ATOM     13  H   UNL     1      47.539   6.376  15.873  0.00  0.00    +0.000 HD
ATOM     14  H   UNL     1      48.402   5.464  17.105  0.00  0.00    +0.000 HD
ENDBRANCH   6  10
BRANCH   1  15
ATOM     15  C   UNL     1      43.761   4.569  10.152  0.00  0.00    +0.000 C 
BRANCH  15  19
ATOM     16  C   UNL     1      46.703   2.157   7.966  0.00  0.00    +0.000 C 
ATOM     17  C   UNL     1      45.403   1.481   8.425  0.00  0.00    +0.000 C 
ATOM     18  C   UNL     1      44.662   2.324   9.460  0.00  0.00    +0.000 C 
ATOM     19  C   UNL     1      44.372   3.758   8.982  0.00  0.00    +0.000 C 
ATOM     20  C   UNL     1      45.647   4.416   8.423  0.00  0.00    +0.000 C 
ATOM     21  C   UNL     1      46.375   3.545   7.398  0.00  0.00    +0.000 C 
BRANCH  16  22
ATOM     22  C   UNL     1      47.441   1.260   6.957  0.00  0.00    +0.000 C 
BRANCH  22  23
ATOM     23  N   UNL     1      48.499   1.976   6.253  0.00  0.00    +0.000 NA
ATOM     24  H   UNL     1      48.086   2.696   5.660  0.00  0.00    +0.000 HD
ATOM     25  H   UNL     1      48.993   1.341   5.630  0.00  0.00    +0.000 HD
ENDBRANCH  22  23
ENDBRANCH  16  22
ENDBRANCH  15  19
ENDBRANCH   1  15
TORSDOF 5
ENDMDL
MODEL 3
REMARK VINA RESULT:    -7.468      2.827      6.492
REMARK INTER + INTRA:          -9.637
REMARK INTER:                  -9.251
REMARK INTRA:                  -0.386
REMARK UNBOUND:                -0.204
REMARK  Name = 
REMARK  5 active torsions:
REMARK  status: ('A' for Active; 'I' for Inactive)
REMARK    1  A    between atoms: N_1  and  C_2
REMARK    2  A    between atoms: C_2  and  C_3
REMARK    3  A    between atoms: C_6  and  C_7
REMARK    4  A    between atoms: C_7  and  N_8
REMARK    5  A    between atoms: C_13  and  C_14
REMARK                            x       y       z     vdW  Elec       q    Type
REMARK                         _______ _______ _______ _____ _____    ______ ____
ROOT
ATOM      1  N   UNL     1      43.955   4.154  10.545  0.00  0.00    +0.000 N 
ATOM      2  C   UNL     1      43.566   2.937  11.047  0.00  0.00    +0.000 A 
ATOM      3  C   UNL     1      44.170   1.956  10.293  0.00  0.00    +0.000 A 
ATOM      4  C   UNL     1      44.991   2.598   9.338  0.00  0.00    +0.000 A 
ATOM      5  N   UNL     1      45.759   2.036   8.373  0.00  0.00    +0.000 NA
ATOM      6  C   UNL     1      46.453   2.933   7.620  0.00  0.00    +0.000 A 
ATOM      7  C   UNL     1      46.458   4.313   7.803  0.00  0.00    +0.000 A 
ATOM      8  C   UNL     1      45.663   4.872   8.801  0.00  0.00    +0.000 A 
ATOM      9  C   UNL     1      44.897   3.976   9.552  0.00  0.00    +0.000 A 
ENDROOT
BRANCH   6  10
ATOM     10  C   UNL     1      47.250   2.357   6.490  0.00  0.00    +0.000 C 
ATOM     11  N   UNL     1      47.178   3.035   5.302  0.00  0.00    +0.000 N 
ATOM     12  O   UNL     1      47.939   1.350   6.608  0.00  0.00    +0.000 OA
ATOM     13  H   UNL     1      46.620   3.878   5.237  0.00  0.00    +0.000 HD
ATOM     14  H   UNL     1      47.718   2.710   4.512  0.00  0.00    +0.000 HD
ENDBRANCH   6  10
BRANCH   1  15
ATOM     15  C   UNL     1      43.433   5.433  11.008  0.00  0.00    +0.000 C 
BRANCH  15  19
ATOM     16  C   UNL     1      46.936   7.321  12.854  0.00  0.00    +0.000 C 
ATOM     17  C   UNL     1      45.719   8.201  12.533  0.00  0.00    +0.000 C 
ATOM     18  C   UNL     1      44.747   7.498  11.588  0.00  0.00    +0.000 C 
ATOM     19  C   UNL     1      44.286   6.123  12.103  0.00  0.00    +0.000 C 
ATOM     20  C   UNL     1      45.492   5.265  12.526  0.00  0.00    +0.000 C 
ATOM     21  C   UNL     1      46.454   5.997  13.462  0.00  0.00    +0.000 C 
BRANCH  16  22
ATOM     22  C   UNL     1      47.911   8.078  13.773  0.00  0.00    +0.000 C 
BRANCH  22  23
ATOM     23  N   UNL     1      47.215   8.902  14.756  0.00  0.00    +0.000 NA
ATOM     24  H   UNL     1      46.689   8.302  15.392  0.00  0.00    +0.000 HD
ATOM     25  H   UNL     1      46.530   9.494  14.290  0.00  0.00    +0.000 HD
ENDBRANCH  22  23
ENDBRANCH  16  22
ENDBRANCH  15  19
ENDBRANCH   1  15
TORSDOF 5
ENDMDL
MODEL 4
REMARK VINA RESULT:    -6.845      1.706      2.061
REMARK INTER + INTRA:          -8.850
REMARK INTER:                  -9.193
REMARK INTRA:                   0.343
REMARK UNBOUND:                -0.204
REMARK  Name = 
REMARK  5 active torsions:
REMARK  status: ('A' for Active; 'I' for Inactive)
REMARK    1  A    between atoms: N_1  and  C_2
REMARK    2  A    between atoms: C_2  and  C_3
REMARK    3  A    between atoms: C_6  and  C_7
REMARK    4  A    between atoms: C_7  and  N_8
REMARK    5  A    between atoms: C_13  and  C_14
REMARK                            x       y       z     vdW  Elec       q    Type
REMARK                         _______ _______ _______ _____ _____    ______ ____
ROOT
ATOM      1  N   UNL     1      43.861   4.677  11.041  0.00  0.00    +0.000 N 
ATOM      2  C   UNL     1      42.892   4.683  12.014  0.00  0.00    +0.000 A 
ATOM      3  C   UNL     1      43.340   5.471  13.052  0.00  0.00    +0.000 A 
ATOM      4  C   UNL     1      44.595   5.998  12.673  0.00  0.00    +0.000 A 
ATOM      5  N   UNL     1      45.417   6.809  13.384  0.00  0.00    +0.000 NA
ATOM      6  C   UNL     1      46.556   7.162  12.728  0.00  0.00    +0.000 A 
ATOM      7  C   UNL     1      46.886   6.800  11.425  0.00  0.00    +0.000 A 
ATOM      8  C   UNL     1      46.028   5.967  10.710  0.00  0.00    +0.000 A 
ATOM      9  C   UNL     1      44.878   5.545  11.383  0.00  0.00    +0.000 A 
ENDROOT
BRANCH   6  10
ATOM     10  C   UNL     1      47.530   7.991  13.509  0.00  0.00    +0.000 C 
ATOM     11  N   UNL     1      46.982   8.884  14.391  0.00  0.00    +0.000 N 
ATOM     12  O   UNL     1      48.744   7.878  13.388  0.00  0.00    +0.000 OA
ATOM     13  H   UNL     1      45.975   8.941  14.489  0.00  0.00    +0.000 HD
ATOM     14  H   UNL     1      47.590   9.449  14.966  0.00  0.00    +0.000 HD
ENDBRANCH   6  10
BRANCH   1  15
ATOM     15  C   UNL     1      43.801   3.861   9.836  0.00  0.00    +0.000 C 
BRANCH  15  19
ATOM     16  C   UNL     1      46.792   2.399   6.978  0.00  0.00    +0.000 C 
ATOM     17  C   UNL     1      46.934   3.831   7.512  0.00  0.00    +0.000 C 
ATOM     18  C   UNL     1      45.655   4.310   8.195  0.00  0.00    +0.000 C 
ATOM     19  C   UNL     1      45.177   3.371   9.317  0.00  0.00    +0.000 C 
ATOM     20  C   UNL     1      45.127   1.913   8.826  0.00  0.00    +0.000 C 
ATOM     21  C   UNL     1      46.416   1.464   8.136  0.00  0.00    +0.000 C 
BRANCH  16  22
ATOM     22  C   UNL     1      48.084   1.968   6.261  0.00  0.00    +0.000 C 
BRANCH  22  23
ATOM     23  N   UNL     1      47.996   2.142   4.816  0.00  0.00    +0.000 NA
ATOM     24  H   UNL     1      47.624   1.292   4.392  0.00  0.00    +0.000 HD
ATOM     25  H   UNL     1      48.928   2.273   4.424  0.00  0.00    +0.000 HD
ENDBRANCH  22  23
ENDBRANCH  16  22
ENDBRANCH  15  19
ENDBRANCH   1  15
TORSDOF 5
ENDMDL
MODEL 5
REMARK VINA RESULT:    -6.250      3.304      6.521
REMARK INTER + INTRA:          -8.098
REMARK INTER:                  -7.641
REMARK INTRA:                  -0.457
REMARK UNBOUND:                -0.204
REMARK  Name = 
REMARK  5 active torsions:
REMARK  status: ('A' for Active; 'I' for Inactive)
REMARK    1  A    between atoms: N_1  and  C_2
REMARK    2  A    between atoms: C_2  and  C_3
REMARK    3  A    between atoms: C_6  and  C_7
REMARK    4  A    between atoms: C_7  and  N_8
REMARK    5  A    between atoms: C_13  and  C_14
REMARK                            x       y       z     vdW  Elec       q    Type
REMARK                         _______ _______ _______ _____ _____    ______ ____
ROOT
ATOM      1  N   UNL     1      47.119   6.383  13.623  0.00  0.00    +0.000 N 
ATOM      2  C   UNL     1      47.574   5.575  14.636  0.00  0.00    +0.000 A 
ATOM      3  C   UNL     1      47.020   4.327  14.463  0.00  0.00    +0.000 A 
ATOM      4  C   UNL     1      46.247   4.365  13.280  0.00  0.00    +0.000 A 
ATOM      5  N   UNL     1      45.506   3.374  12.726  0.00  0.00    +0.000 NA
ATOM      6  C   UNL     1      44.890   3.723  11.564  0.00  0.00    +0.000 A 
ATOM      7  C   UNL     1      45.007   4.952  10.921  0.00  0.00    +0.000 A 
ATOM      8  C   UNL     1      45.775   5.957  11.506  0.00  0.00    +0.000 A 
ATOM      9  C   UNL     1      46.373   5.642  12.729  0.00  0.00    +0.000 A 
ENDROOT
BRANCH   6  10
ATOM     10  C   UNL     1      43.994   2.683  10.963  0.00  0.00    +0.000 C 
ATOM     11  N   UNL     1      44.426   2.131   9.786  0.00  0.00    +0.000 N 
ATOM     12  O   UNL     1      42.944   2.328  11.486  0.00  0.00    +0.000 OA
ATOM     13  H   UNL     1      45.309   2.425   9.387  0.00  0.00    +0.000 HD
ATOM     14  H   UNL     1      43.877   1.404   9.349  0.00  0.00    +0.000 HD
ENDBRANCH   6  10
BRANCH   1  15
ATOM     15  C   UNL     1      47.396   7.810  13.530  0.00  0.00    +0.000 C 
BRANCH  15  19
ATOM     16  C   UNL     1      50.810   9.519  11.368  0.00  0.00    +0.000 C 
ATOM     17  C   UNL     1      50.640   7.992  11.373  0.00  0.00    +0.000 C 
ATOM     18  C   UNL     1      49.645   7.537  12.438  0.00  0.00    +0.000 C 
ATOM     19  C   UNL     1      48.272   8.222  12.321  0.00  0.00    +0.000 C 
ATOM     20  C   UNL     1      48.431   9.750  12.212  0.00  0.00    +0.000 C 
ATOM     21  C   UNL     1      49.441  10.177  11.146  0.00  0.00    +0.000 C 
BRANCH  16  22
ATOM     22  C   UNL     1      51.849   9.934  10.312  0.00  0.00    +0.000 C 
BRANCH  22  23
ATOM     23  N   UNL     1      52.707   8.823   9.916  0.00  0.00    +0.000 NA
ATOM     24  H   UNL     1      53.478   8.736  10.578  0.00  0.00    +0.000 HD
ATOM     25  H   UNL     1      53.129   9.016   9.009  0.00  0.00    +0.000 HD
ENDBRANCH  22  23
ENDBRANCH  16  22
ENDBRANCH  15  19
ENDBRANCH   1  15
TORSDOF 5
ENDMDL
MODEL 6
REMARK VINA RESULT:    -6.240      1.789      2.415
REMARK INTER + INTRA:          -8.085
REMARK INTER:                  -7.754
REMARK INTRA:                  -0.331
REMARK UNBOUND:                -0.204
REMARK  Name = 
REMARK  5 active torsions:
REMARK  status: ('A' for Active; 'I' for Inactive)
REMARK    1  A    between atoms: N_1  and  C_2
REMARK    2  A    between atoms: C_2  and  C_3
REMARK    3  A    between atoms: C_6  and  C_7
REMARK    4  A    between atoms: C_7  and  N_8
REMARK    5  A    between atoms: C_13  and  C_14
REMARK                            x       y       z     vdW  Elec       q    Type
REMARK                         _______ _______ _______ _____ _____    ______ ____
ROOT
ATOM      1  N   UNL     1      45.703   5.937  13.156  0.00  0.00    +0.000 N 
ATOM      2  C   UNL     1      46.064   4.951  14.040  0.00  0.00    +0.000 A 
ATOM      3  C   UNL     1      47.414   5.074  14.282  0.00  0.00    +0.000 A 
ATOM      4  C   UNL     1      47.874   6.200  13.563  0.00  0.00    +0.000 A 
ATOM      5  N   UNL     1      49.135   6.693  13.485  0.00  0.00    +0.000 NA
ATOM      6  C   UNL     1      49.249   7.812  12.720  0.00  0.00    +0.000 A 
ATOM      7  C   UNL     1      48.200   8.473  12.087  0.00  0.00    +0.000 A 
ATOM      8  C   UNL     1      46.911   7.952  12.180  0.00  0.00    +0.000 A 
ATOM      9  C   UNL     1      46.776   6.770  12.914  0.00  0.00    +0.000 A 
ENDROOT
BRANCH   6  10
ATOM     10  C   UNL     1      50.640   8.341  12.541  0.00  0.00    +0.000 C 
ATOM     11  N   UNL     1      51.425   7.667  11.644  0.00  0.00    +0.000 N 
ATOM     12  O   UNL     1      51.059   9.323  13.142  0.00  0.00    +0.000 OA
ATOM     13  H   UNL     1      51.046   6.872  11.142  0.00  0.00    +0.000 HD
ATOM     14  H   UNL     1      52.362   7.995  11.460  0.00  0.00    +0.000 HD
ENDBRANCH   6  10
BRANCH   1  15
ATOM     15  C   UNL     1      44.374   6.061  12.570  0.00  0.00    +0.000 C 
BRANCH  15  19
ATOM     16  C   UNL     1      45.025   2.771   9.743  0.00  0.00    +0.000 C 
ATOM     17  C   UNL     1      43.842   2.671  10.717  0.00  0.00    +0.000 C 
ATOM     18  C   UNL     1      43.956   3.688  11.850  0.00  0.00    +0.000 C 
ATOM     19  C   UNL     1      44.114   5.136  11.355  0.00  0.00    +0.000 C 
ATOM     20  C   UNL     1      45.230   5.235  10.300  0.00  0.00    +0.000 C 
ATOM     21  C   UNL     1      45.098   4.198   9.183  0.00  0.00    +0.000 C 
BRANCH  16  22
ATOM     22  C   UNL     1      44.897   1.705   8.640  0.00  0.00    +0.000 C 
BRANCH  22  23
ATOM     23  N   UNL     1      46.184   1.112   8.294  0.00  0.00    +0.000 NA
ATOM     24  H   UNL     1      46.223   0.155   8.642  0.00  0.00    +0.000 HD
ATOM     25  H   UNL     1      46.936   1.617   8.760  0.00  0.00    +0.000 HD
ENDBRANCH  22  23
ENDBRANCH  16  22
ENDBRANCH  15  19
ENDBRANCH   1  15
TORSDOF 5
ENDMDL
MODEL 7
REMARK VINA RESULT:    -6.046      3.919      8.122
REMARK INTER + INTRA:          -7.841
REMARK INTER:                  -7.340
REMARK INTRA:                  -0.501
REMARK UNBOUND:                -0.204
REMARK  Name = 
REMARK  5 active torsions:
REMARK  status: ('A' for Active; 'I' for Inactive)
REMARK    1  A    between atoms: N_1  and  C_2
REMARK    2  A    between atoms: C_2  and  C_3
REMARK    3  A    between atoms: C_6  and  C_7
REMARK    4  A    between atoms: C_7  and  N_8
REMARK    5  A    between atoms: C_13  and  C_14
REMARK                            x       y       z     vdW  Elec       q    Type
REMARK                         _______ _______ _______ _____ _____    ______ ____
ROOT
ATOM      1  N   UNL     1      47.456   6.802  13.763  0.00  0.00    +0.000 N 
ATOM      2  C   UNL     1      47.063   8.073  13.427  0.00  0.00    +0.000 A 
ATOM      3  C   UNL     1      46.014   7.972  12.540  0.00  0.00    +0.000 A 
ATOM      4  C   UNL     1      45.729   6.597  12.375  0.00  0.00    +0.000 A 
ATOM      5  N   UNL     1      44.791   6.021  11.585  0.00  0.00    +0.000 NA
ATOM      6  C   UNL     1      44.753   4.663  11.665  0.00  0.00    +0.000 A 
ATOM      7  C   UNL     1      45.543   3.877  12.500  0.00  0.00    +0.000 A 
ATOM      8  C   UNL     1      46.501   4.489  13.306  0.00  0.00    +0.000 A 
ATOM      9  C   UNL     1      46.598   5.879  13.200  0.00  0.00    +0.000 A 
ENDROOT
BRANCH   6  10
ATOM     10  C   UNL     1      43.786   3.982  10.745  0.00  0.00    +0.000 C 
ATOM     11  N   UNL     1      43.750   4.453   9.459  0.00  0.00    +0.000 N 
ATOM     12  O   UNL     1      43.074   3.050  11.103  0.00  0.00    +0.000 OA
ATOM     13  H   UNL     1      44.366   5.208   9.183  0.00  0.00    +0.000 HD
ATOM     14  H   UNL     1      43.138   4.013   8.787  0.00  0.00    +0.000 HD
ENDBRANCH   6  10
BRANCH   1  15
ATOM     15  C   UNL     1      48.614   6.497  14.593  0.00  0.00    +0.000 C 
BRANCH  15  19
ATOM     16  C   UNL     1      49.243   5.033  18.681  0.00  0.00    +0.000 C 
ATOM     17  C   UNL     1      49.132   6.549  18.459  0.00  0.00    +0.000 C 
ATOM     18  C   UNL     1      49.277   6.916  16.984  0.00  0.00    +0.000 C 
ATOM     19  C   UNL     1      48.284   6.173  16.072  0.00  0.00    +0.000 C 
ATOM     20  C   UNL     1      48.309   4.660  16.354  0.00  0.00    +0.000 C 
ATOM     21  C   UNL     1      48.175   4.321  17.840  0.00  0.00    +0.000 C 
BRANCH  16  22
ATOM     22  C   UNL     1      49.135   4.707  20.181  0.00  0.00    +0.000 C 
BRANCH  22  23
ATOM     23  N   UNL     1      48.351   3.502  20.428  0.00  0.00    +0.000 NA
ATOM     24  H   UNL     1      47.569   3.465  19.773  0.00  0.00    +0.000 HD
ATOM     25  H   UNL     1      47.941   3.539  21.360  0.00  0.00    +0.000 HD
ENDBRANCH  22  23
ENDBRANCH  16  22
ENDBRANCH  15  19
ENDBRANCH   1  15
TORSDOF 5
ENDMDL
MODEL 8
REMARK VINA RESULT:    -5.866      4.027      6.277
REMARK INTER + INTRA:          -7.613
REMARK INTER:                  -7.051
REMARK INTRA:                  -0.562
REMARK UNBOUND:                -0.204
REMARK  Name = 
REMARK  5 active torsions:
REMARK  status: ('A' for Active; 'I' for Inactive)
REMARK    1  A    between atoms: N_1  and  C_2
REMARK    2  A    between atoms: C_2  and  C_3
REMARK    3  A    between atoms: C_6  and  C_7
REMARK    4  A    between atoms: C_7  and  N_8
REMARK    5  A    between atoms: C_13  and  C_14
REMARK                            x       y       z     vdW  Elec       q    Type
REMARK                         _______ _______ _______ _____ _____    ______ ____
ROOT
ATOM      1  N   UNL     1      48.564   6.768  14.893  0.00  0.00    +0.000 N 
ATOM      2  C   UNL     1      49.016   8.049  15.094  0.00  0.00    +0.000 A 
ATOM      3  C   UNL     1      49.138   8.247  16.451  0.00  0.00    +0.000 A 
ATOM      4  C   UNL     1      48.799   7.032  17.090  0.00  0.00    +0.000 A 
ATOM      5  N   UNL     1      48.757   6.761  18.417  0.00  0.00    +0.000 NA
ATOM      6  C   UNL     1      48.410   5.479  18.714  0.00  0.00    +0.000 A 
ATOM      7  C   UNL     1      48.157   4.472  17.786  0.00  0.00    +0.000 A 
ATOM      8  C   UNL     1      48.206   4.770  16.426  0.00  0.00    +0.000 A 
ATOM      9  C   UNL     1      48.505   6.095  16.096  0.00  0.00    +0.000 A 
ENDROOT
BRANCH   6  10
ATOM     10  C   UNL     1      48.272   5.160  20.171  0.00  0.00    +0.000 C 
ATOM     11  N   UNL     1      48.546   3.867  20.529  0.00  0.00    +0.000 N 
ATOM     12  O   UNL     1      47.948   5.998  21.006  0.00  0.00    +0.000 OA
ATOM     13  H   UNL     1      48.834   3.200  19.823  0.00  0.00    +0.000 HD
ATOM     14  H   UNL     1      48.498   3.601  21.502  0.00  0.00    +0.000 HD
ENDBRANCH   6  10
BRANCH   1  15
ATOM     15  C   UNL     1      48.202   6.225  13.590  0.00  0.00    +0.000 C 
BRANCH  15  19
ATOM     16  C   UNL     1      44.426   5.295  11.560  0.00  0.00    +0.000 C 
ATOM     17  C   UNL     1      44.591   4.865  13.025  0.00  0.00    +0.000 C 
ATOM     18  C   UNL     1      46.049   4.930  13.472  0.00  0.00    +0.000 C 
ATOM     19  C   UNL     1      46.693   6.310  13.250  0.00  0.00    +0.000 C 
ATOM     20  C   UNL     1      46.449   6.802  11.812  0.00  0.00    +0.000 C 
ATOM     21  C   UNL     1      44.982   6.715  11.386  0.00  0.00    +0.000 C 
BRANCH  16  22
ATOM     22  C   UNL     1      42.952   5.176  11.134  0.00  0.00    +0.000 C 
BRANCH  22  23
ATOM     23  N   UNL     1      42.125   6.231  11.710  0.00  0.00    +0.000 NA
ATOM     24  H   UNL     1      41.157   5.913  11.764  0.00  0.00    +0.000 HD
ATOM     25  H   UNL     1      42.125   7.046  11.099  0.00  0.00    +0.000 HD
ENDBRANCH  22  23
ENDBRANCH  16  22
ENDBRANCH  15  19
ENDBRANCH   1  15
TORSDOF 5
ENDMDL
MODEL 9
REMARK VINA RESULT:    -5.547      3.111      5.488
REMARK INTER + INTRA:          -7.210
REMARK INTER:                  -6.769
REMARK INTRA:                  -0.441
REMARK UNBOUND:                -0.204
REMARK  Name = 
REMARK  5 active torsions:
REMARK  status: ('A' for Active; 'I' for Inactive)
REMARK    1  A    between atoms: N_1  and  C_2
REMARK    2  A    between atoms: C_2  and  C_3
REMARK    3  A    between atoms: C_6  and  C_7
REMARK    4  A    between atoms: C_7  and  N_8
REMARK    5  A    between atoms: C_13  and  C_14
REMARK                            x       y       z     vdW  Elec       q    Type
REMARK                         _______ _______ _______ _____ _____    ______ ____
ROOT
ATOM      1  N   UNL     1      48.397   7.298  13.989  0.00  0.00    +0.000 N 
ATOM      2  C   UNL     1      49.410   8.028  13.420  0.00  0.00    +0.000 A 
ATOM      3  C   UNL     1      50.518   7.919  14.231  0.00  0.00    +0.000 A 
ATOM      4  C   UNL     1      50.180   7.054  15.297  0.00  0.00    +0.000 A 
ATOM      5  N   UNL     1      50.948   6.670  16.346  0.00  0.00    +0.000 NA
ATOM      6  C   UNL     1      50.335   5.805  17.198  0.00  0.00    +0.000 A 
ATOM      7  C   UNL     1      49.054   5.282  17.040  0.00  0.00    +0.000 A 
ATOM      8  C   UNL     1      48.280   5.688  15.955  0.00  0.00    +0.000 A 
ATOM      9  C   UNL     1      48.868   6.620  15.095  0.00  0.00    +0.000 A 
ENDROOT
BRANCH   6  10
ATOM     10  C   UNL     1      51.120   5.420  18.415  0.00  0.00    +0.000 C 
ATOM     11  N   UNL     1      50.618   4.375  19.144  0.00  0.00    +0.000 N 
ATOM     12  O   UNL     1      52.156   5.987  18.742  0.00  0.00    +0.000 OA
ATOM     13  H   UNL     1      49.772   3.909  18.839  0.00  0.00    +0.000 HD
ATOM     14  H   UNL     1      51.121   4.053  19.959  0.00  0.00    +0.000 HD
ENDBRANCH   6  10
BRANCH   1  15
ATOM     15  C   UNL     1      47.031   7.263  13.482  0.00  0.00    +0.000 C 
BRANCH  15  19
ATOM     16  C   UNL     1      44.504   4.239  11.554  0.00  0.00    +0.000 C 
ATOM     17  C   UNL     1      45.304   5.197  10.660  0.00  0.00    +0.000 C 
ATOM     18  C   UNL     1      45.836   6.393  11.446  0.00  0.00    +0.000 C 
ATOM     19  C   UNL     1      46.673   5.991  12.674  0.00  0.00    +0.000 C 
ATOM     20  C   UNL     1      45.925   4.951  13.528  0.00  0.00    +0.000 C 
ATOM     21  C   UNL     1      45.393   3.771  12.714  0.00  0.00    +0.000 C 
BRANCH  16  22
ATOM     22  C   UNL     1      43.950   3.071  10.719  0.00  0.00    +0.000 C 
BRANCH  22  23
ATOM     23  N   UNL     1      43.040   2.228  11.486  0.00  0.00    +0.000 NA
ATOM     24  H   UNL     1      42.084   2.567  11.372  0.00  0.00    +0.000 HD
ATOM     25  H   UNL     1      43.253   2.301  12.479  0.00  0.00    +0.000 HD
ENDBRANCH  22  23
ENDBRANCH  16  22
ENDBRANCH  15  19
ENDBRANCH   1  15
TORSDOF 5
ENDMDL
