MODEL 1
REMARK VINA RESULT:    -7.827      0.000      0.000
REMARK INTER + INTRA:         -10.141
REMARK INTER:                  -9.657
REMARK INTRA:                  -0.484
REMARK UNBOUND:                -0.484
REMARK  Name = 
REMARK  4 active torsions:
REMARK  status: ('A' for Active; 'I' for Inactive)
REMARK    1  A    between atoms: C_2  and  C_4
REMARK    2  A    between atoms: C_7  and  O_8
REMARK    3  A    between atoms: O_8  and  C_9
REMARK    4  A    between atoms: C_9  and  C_10
REMARK                            x       y       z     vdW  Elec       q    Type
REMARK                         _______ _______ _______ _____ _____    ______ ____
ROOT
ATOM      1  C   UNL     1      46.435   2.675   7.550  0.00  0.00    +0.000 A 
ATOM      2  C   UNL     1      45.888   1.712   8.396  0.00  0.00    +0.000 A 
ATOM      3  C   UNL     1      44.926   2.101   9.321  0.00  0.00    +0.000 A 
ATOM      4  C   UNL     1      44.526   3.431   9.358  0.00  0.00    +0.000 A 
ATOM      5  N   UNL     1      45.028   4.390   8.557  0.00  0.00    +0.000 NA
ATOM      6  C   UNL     1      45.990   3.990   7.678  0.00  0.00    +0.000 A 
ENDROOT
BRANCH   1   8
ATOM      7  N   UNL     1      47.519   3.090   5.411  0.00  0.00    +0.000 N 
ATOM      8  C   UNL     1      47.489   2.353   6.564  0.00  0.00    +0.000 C 
ATOM      9  O   UNL     1      48.317   1.478   6.779  0.00  0.00    +0.000 OA
ATOM     10  H   UNL     1      48.288   2.909   4.776  0.00  0.00    +0.000 HD
ATOM     11  H   UNL     1      47.019   3.960   5.299  0.00  0.00    +0.000 HD
ENDBRANCH   1   8
BRANCH   4  12
ATOM     12  O   UNL     1      43.585   3.722  10.324  0.00  0.00    +0.000 OA
BRANCH  12  13
ATOM     13  C   UNL     1      43.812   4.842  11.215  0.00  0.00    +0.000 C 
ATOM     14  C   UNL     1      42.484   5.182  11.901  0.00  0.00    +0.000 C 
ATOM     15  C   UNL     1      43.127   6.178  10.997  0.00  0.00    +0.000 C 
BRANCH  13  16
ATOM     16  C   UNL     1      45.078   4.786  12.075  0.00  0.00    +0.000 A 
ATOM     17  N   UNL     1      45.881   5.876  12.142  0.00  0.00    +0.000 NA
ATOM     18  C   UNL     1      46.980   5.796  12.916  0.00  0.00    +0.000 A 
ATOM     19  C   UNL     1      47.315   4.684  13.644  0.00  0.00    +0.000 A 
ATOM     20  C   UNL     1      46.440   3.634  13.542  0.00  0.00    +0.000 A 
ATOM     21  N   UNL     1      45.328   3.658  12.782  0.00  0.00    +0.000 NA
ENDBRANCH  13  16
ENDBRANCH  12  13
ENDBRANCH   4  12
TORSDOF 4
ENDMDL
MODEL 2
REMARK VINA RESULT:    -7.045      1.002      1.570
REMARK INTER + INTRA:          -9.176
REMARK INTER:                  -9.998
REMARK INTRA:                   0.822
REMARK UNBOUND:                -0.484
REMARK  Name = 
REMARK  4 active torsions:
REMARK  status: ('A' for Active; 'I' for Inactive)
REMARK    1  A    between atoms: C_2  and  C_4
REMARK    2  A    between atoms: C_7  and  O_8
REMARK    3  A    between atoms: O_8  and  C_9
REMARK    4  A    between atoms: C_9  and  C_10
REMARK                            x       y       z     vdW  Elec       q    Type
REMARK                         _______ _______ _______ _____ _____    ______ ____
ROOT
ATOM      1  C   UNL     1      46.344   2.380   7.869  0.00  0.00    +0.000 A 
ATOM      2  C   UNL     1      45.427   1.824   8.761  0.00  0.00    +0.000 A 
ATOM      3  C   UNL     1      44.560   2.669   9.444  0.00  0.00    +0.000 A 
ATOM      4  C   UNL     1      44.621   4.036   9.202  0.00  0.00    +0.000 A 
ATOM      5  N   UNL     1      45.489   4.611   8.349  0.00  0.00    +0.000 NA
ATOM      6  C   UNL     1      46.348   3.765   7.712  0.00  0.00    +0.000 A 
ENDROOT
BRANCH   1   8
ATOM      7  N   UNL     1      48.409   2.201   6.594  0.00  0.00    +0.000 N 
ATOM      8  C   UNL     1      47.326   1.558   7.131  0.00  0.00    +0.000 C 
ATOM      9  O   UNL     1      47.190   0.347   7.022  0.00  0.00    +0.000 OA
ATOM     10  H   UNL     1      49.110   1.618   6.152  0.00  0.00    +0.000 HD
ATOM     11  H   UNL     1      48.680   3.137   6.857  0.00  0.00    +0.000 HD
ENDBRANCH   1   8
BRANCH   4  12
ATOM     12  O   UNL     1      43.737   4.791   9.945  0.00  0.00    +0.000 OA
BRANCH  12  13
ATOM     13  C   UNL     1      43.912   4.872  11.380  0.00  0.00    +0.000 C 
ATOM     14  C   UNL     1      43.316   3.605  12.005  0.00  0.00    +0.000 C 
ATOM     15  C   UNL     1      42.722   4.936  12.320  0.00  0.00    +0.000 C 
BRANCH  13  16
ATOM     16  C   UNL     1      45.280   5.351  11.877  0.00  0.00    +0.000 A 
ATOM     17  N   UNL     1      45.898   4.670  12.871  0.00  0.00    +0.000 NA
ATOM     18  C   UNL     1      47.104   5.112  13.276  0.00  0.00    +0.000 A 
ATOM     19  C   UNL     1      47.737   6.196  12.726  0.00  0.00    +0.000 A 
ATOM     20  C   UNL     1      47.058   6.816  11.709  0.00  0.00    +0.000 A 
ATOM     21  N   UNL     1      45.850   6.417  11.266  0.00  0.00    +0.000 NA
ENDBRANCH  13  16
ENDBRANCH  12  13
ENDBRANCH   4  12
TORSDOF 4
ENDMDL
MODEL 3
REMARK VINA RESULT:    -5.897      2.533      6.204
REMARK INTER + INTRA:          -7.760
REMARK INTER:                  -7.713
REMARK INTRA:                  -0.047
REMARK UNBOUND:                -0.484
REMARK  Name = 
REMARK  4 active torsions:
REMARK  status: ('A' for Active; 'I' for Inactive)
REMARK    1  A    between atoms: C_2  and  C_4
REMARK    2  A    between atoms: C_7  and  O_8
REMARK    3  A    between atoms: O_8  and  C_9
REMARK    4  A    between atoms: C_9  and  C_10
REMARK                            x       y       z     vdW  Elec       q    Type
REMARK                         _______ _______ _______ _____ _____    ______ ____
ROOT
ATOM      1  C   UNL     1      47.264   4.544  14.962  0.00  0.00    +0.000 A 
ATOM      2  C   UNL     1      47.314   5.844  14.460  0.00  0.00    +0.000 A 
ATOM      3  C   UNL     1      46.718   6.112  13.233  0.00  0.00    +0.000 A 
ATOM      4  C   UNL     1      46.076   5.081  12.557  0.00  0.00    +0.000 A 
ATOM      5  N   UNL     1      46.005   3.815  13.008  0.00  0.00    +0.000 NA
ATOM      6  C   UNL     1      46.620   3.570  14.200  0.00  0.00    +0.000 A 
ENDROOT
BRANCH   1   8
ATOM      7  N   UNL     1      47.253   3.252  17.024  0.00  0.00    +0.000 N 
ATOM      8  C   UNL     1      47.904   4.166  16.240  0.00  0.00    +0.000 C 
ATOM      9  O   UNL     1      48.983   4.634  16.576  0.00  0.00    +0.000 OA
ATOM     10  H   UNL     1      47.734   2.948  17.862  0.00  0.00    +0.000 HD
ATOM     11  H   UNL     1      46.497   2.674  16.686  0.00  0.00    +0.000 HD
ENDBRANCH   1   8
BRANCH   4  12
ATOM     12  O   UNL     1      45.537   5.441  11.338  0.00  0.00    +0.000 OA
BRANCH  12  13
ATOM     13  C   UNL     1      44.669   4.510  10.649  0.00  0.00    +0.000 C 
ATOM     14  C   UNL     1      43.297   5.173  10.478  0.00  0.00    +0.000 C 
ATOM     15  C   UNL     1      43.426   3.945  11.313  0.00  0.00    +0.000 C 
BRANCH  13  16
ATOM     16  C   UNL     1      45.272   3.772   9.449  0.00  0.00    +0.000 A 
ATOM     17  N   UNL     1      45.797   4.491   8.427  0.00  0.00    +0.000 NA
ATOM     18  C   UNL     1      46.329   3.811   7.394  0.00  0.00    +0.000 A 
ATOM     19  C   UNL     1      46.378   2.442   7.332  0.00  0.00    +0.000 A 
ATOM     20  C   UNL     1      45.848   1.790   8.414  0.00  0.00    +0.000 A 
ATOM     21  N   UNL     1      45.303   2.419   9.473  0.00  0.00    +0.000 NA
ENDBRANCH  13  16
ENDBRANCH  12  13
ENDBRANCH   4  12
TORSDOF 4
ENDMDL
MODEL 4
REMARK VINA RESULT:    -5.857      2.789      5.824
REMARK INTER + INTRA:          -7.711
REMARK INTER:                  -7.559
REMARK INTRA:                  -0.152
REMARK UNBOUND:                -0.484
REMARK  Name = 
REMARK  4 active torsions:
REMARK  status: ('A' for Active; 'I' for Inactive)
REMARK    1  A    between atoms: C_2  and  C_4
REMARK    2  A    between atoms: C_7  and  O_8
REMARK    3  A    between atoms: O_8  and  C_9
REMARK    4  A    between atoms: C_9  and  C_10
REMARK                            x       y       z     vdW  Elec       q    Type
REMARK                         _______ _______ _______ _____ _____    ______ ____
ROOT
ATOM      1  C   UNL     1      48.156   7.000  13.507  0.00  0.00    +0.000 A 
ATOM      2  C   UNL     1      47.680   8.003  12.663  0.00  0.00    +0.000 A 
ATOM      3  C   UNL     1      46.436   7.840  12.064  0.00  0.00    +0.000 A 
ATOM      4  C   UNL     1      45.699   6.696  12.343  0.00  0.00    +0.000 A 
ATOM      5  N   UNL     1      46.122   5.707  13.153  0.00  0.00    +0.000 NA
ATOM      6  C   UNL     1      47.357   5.875  13.706  0.00  0.00    +0.000 A 
ENDROOT
BRANCH   1   8
ATOM      7  N   UNL     1      50.477   7.731  13.475  0.00  0.00    +0.000 N 
ATOM      8  C   UNL     1      49.484   7.076  14.153  0.00  0.00    +0.000 C 
ATOM      9  O   UNL     1      49.683   6.593  15.259  0.00  0.00    +0.000 OA
ATOM     10  H   UNL     1      51.361   7.838  13.958  0.00  0.00    +0.000 HD
ATOM     11  H   UNL     1      50.300   8.338  12.688  0.00  0.00    +0.000 HD
ENDBRANCH   1   8
BRANCH   4  12
ATOM     12  O   UNL     1      44.489   6.616  11.684  0.00  0.00    +0.000 OA
BRANCH  12  13
ATOM     13  C   UNL     1      43.838   5.329  11.558  0.00  0.00    +0.000 C 
ATOM     14  C   UNL     1      42.327   5.542  11.707  0.00  0.00    +0.000 C 
ATOM     15  C   UNL     1      43.061   4.719  12.710  0.00  0.00    +0.000 C 
BRANCH  13  16
ATOM     16  C   UNL     1      44.334   4.419  10.429  0.00  0.00    +0.000 A 
ATOM     17  N   UNL     1      45.065   4.953   9.422  0.00  0.00    +0.000 NA
ATOM     18  C   UNL     1      45.494   4.123   8.453  0.00  0.00    +0.000 A 
ATOM     19  C   UNL     1      45.244   2.775   8.443  0.00  0.00    +0.000 A 
ATOM     20  C   UNL     1      44.519   2.309   9.509  0.00  0.00    +0.000 A 
ATOM     21  N   UNL     1      44.064   3.094  10.505  0.00  0.00    +0.000 NA
ENDBRANCH  13  16
ENDBRANCH  12  13
ENDBRANCH   4  12
TORSDOF 4
ENDMDL
MODEL 5
REMARK VINA RESULT:    -5.676      4.054      7.738
REMARK INTER + INTRA:          -7.487
REMARK INTER:                  -7.044
REMARK INTRA:                  -0.443
REMARK UNBOUND:                -0.484
REMARK  Name = 
REMARK  4 active torsions:
REMARK  status: ('A' for Active; 'I' for Inactive)
REMARK    1  A    between atoms: C_2  and  C_4
REMARK    2  A    between atoms: C_7  and  O_8
REMARK    3  A    between atoms: O_8  and  C_9
REMARK    4  A    between atoms: C_9  and  C_10
REMARK                            x       y       z     vdW  Elec       q    Type
REMARK                         _______ _______ _______ _____ _____    ______ ____
ROOT
ATOM      1  C   UNL     1      48.128   4.869  17.587  0.00  0.00    +0.000 A 
ATOM      2  C   UNL     1      48.690   6.007  17.011  0.00  0.00    +0.000 A 
ATOM      3  C   UNL     1      48.566   6.194  15.639  0.00  0.00    +0.000 A 
ATOM      4  C   UNL     1      47.870   5.251  14.891  0.00  0.00    +0.000 A 
ATOM      5  N   UNL     1      47.313   4.141  15.410  0.00  0.00    +0.000 NA
ATOM      6  C   UNL     1      47.472   3.966  16.753  0.00  0.00    +0.000 A 
ENDROOT
BRANCH   1   8
ATOM      7  N   UNL     1      48.386   3.264  19.398  0.00  0.00    +0.000 N 
ATOM      8  C   UNL     1      48.247   4.575  19.032  0.00  0.00    +0.000 C 
ATOM      9  O   UNL     1      48.243   5.470  19.867  0.00  0.00    +0.000 OA
ATOM     10  H   UNL     1      48.538   3.082  20.383  0.00  0.00    +0.000 HD
ATOM     11  H   UNL     1      48.630   2.532  18.747  0.00  0.00    +0.000 HD
ENDBRANCH   1   8
BRANCH   4  12
ATOM     12  O   UNL     1      47.822   5.513  13.537  0.00  0.00    +0.000 OA
BRANCH  12  13
ATOM     13  C   UNL     1      46.644   6.146  12.982  0.00  0.00    +0.000 C 
ATOM     14  C   UNL     1      47.081   7.015  11.798  0.00  0.00    +0.000 C 
ATOM     15  C   UNL     1      46.472   7.654  12.999  0.00  0.00    +0.000 C 
BRANCH  13  16
ATOM     16  C   UNL     1      45.407   5.258  12.811  0.00  0.00    +0.000 A 
ATOM     17  N   UNL     1      44.189   5.749  13.146  0.00  0.00    +0.000 NA
ATOM     18  C   UNL     1      43.122   4.946  12.973  0.00  0.00    +0.000 A 
ATOM     19  C   UNL     1      43.205   3.675  12.465  0.00  0.00    +0.000 A 
ATOM     20  C   UNL     1      44.467   3.262  12.128  0.00  0.00    +0.000 A 
ATOM     21  N   UNL     1      45.569   4.022  12.281  0.00  0.00    +0.000 NA
ENDBRANCH  13  16
ENDBRANCH  12  13
ENDBRANCH   4  12
TORSDOF 4
ENDMDL
MODEL 6
REMARK VINA RESULT:    -5.627      2.634      4.383
REMARK INTER + INTRA:          -7.426
REMARK INTER:                  -7.468
REMARK INTRA:                   0.041
REMARK UNBOUND:                -0.484
REMARK  Name = 
REMARK  4 active torsions:
REMARK  status: ('A' for Active; 'I' for Inactive)
REMARK    1  A    between atoms: C_2  and  C_4
REMARK    2  A    between atoms: C_7  and  O_8
REMARK    3  A    between atoms: O_8  and  C_9
REMARK    4  A    between atoms: C_9  and  C_10
REMARK                            x       y       z     vdW  Elec       q    Type
REMARK                         _______ _______ _______ _____ _____    ______ ____
ROOT
ATOM      1  C   UNL     1      44.962   3.704  10.268  0.00  0.00    +0.000 A 
ATOM      2  C   UNL     1      45.292   5.055  10.165  0.00  0.00    +0.000 A 
ATOM      3  C   UNL     1      45.644   5.748  11.318  0.00  0.00    +0.000 A 
ATOM      4  C   UNL     1      45.676   5.069  12.530  0.00  0.00    +0.000 A 
ATOM      5  N   UNL     1      45.366   3.766  12.670  0.00  0.00    +0.000 NA
ATOM      6  C   UNL     1      44.997   3.114  11.531  0.00  0.00    +0.000 A 
ENDROOT
BRANCH   1   8
ATOM      7  N   UNL     1      44.211   3.582   7.957  0.00  0.00    +0.000 N 
ATOM      8  C   UNL     1      44.541   2.903   9.099  0.00  0.00    +0.000 C 
ATOM      9  O   UNL     1      44.508   1.681   9.142  0.00  0.00    +0.000 OA
ATOM     10  H   UNL     1      43.992   3.020   7.143  0.00  0.00    +0.000 HD
ATOM     11  H   UNL     1      44.447   4.552   7.804  0.00  0.00    +0.000 HD
ENDBRANCH   1   8
BRANCH   4  12
ATOM     12  O   UNL     1      46.014   5.848  13.617  0.00  0.00    +0.000 OA
BRANCH  12  13
ATOM     13  C   UNL     1      47.398   5.906  14.040  0.00  0.00    +0.000 C 
ATOM     14  C   UNL     1      47.880   7.354  13.901  0.00  0.00    +0.000 C 
ATOM     15  C   UNL     1      48.506   6.283  13.075  0.00  0.00    +0.000 C 
BRANCH  13  16
ATOM     16  C   UNL     1      47.753   5.143  15.321  0.00  0.00    +0.000 A 
ATOM     17  N   UNL     1      48.856   5.505  16.021  0.00  0.00    +0.000 NA
ATOM     18  C   UNL     1      49.133   4.821  17.148  0.00  0.00    +0.000 A 
ATOM     19  C   UNL     1      48.354   3.799  17.625  0.00  0.00    +0.000 A 
ATOM     20  C   UNL     1      47.245   3.510  16.873  0.00  0.00    +0.000 A 
ATOM     21  N   UNL     1      46.921   4.160  15.738  0.00  0.00    +0.000 NA
ENDBRANCH  13  16
ENDBRANCH  12  13
ENDBRANCH   4  12
TORSDOF 4
ENDMDL
MODEL 7
REMARK VINA RESULT:    -5.513      4.316      6.393
REMARK INTER + INTRA:          -7.286
REMARK INTER:                  -6.938
REMARK INTRA:                  -0.347
REMARK UNBOUND:                -0.484
REMARK  Name = 
REMARK  4 active torsions:
REMARK  status: ('A' for Active; 'I' for Inactive)
REMARK    1  A    between atoms: C_2  and  C_4
REMARK    2  A    between atoms: C_7  and  O_8
REMARK    3  A    between atoms: O_8  and  C_9
REMARK    4  A    between atoms: C_9  and  C_10
REMARK                            x       y       z     vdW  Elec       q    Type
REMARK                         _______ _______ _______ _____ _____    ______ ____
ROOT
ATOM      1  C   UNL     1      44.592   5.660  12.451  0.00  0.00    +0.000 A 
ATOM      2  C   UNL     1      45.703   6.468  12.691  0.00  0.00    +0.000 A 
ATOM      3  C   UNL     1      46.768   5.945  13.415  0.00  0.00    +0.000 A 
ATOM      4  C   UNL     1      46.699   4.629  13.858  0.00  0.00    +0.000 A 
ATOM      5  N   UNL     1      45.646   3.818  13.646  0.00  0.00    +0.000 NA
ATOM      6  C   UNL     1      44.602   4.362  12.958  0.00  0.00    +0.000 A 
ENDROOT
BRANCH   1   8
ATOM      7  N   UNL     1      43.478   7.396  11.159  0.00  0.00    +0.000 N 
ATOM      8  C   UNL     1      43.402   6.150  11.723  0.00  0.00    +0.000 C 
ATOM      9  O   UNL     1      42.396   5.463  11.608  0.00  0.00    +0.000 OA
ATOM     10  H   UNL     1      42.684   7.692  10.603  0.00  0.00    +0.000 HD
ATOM     11  H   UNL     1      44.349   7.889  11.026  0.00  0.00    +0.000 HD
ENDBRANCH   1   8
BRANCH   4  12
ATOM     12  O   UNL     1      47.794   4.210  14.587  0.00  0.00    +0.000 OA
BRANCH  12  13
ATOM     13  C   UNL     1      47.820   4.443  16.016  0.00  0.00    +0.000 C 
ATOM     14  C   UNL     1      48.081   3.103  16.713  0.00  0.00    +0.000 C 
ATOM     15  C   UNL     1      46.792   3.815  16.940  0.00  0.00    +0.000 C 
BRANCH  13  16
ATOM     16  C   UNL     1      48.598   5.673  16.495  0.00  0.00    +0.000 A 
ATOM     17  N   UNL     1      49.546   6.210  15.689  0.00  0.00    +0.000 NA
ATOM     18  C   UNL     1      50.203   7.298  16.136  0.00  0.00    +0.000 A 
ATOM     19  C   UNL     1      49.952   7.890  17.347  0.00  0.00    +0.000 A 
ATOM     20  C   UNL     1      48.963   7.301  18.091  0.00  0.00    +0.000 A 
ATOM     21  N   UNL     1      48.275   6.213  17.694  0.00  0.00    +0.000 NA
ENDBRANCH  13  16
ENDBRANCH  12  13
ENDBRANCH   4  12
TORSDOF 4
ENDMDL
MODEL 8
REMARK VINA RESULT:    -5.506      3.234      5.213
REMARK INTER + INTRA:          -7.278
REMARK INTER:                  -7.019
REMARK INTRA:                  -0.259
REMARK UNBOUND:                -0.484
REMARK  Name = 
REMARK  4 active torsions:
REMARK  status: ('A' for Active; 'I' for Inactive)
REMARK    1  A    between atoms: C_2  and  C_4
REMARK    2  A    between atoms: C_7  and  O_8
REMARK    3  A    between atoms: O_8  and  C_9
REMARK    4  A    between atoms: C_9  and  C_10
REMARK                            x       y       z     vdW  Elec       q    Type
REMARK                         _______ _______ _______ _____ _____    ______ ____
ROOT
ATOM      1  C   UNL     1      44.652   4.125  11.404  0.00  0.00    +0.000 A 
ATOM      2  C   UNL     1      44.976   5.134  10.498  0.00  0.00    +0.000 A 
ATOM      3  C   UNL     1      45.566   6.299  10.975  0.00  0.00    +0.000 A 
ATOM      4  C   UNL     1      45.833   6.411  12.334  0.00  0.00    +0.000 A 
ATOM      5  N   UNL     1      45.538   5.460  13.239  0.00  0.00    +0.000 NA
ATOM      6  C   UNL     1      44.934   4.339  12.752  0.00  0.00    +0.000 A 
ENDROOT
BRANCH   1   8
ATOM      7  N   UNL     1      44.567   2.162   9.968  0.00  0.00    +0.000 N 
ATOM      8  C   UNL     1      43.989   2.871  10.986  0.00  0.00    +0.000 C 
ATOM      9  O   UNL     1      42.975   2.471  11.541  0.00  0.00    +0.000 OA
ATOM     10  H   UNL     1      44.144   1.271   9.738  0.00  0.00    +0.000 HD
ATOM     11  H   UNL     1      45.511   2.325   9.650  0.00  0.00    +0.000 HD
ENDBRANCH   1   8
BRANCH   4  12
ATOM     12  O   UNL     1      46.398   7.612  12.712  0.00  0.00    +0.000 OA
BRANCH  12  13
ATOM     13  C   UNL     1      47.827   7.680  12.934  0.00  0.00    +0.000 C 
ATOM     14  C   UNL     1      48.394   8.801  12.056  0.00  0.00    +0.000 C 
ATOM     15  C   UNL     1      48.816   7.392  11.820  0.00  0.00    +0.000 C 
BRANCH  13  16
ATOM     16  C   UNL     1      48.298   7.591  14.390  0.00  0.00    +0.000 A 
ATOM     17  N   UNL     1      48.213   8.688  15.180  0.00  0.00    +0.000 NA
ATOM     18  C   UNL     1      48.624   8.572  16.457  0.00  0.00    +0.000 A 
ATOM     19  C   UNL     1      49.106   7.406  16.995  0.00  0.00    +0.000 A 
ATOM     20  C   UNL     1      49.138   6.337  16.138  0.00  0.00    +0.000 A 
ATOM     21  N   UNL     1      48.740   6.398  14.852  0.00  0.00    +0.000 NA
ENDBRANCH  13  16
ENDBRANCH  12  13
ENDBRANCH   4  12
TORSDOF 4
ENDMDL
MODEL 9
REMARK VINA RESULT:    -5.499      3.241      5.299
REMARK INTER + INTRA:          -7.268
REMARK INTER:                  -7.055
REMARK INTRA:                  -0.213
REMARK UNBOUND:                -0.484
REMARK  Name = 
REMARK  4 active torsions:
REMARK  status: ('A' for Active; 'I' for Inactive)
REMARK    1  A    between atoms: C_2  and  C_4
REMARK    2  A    between atoms: C_7  and  O_8
REMARK    3  A    between atoms: O_8  and  C_9
REMARK    4  A    between atoms: C_9  and  C_10
REMARK                            x       y       z     vdW  Elec       q    Type
REMARK                         _______ _______ _______ _____ _____    ______ ____
ROOT
ATOM      1  C   UNL     1      44.645   4.139  11.408  0.00  0.00    +0.000 A 
ATOM      2  C   UNL     1      45.076   5.078  10.471  0.00  0.00    +0.000 A 
ATOM      3  C   UNL     1      45.666   6.253  10.922  0.00  0.00    +0.000 A 
ATOM      4  C   UNL     1      45.825   6.445  12.290  0.00  0.00    +0.000 A 
ATOM      5  N   UNL     1      45.424   5.563  13.224  0.00  0.00    +0.000 NA
ATOM      6  C   UNL     1      44.823   4.431  12.759  0.00  0.00    +0.000 A 
ENDROOT
BRANCH   1   8
ATOM      7  N   UNL     1      44.496   2.196   9.951  0.00  0.00    +0.000 N 
ATOM      8  C   UNL     1      43.974   2.882  11.014  0.00  0.00    +0.000 C 
ATOM      9  O   UNL     1      43.003   2.458  11.627  0.00  0.00    +0.000 OA
ATOM     10  H   UNL     1      44.072   1.301   9.736  0.00  0.00    +0.000 HD
ATOM     11  H   UNL     1      45.416   2.377   9.576  0.00  0.00    +0.000 HD
ENDBRANCH   1   8
BRANCH   4  12
ATOM     12  O   UNL     1      46.399   7.650  12.638  0.00  0.00    +0.000 OA
BRANCH  12  13
ATOM     13  C   UNL     1      47.822   7.704  12.899  0.00  0.00    +0.000 C 
ATOM     14  C   UNL     1      48.419   8.839  12.060  0.00  0.00    +0.000 C 
ATOM     15  C   UNL     1      48.839   7.432  11.806  0.00  0.00    +0.000 C 
BRANCH  13  16
ATOM     16  C   UNL     1      48.254   7.583  14.364  0.00  0.00    +0.000 A 
ATOM     17  N   UNL     1      48.703   6.390  14.824  0.00  0.00    +0.000 NA
ATOM     18  C   UNL     1      49.086   6.321  16.114  0.00  0.00    +0.000 A 
ATOM     19  C   UNL     1      49.056   7.391  16.971  0.00  0.00    +0.000 A 
ATOM     20  C   UNL     1      48.612   8.566  16.423  0.00  0.00    +0.000 A 
ATOM     21  N   UNL     1      48.217   8.691  15.141  0.00  0.00    +0.000 NA
ENDBRANCH  13  16
ENDBRANCH  12  13
ENDBRANCH   4  12
TORSDOF 4
ENDMDL
