MODEL 1
REMARK VINA RESULT:    -7.780      0.000      0.000
REMARK INTER + INTRA:         -13.524
REMARK INTER:                 -11.646
REMARK INTRA:                  -1.877
REMARK UNBOUND:                -1.877
REMARK  Name = 
REMARK  9 active torsions:
REMARK  status: ('A' for Active; 'I' for Inactive)
REMARK    1  A    between atoms: N_1  and  C_2
REMARK    2  A    between atoms: C_2  and  C_3
REMARK    3  A    between atoms: C_3  and  C_4
REMARK    4  A    between atoms: C_4  and  N_5
REMARK    5  A    between atoms: C_4  and  C_18
REMARK    6  A    between atoms: C_6  and  C_8
REMARK    7  A    between atoms: C_21  and  N_22
REMARK    8  A    between atoms: N_22  and  C_23
REMARK    9  A    between atoms: C_23  and  C_24
REMARK                            x       y       z     vdW  Elec       q    Type
REMARK                         _______ _______ _______ _____ _____    ______ ____
ROOT
ATOM      1  C   UNL     1      47.883   6.561  14.668  0.00  0.00    +0.000 C 
ENDROOT
BRANCH   1   2
ATOM      2  C   UNL     1      47.036   5.563  13.898  0.00  0.00    +0.000 A 
ATOM      3  C   UNL     1      46.088   6.044  12.981  0.00  0.00    +0.000 A 
ATOM      4  C   UNL     1      45.319   5.164  12.210  0.00  0.00    +0.000 A 
ATOM      5  C   UNL     1      45.485   3.782  12.325  0.00  0.00    +0.000 A 
ATOM      6  C   UNL     1      46.354   3.306  13.311  0.00  0.00    +0.000 A 
ATOM      7  C   UNL     1      47.124   4.179  14.087  0.00  0.00    +0.000 A 
BRANCH   5   8
ATOM      8  N   UNL     1      44.814   2.847  11.534  0.00  0.00    +0.000 N 
ATOM      9  H   UNL     1      44.203   2.254  12.090  0.00  0.00    +0.000 HD
BRANCH   8  10
ATOM     10  C   UNL     1      44.180   3.304  10.304  0.00  0.00    +0.000 C 
BRANCH  10  11
ATOM     11  C   UNL     1      45.092   3.046   9.128  0.00  0.00    +0.000 A 
ATOM     12  C   UNL     1      45.580   4.103   8.349  0.00  0.00    +0.000 A 
ATOM     13  C   UNL     1      46.488   3.861   7.315  0.00  0.00    +0.000 A 
ATOM     14  C   UNL     1      46.921   2.559   7.053  0.00  0.00    +0.000 A 
ATOM     15  C   UNL     1      46.437   1.500   7.817  0.00  0.00    +0.000 A 
ATOM     16  C   UNL     1      45.528   1.741   8.848  0.00  0.00    +0.000 A 
ENDBRANCH  10  11
ENDBRANCH   8  10
ENDBRANCH   5   8
ENDBRANCH   1   2
BRANCH   1  17
ATOM     17  N   UNL     1      48.947   5.835  15.345  0.00  0.00    +0.000 N 
ATOM     18  C   UNL     1      49.119   5.905  16.702  0.00  0.00    +0.000 C 
ATOM     19  O   UNL     1      48.323   6.499  17.426  0.00  0.00    +0.000 OA
ATOM     20  H   UNL     1      49.696   5.466  14.763  0.00  0.00    +0.000 HD
BRANCH  18  21
ATOM     21  C   UNL     1      50.267   5.193  17.268  0.00  0.00    +0.000 A 
ATOM     22  C   UNL     1      51.304   5.921  17.837  0.00  0.00    +0.000 A 
ATOM     23  S   UNL     1      52.579   4.955  18.423  0.00  0.00    +0.000 S 
ATOM     24  C   UNL     1      51.813   3.531  17.893  0.00  0.00    +0.000 A 
ATOM     25  N   UNL     1      52.418   2.322  18.036  0.00  0.00    +0.000 NA
ATOM     26  C   UNL     1      51.747   1.331  17.553  0.00  0.00    +0.000 A 
ATOM     27  N   UNL     1      50.514   1.437  16.962  0.00  0.00    +0.000 N 
ATOM     28  C   UNL     1      49.836   2.630  16.853  0.00  0.00    +0.000 A 
ATOM     29  O   UNL     1      48.690   2.677  16.415  0.00  0.00    +0.000 OA
ATOM     30  C   UNL     1      50.576   3.785  17.324  0.00  0.00    +0.000 A 
ATOM     31  H   UNL     1      50.029   0.614  16.637  0.00  0.00    +0.000 HD
ENDBRANCH  18  21
ENDBRANCH   1  17
BRANCH   1  32
ATOM     32  C   UNL     1      48.484   7.722  13.849  0.00  0.00    +0.000 C 
BRANCH  32  33
ATOM     33  C   UNL     1      48.455   9.065  14.581  0.00  0.00    +0.000 C 
BRANCH  33  34
ATOM     34  N   UNL     1      47.563   8.980  15.737  0.00  0.00    +0.000 NA
ATOM     35  H   UNL     1      46.631   8.711  15.427  0.00  0.00    +0.000 HD
ATOM     36  H   UNL     1      47.469   9.896  16.173  0.00  0.00    +0.000 HD
ENDBRANCH  33  34
ENDBRANCH  32  33
ENDBRANCH   1  32
TORSDOF 9
ENDMDL
MODEL 2
REMARK VINA RESULT:    -7.764      2.181      2.688
REMARK INTER + INTRA:         -13.499
REMARK INTER:                 -12.529
REMARK INTRA:                  -0.970
REMARK UNBOUND:                -1.877
REMARK  Name = 
REMARK  9 active torsions:
REMARK  status: ('A' for Active; 'I' for Inactive)
REMARK    1  A    between atoms: N_1  and  C_2
REMARK    2  A    between atoms: C_2  and  C_3
REMARK    3  A    between atoms: C_3  and  C_4
REMARK    4  A    between atoms: C_4  and  N_5
REMARK    5  A    between atoms: C_4  and  C_18
REMARK    6  A    between atoms: C_6  and  C_8
REMARK    7  A    between atoms: C_21  and  N_22
REMARK    8  A    between atoms: N_22  and  C_23
REMARK    9  A    between atoms: C_23  and  C_24
REMARK                            x       y       z     vdW  Elec       q    Type
REMARK                         _______ _______ _______ _____ _____    ______ ____
ROOT
ATOM      1  C   UNL     1      46.611   8.010  12.945  0.00  0.00    +0.000 C 
ENDROOT
BRANCH   1   2
ATOM      2  C   UNL     1      45.987   6.813  12.250  0.00  0.00    +0.000 A 
ATOM      3  C   UNL     1      46.250   6.607  10.886  0.00  0.00    +0.000 A 
ATOM      4  C   UNL     1      45.741   5.491  10.213  0.00  0.00    +0.000 A 
ATOM      5  C   UNL     1      44.966   4.543  10.886  0.00  0.00    +0.000 A 
ATOM      6  C   UNL     1      44.621   4.803  12.215  0.00  0.00    +0.000 A 
ATOM      7  C   UNL     1      45.124   5.919  12.893  0.00  0.00    +0.000 A 
BRANCH   5   8
ATOM      8  N   UNL     1      44.493   3.366  10.303  0.00  0.00    +0.000 N 
ATOM      9  H   UNL     1      43.708   2.979  10.822  0.00  0.00    +0.000 HD
BRANCH   8  10
ATOM     10  C   UNL     1      44.274   3.342   8.863  0.00  0.00    +0.000 C 
BRANCH  10  11
ATOM     11  C   UNL     1      45.462   2.713   8.173  0.00  0.00    +0.000 A 
ATOM     12  C   UNL     1      45.811   1.378   8.413  0.00  0.00    +0.000 A 
ATOM     13  C   UNL     1      46.861   0.782   7.709  0.00  0.00    +0.000 A 
ATOM     14  C   UNL     1      47.569   1.516   6.754  0.00  0.00    +0.000 A 
ATOM     15  C   UNL     1      47.235   2.846   6.512  0.00  0.00    +0.000 A 
ATOM     16  C   UNL     1      46.188   3.442   7.217  0.00  0.00    +0.000 A 
ENDBRANCH  10  11
ENDBRANCH   8  10
ENDBRANCH   5   8
ENDBRANCH   1   2
BRANCH   1  17
ATOM     17  N   UNL     1      47.169   7.567  14.213  0.00  0.00    +0.000 N 
ATOM     18  C   UNL     1      48.256   6.736  14.273  0.00  0.00    +0.000 C 
ATOM     19  O   UNL     1      48.877   6.409  13.264  0.00  0.00    +0.000 OA
ATOM     20  H   UNL     1      46.592   7.699  15.041  0.00  0.00    +0.000 HD
BRANCH  18  21
ATOM     21  C   UNL     1      48.687   6.294  15.601  0.00  0.00    +0.000 A 
ATOM     22  C   UNL     1      49.648   7.030  16.282  0.00  0.00    +0.000 A 
ATOM     23  S   UNL     1      50.067   6.374  17.798  0.00  0.00    +0.000 S 
ATOM     24  C   UNL     1      49.013   5.056  17.576  0.00  0.00    +0.000 A 
ATOM     25  N   UNL     1      48.937   4.065  18.504  0.00  0.00    +0.000 NA
ATOM     26  C   UNL     1      48.132   3.106  18.192  0.00  0.00    +0.000 A 
ATOM     27  N   UNL     1      47.376   3.061  17.047  0.00  0.00    +0.000 N 
ATOM     28  C   UNL     1      47.374   4.071  16.112  0.00  0.00    +0.000 A 
ATOM     29  O   UNL     1      46.611   4.051  15.151  0.00  0.00    +0.000 OA
ATOM     30  C   UNL     1      48.311   5.143  16.386  0.00  0.00    +0.000 A 
ATOM     31  H   UNL     1      46.740   2.296  16.883  0.00  0.00    +0.000 HD
ENDBRANCH  18  21
ENDBRANCH   1  17
BRANCH   1  32
ATOM     32  C   UNL     1      47.681   8.783  12.146  0.00  0.00    +0.000 C 
BRANCH  32  33
ATOM     33  C   UNL     1      47.710  10.281  12.453  0.00  0.00    +0.000 C 
BRANCH  33  34
ATOM     34  N   UNL     1      48.246  10.501  13.796  0.00  0.00    +0.000 NA
ATOM     35  H   UNL     1      49.259  10.391  13.779  0.00  0.00    +0.000 HD
ATOM     36  H   UNL     1      47.891   9.791  14.433  0.00  0.00    +0.000 HD
ENDBRANCH  33  34
ENDBRANCH  32  33
ENDBRANCH   1  32
TORSDOF 9
ENDMDL
MODEL 3
REMARK VINA RESULT:    -7.620      2.527      4.275
REMARK INTER + INTRA:         -13.283
REMARK INTER:                 -11.638
REMARK INTRA:                  -1.645
REMARK UNBOUND:                -1.877
REMARK  Name = 
REMARK  9 active torsions:
REMARK  status: ('A' for Active; 'I' for Inactive)
REMARK    1  A    between atoms: N_1  and  C_2
REMARK    2  A    between atoms: C_2  and  C_3
REMARK    3  A    between atoms: C_3  and  C_4
REMARK    4  A    between atoms: C_4  and  N_5
REMARK    5  A    between atoms: C_4  and  C_18
REMARK    6  A    between atoms: C_6  and  C_8
REMARK    7  A    between atoms: C_21  and  N_22
REMARK    8  A    between atoms: N_22  and  C_23
REMARK    9  A    between atoms: C_23  and  C_24
REMARK                            x       y       z     vdW  Elec       q    Type
REMARK                         _______ _______ _______ _____ _____    ______ ____
ROOT
ATOM      1  C   UNL     1      47.758   4.807  15.228  0.00  0.00    +0.000 C 
ENDROOT
BRANCH   1   2
ATOM      2  C   UNL     1      46.953   5.038  13.961  0.00  0.00    +0.000 A 
ATOM      3  C   UNL     1      47.361   6.046  13.073  0.00  0.00    +0.000 A 
ATOM      4  C   UNL     1      46.684   6.265  11.868  0.00  0.00    +0.000 A 
ATOM      5  C   UNL     1      45.589   5.475  11.511  0.00  0.00    +0.000 A 
ATOM      6  C   UNL     1      45.122   4.543  12.442  0.00  0.00    +0.000 A 
ATOM      7  C   UNL     1      45.793   4.321  13.650  0.00  0.00    +0.000 A 
BRANCH   5   8
ATOM      8  N   UNL     1      44.915   5.580  10.293  0.00  0.00    +0.000 N 
ATOM      9  H   UNL     1      45.496   6.009   9.577  0.00  0.00    +0.000 HD
BRANCH   8  10
ATOM     10  C   UNL     1      44.189   4.417   9.797  0.00  0.00    +0.000 C 
BRANCH  10  11
ATOM     11  C   UNL     1      45.078   3.606   8.885  0.00  0.00    +0.000 A 
ATOM     12  C   UNL     1      45.887   4.230   7.925  0.00  0.00    +0.000 A 
ATOM     13  C   UNL     1      46.766   3.478   7.142  0.00  0.00    +0.000 A 
ATOM     14  C   UNL     1      46.849   2.094   7.315  0.00  0.00    +0.000 A 
ATOM     15  C   UNL     1      46.046   1.463   8.261  0.00  0.00    +0.000 A 
ATOM     16  C   UNL     1      45.165   2.214   9.042  0.00  0.00    +0.000 A 
ENDBRANCH  10  11
ENDBRANCH   8  10
ENDBRANCH   5   8
ENDBRANCH   1   2
BRANCH   1  17
ATOM     17  N   UNL     1      47.891   6.076  15.926  0.00  0.00    +0.000 N 
ATOM     18  C   UNL     1      49.101   6.526  16.382  0.00  0.00    +0.000 C 
ATOM     19  O   UNL     1      50.149   5.933  16.134  0.00  0.00    +0.000 OA
ATOM     20  H   UNL     1      47.034   6.504  16.271  0.00  0.00    +0.000 HD
BRANCH  18  21
ATOM     21  C   UNL     1      49.106   7.782  17.137  0.00  0.00    +0.000 A 
ATOM     22  C   UNL     1      49.811   8.870  16.639  0.00  0.00    +0.000 A 
ATOM     23  S   UNL     1      49.747  10.246  17.642  0.00  0.00    +0.000 S 
ATOM     24  C   UNL     1      48.815   9.421  18.801  0.00  0.00    +0.000 A 
ATOM     25  N   UNL     1      48.461  10.026  19.966  0.00  0.00    +0.000 NA
ATOM     26  C   UNL     1      47.792   9.274  20.775  0.00  0.00    +0.000 A 
ATOM     27  N   UNL     1      47.424   7.979  20.513  0.00  0.00    +0.000 N 
ATOM     28  C   UNL     1      47.705   7.347  19.322  0.00  0.00    +0.000 A 
ATOM     29  O   UNL     1      47.273   6.225  19.076  0.00  0.00    +0.000 OA
ATOM     30  C   UNL     1      48.511   8.129  18.405  0.00  0.00    +0.000 A 
ATOM     31  H   UNL     1      46.870   7.459  21.176  0.00  0.00    +0.000 HD
ENDBRANCH  18  21
ENDBRANCH   1  17
BRANCH   1  32
ATOM     32  C   UNL     1      47.215   3.734  16.195  0.00  0.00    +0.000 C 
BRANCH  32  33
ATOM     33  C   UNL     1      48.313   2.925  16.888  0.00  0.00    +0.000 C 
BRANCH  33  34
ATOM     34  N   UNL     1      49.005   2.089  15.907  0.00  0.00    +0.000 NA
ATOM     35  H   UNL     1      49.094   1.141  16.271  0.00  0.00    +0.000 HD
ATOM     36  H   UNL     1      49.954   2.432  15.765  0.00  0.00    +0.000 HD
ENDBRANCH  33  34
ENDBRANCH  32  33
ENDBRANCH   1  32
TORSDOF 9
ENDMDL
MODEL 4
REMARK VINA RESULT:    -7.613      1.648      2.133
REMARK INTER + INTRA:         -13.273
REMARK INTER:                 -11.609
REMARK INTRA:                  -1.664
REMARK UNBOUND:                -1.877
REMARK  Name = 
REMARK  9 active torsions:
REMARK  status: ('A' for Active; 'I' for Inactive)
REMARK    1  A    between atoms: N_1  and  C_2
REMARK    2  A    between atoms: C_2  and  C_3
REMARK    3  A    between atoms: C_3  and  C_4
REMARK    4  A    between atoms: C_4  and  N_5
REMARK    5  A    between atoms: C_4  and  C_18
REMARK    6  A    between atoms: C_6  and  C_8
REMARK    7  A    between atoms: C_21  and  N_22
REMARK    8  A    between atoms: N_22  and  C_23
REMARK    9  A    between atoms: C_23  and  C_24
REMARK                            x       y       z     vdW  Elec       q    Type
REMARK                         _______ _______ _______ _____ _____    ______ ____
ROOT
ATOM      1  C   UNL     1      47.156   7.288  13.231  0.00  0.00    +0.000 C 
ENDROOT
BRANCH   1   2
ATOM      2  C   UNL     1      46.459   6.095  12.601  0.00  0.00    +0.000 A 
ATOM      3  C   UNL     1      45.855   6.249  11.343  0.00  0.00    +0.000 A 
ATOM      4  C   UNL     1      45.245   5.167  10.698  0.00  0.00    +0.000 A 
ATOM      5  C   UNL     1      45.232   3.900  11.285  0.00  0.00    +0.000 A 
ATOM      6  C   UNL     1      45.741   3.773  12.581  0.00  0.00    +0.000 A 
ATOM      7  C   UNL     1      46.351   4.851  13.232  0.00  0.00    +0.000 A 
BRANCH   5   8
ATOM      8  N   UNL     1      44.716   2.759  10.669  0.00  0.00    +0.000 N 
ATOM      9  H   UNL     1      44.030   2.292  11.257  0.00  0.00    +0.000 HD
BRANCH   8  10
ATOM     10  C   UNL     1      44.286   2.852   9.279  0.00  0.00    +0.000 C 
BRANCH  10  11
ATOM     11  C   UNL     1      45.446   2.548   8.361  0.00  0.00    +0.000 A 
ATOM     12  C   UNL     1      46.026   1.273   8.330  0.00  0.00    +0.000 A 
ATOM     13  C   UNL     1      47.044   0.980   7.420  0.00  0.00    +0.000 A 
ATOM     14  C   UNL     1      47.489   1.958   6.527  0.00  0.00    +0.000 A 
ATOM     15  C   UNL     1      46.924   3.230   6.553  0.00  0.00    +0.000 A 
ATOM     16  C   UNL     1      45.909   3.525   7.465  0.00  0.00    +0.000 A 
ENDBRANCH  10  11
ENDBRANCH   8  10
ENDBRANCH   5   8
ENDBRANCH   1   2
BRANCH   1  17
ATOM     17  N   UNL     1      48.231   6.797  14.080  0.00  0.00    +0.000 N 
ATOM     18  C   UNL     1      48.733   7.542  15.112  0.00  0.00    +0.000 C 
ATOM     19  O   UNL     1      48.234   8.616  15.440  0.00  0.00    +0.000 OA
ATOM     20  H   UNL     1      48.753   5.991  13.742  0.00  0.00    +0.000 HD
BRANCH  18  21
ATOM     21  C   UNL     1      49.864   6.979  15.855  0.00  0.00    +0.000 A 
ATOM     22  C   UNL     1      51.095   7.620  15.804  0.00  0.00    +0.000 A 
ATOM     23  S   UNL     1      52.317   6.830  16.691  0.00  0.00    +0.000 S 
ATOM     24  C   UNL     1      51.255   5.577  17.135  0.00  0.00    +0.000 A 
ATOM     25  N   UNL     1      51.697   4.520  17.866  0.00  0.00    +0.000 NA
ATOM     26  C   UNL     1      50.800   3.620  18.097  0.00  0.00    +0.000 A 
ATOM     27  N   UNL     1      49.493   3.696  17.683  0.00  0.00    +0.000 N 
ATOM     28  C   UNL     1      48.987   4.776  16.997  0.00  0.00    +0.000 A 
ATOM     29  O   UNL     1      47.792   4.863  16.732  0.00  0.00    +0.000 OA
ATOM     30  C   UNL     1      49.972   5.785  16.657  0.00  0.00    +0.000 A 
ATOM     31  H   UNL     1      48.835   2.972  17.928  0.00  0.00    +0.000 HD
ENDBRANCH  18  21
ENDBRANCH   1  17
BRANCH   1  32
ATOM     32  C   UNL     1      47.706   8.350  12.256  0.00  0.00    +0.000 C 
BRANCH  32  33
ATOM     33  C   UNL     1      46.973   9.691  12.336  0.00  0.00    +0.000 C 
BRANCH  33  34
ATOM     34  N   UNL     1      47.724  10.616  13.184  0.00  0.00    +0.000 NA
ATOM     35  H   UNL     1      48.566  10.916  12.696  0.00  0.00    +0.000 HD
ATOM     36  H   UNL     1      48.036  10.139  14.029  0.00  0.00    +0.000 HD
ENDBRANCH  33  34
ENDBRANCH  32  33
ENDBRANCH   1  32
TORSDOF 9
ENDMDL
MODEL 5
REMARK VINA RESULT:    -7.361      2.127      4.549
REMARK INTER + INTRA:         -12.896
REMARK INTER:                 -11.168
REMARK INTRA:                  -1.728
REMARK UNBOUND:                -1.877
REMARK  Name = 
REMARK  9 active torsions:
REMARK  status: ('A' for Active; 'I' for Inactive)
REMARK    1  A    between atoms: N_1  and  C_2
REMARK    2  A    between atoms: C_2  and  C_3
REMARK    3  A    between atoms: C_3  and  C_4
REMARK    4  A    between atoms: C_4  and  N_5
REMARK    5  A    between atoms: C_4  and  C_18
REMARK    6  A    between atoms: C_6  and  C_8
REMARK    7  A    between atoms: C_21  and  N_22
REMARK    8  A    between atoms: N_22  and  C_23
REMARK    9  A    between atoms: C_23  and  C_24
REMARK                            x       y       z     vdW  Elec       q    Type
REMARK                         _______ _______ _______ _____ _____    ______ ____
ROOT
ATOM      1  C   UNL     1      47.696   4.636  15.404  0.00  0.00    +0.000 C 
ENDROOT
BRANCH   1   2
ATOM      2  C   UNL     1      46.923   4.872  14.118  0.00  0.00    +0.000 A 
ATOM      3  C   UNL     1      47.151   6.055  13.398  0.00  0.00    +0.000 A 
ATOM      4  C   UNL     1      46.502   6.295  12.181  0.00  0.00    +0.000 A 
ATOM      5  C   UNL     1      45.618   5.356  11.645  0.00  0.00    +0.000 A 
ATOM      6  C   UNL     1      45.316   4.228  12.413  0.00  0.00    +0.000 A 
ATOM      7  C   UNL     1      45.959   3.982  13.631  0.00  0.00    +0.000 A 
BRANCH   5   8
ATOM      8  N   UNL     1      44.997   5.488  10.402  0.00  0.00    +0.000 N 
ATOM      9  H   UNL     1      45.620   5.904   9.713  0.00  0.00    +0.000 HD
BRANCH   8  10
ATOM     10  C   UNL     1      44.257   4.352   9.869  0.00  0.00    +0.000 C 
BRANCH  10  11
ATOM     11  C   UNL     1      45.133   3.565   8.922  0.00  0.00    +0.000 A 
ATOM     12  C   UNL     1      45.907   4.214   7.950  0.00  0.00    +0.000 A 
ATOM     13  C   UNL     1      46.776   3.485   7.134  0.00  0.00    +0.000 A 
ATOM     14  C   UNL     1      46.883   2.100   7.286  0.00  0.00    +0.000 A 
ATOM     15  C   UNL     1      46.114   1.445   8.244  0.00  0.00    +0.000 A 
ATOM     16  C   UNL     1      45.244   2.173   9.057  0.00  0.00    +0.000 A 
ENDBRANCH  10  11
ENDBRANCH   8  10
ENDBRANCH   5   8
ENDBRANCH   1   2
BRANCH   1  17
ATOM     17  N   UNL     1      47.990   5.927  16.007  0.00  0.00    +0.000 N 
ATOM     18  C   UNL     1      49.187   6.182  16.621  0.00  0.00    +0.000 C 
ATOM     19  O   UNL     1      50.111   5.372  16.602  0.00  0.00    +0.000 OA
ATOM     20  H   UNL     1      47.201   6.551  16.166  0.00  0.00    +0.000 HD
BRANCH  18  21
ATOM     21  C   UNL     1      49.346   7.491  17.259  0.00  0.00    +0.000 A 
ATOM     22  C   UNL     1      49.643   7.554  18.614  0.00  0.00    +0.000 A 
ATOM     23  S   UNL     1      49.766   9.144  19.216  0.00  0.00    +0.000 S 
ATOM     24  C   UNL     1      49.378   9.804  17.697  0.00  0.00    +0.000 A 
ATOM     25  N   UNL     1      49.254  11.148  17.536  0.00  0.00    +0.000 NA
ATOM     26  C   UNL     1      48.914  11.512  16.345  0.00  0.00    +0.000 A 
ATOM     27  N   UNL     1      48.712  10.654  15.293  0.00  0.00    +0.000 N 
ATOM     28  C   UNL     1      48.890   9.292  15.394  0.00  0.00    +0.000 A 
ATOM     29  O   UNL     1      48.804   8.561  14.412  0.00  0.00    +0.000 OA
ATOM     30  C   UNL     1      49.209   8.827  16.730  0.00  0.00    +0.000 A 
ATOM     31  H   UNL     1      48.482  11.009  14.378  0.00  0.00    +0.000 HD
ENDBRANCH  18  21
ENDBRANCH   1  17
BRANCH   1  32
ATOM     32  C   UNL     1      47.026   3.715  16.445  0.00  0.00    +0.000 C 
BRANCH  32  33
ATOM     33  C   UNL     1      47.970   2.659  17.024  0.00  0.00    +0.000 C 
BRANCH  33  34
ATOM     34  N   UNL     1      49.043   2.378  16.070  0.00  0.00    +0.000 NA
ATOM     35  H   UNL     1      49.229   3.211  15.513  0.00  0.00    +0.000 HD
ATOM     36  H   UNL     1      48.746   1.655  15.416  0.00  0.00    +0.000 HD
ENDBRANCH  33  34
ENDBRANCH  32  33
ENDBRANCH   1  32
TORSDOF 9
ENDMDL
MODEL 6
REMARK VINA RESULT:    -7.168      2.272      2.882
REMARK INTER + INTRA:         -12.608
REMARK INTER:                 -11.174
REMARK INTRA:                  -1.434
REMARK UNBOUND:                -1.877
REMARK  Name = 
REMARK  9 active torsions:
REMARK  status: ('A' for Active; 'I' for Inactive)
REMARK    1  A    between atoms: N_1  and  C_2
REMARK    2  A    between atoms: C_2  and  C_3
REMARK    3  A    between atoms: C_3  and  C_4
REMARK    4  A    between atoms: C_4  and  N_5
REMARK    5  A    between atoms: C_4  and  C_18
REMARK    6  A    between atoms: C_6  and  C_8
REMARK    7  A    between atoms: C_21  and  N_22
REMARK    8  A    between atoms: N_22  and  C_23
REMARK    9  A    between atoms: C_23  and  C_24
REMARK                            x       y       z     vdW  Elec       q    Type
REMARK                         _______ _______ _______ _____ _____    ______ ____
ROOT
ATOM      1  C   UNL     1      48.033   7.321  13.362  0.00  0.00    +0.000 C 
ENDROOT
BRANCH   1   2
ATOM      2  C   UNL     1      47.034   6.392  12.696  0.00  0.00    +0.000 A 
ATOM      3  C   UNL     1      46.481   6.765  11.460  0.00  0.00    +0.000 A 
ATOM      4  C   UNL     1      45.594   5.920  10.782  0.00  0.00    +0.000 A 
ATOM      5  C   UNL     1      45.247   4.676  11.312  0.00  0.00    +0.000 A 
ATOM      6  C   UNL     1      45.716   4.353  12.588  0.00  0.00    +0.000 A 
ATOM      7  C   UNL     1      46.601   5.193  13.273  0.00  0.00    +0.000 A 
BRANCH   5   8
ATOM      8  N   UNL     1      44.435   3.748  10.657  0.00  0.00    +0.000 N 
ATOM      9  H   UNL     1      43.556   3.604  11.149  0.00  0.00    +0.000 HD
BRANCH   8  10
ATOM     10  C   UNL     1      44.253   3.876   9.217  0.00  0.00    +0.000 C 
BRANCH  10  11
ATOM     11  C   UNL     1      45.362   3.150   8.492  0.00  0.00    +0.000 A 
ATOM     12  C   UNL     1      45.561   1.774   8.671  0.00  0.00    +0.000 A 
ATOM     13  C   UNL     1      46.536   1.098   7.935  0.00  0.00    +0.000 A 
ATOM     14  C   UNL     1      47.320   1.789   7.008  0.00  0.00    +0.000 A 
ATOM     15  C   UNL     1      47.136   3.158   6.827  0.00  0.00    +0.000 A 
ATOM     16  C   UNL     1      46.163   3.835   7.565  0.00  0.00    +0.000 A 
ENDBRANCH  10  11
ENDBRANCH   8  10
ENDBRANCH   5   8
ENDBRANCH   1   2
BRANCH   1  17
ATOM     17  N   UNL     1      47.943   7.136  14.802  0.00  0.00    +0.000 N 
ATOM     18  C   UNL     1      48.625   7.939  15.677  0.00  0.00    +0.000 C 
ATOM     19  O   UNL     1      49.261   8.919  15.297  0.00  0.00    +0.000 OA
ATOM     20  H   UNL     1      47.551   6.256  15.130  0.00  0.00    +0.000 HD
BRANCH  18  21
ATOM     21  C   UNL     1      48.519   7.616  17.103  0.00  0.00    +0.000 A 
ATOM     22  C   UNL     1      48.371   8.645  18.022  0.00  0.00    +0.000 A 
ATOM     23  S   UNL     1      48.292   8.114  19.640  0.00  0.00    +0.000 S 
ATOM     24  C   UNL     1      48.503   6.492  19.171  0.00  0.00    +0.000 A 
ATOM     25  N   UNL     1      48.590   5.506  20.102  0.00  0.00    +0.000 NA
ATOM     26  C   UNL     1      48.792   4.328  19.613  0.00  0.00    +0.000 A 
ATOM     27  N   UNL     1      48.889   4.045  18.274  0.00  0.00    +0.000 N 
ATOM     28  C   UNL     1      48.743   5.000  17.295  0.00  0.00    +0.000 A 
ATOM     29  O   UNL     1      48.730   4.700  16.105  0.00  0.00    +0.000 OA
ATOM     30  C   UNL     1      48.578   6.351  17.795  0.00  0.00    +0.000 A 
ATOM     31  H   UNL     1      49.013   3.095  17.959  0.00  0.00    +0.000 HD
ENDBRANCH  18  21
ENDBRANCH   1  17
BRANCH   1  32
ATOM     32  C   UNL     1      49.502   7.182  12.910  0.00  0.00    +0.000 C 
BRANCH  32  33
ATOM     33  C   UNL     1      49.945   8.269  11.928  0.00  0.00    +0.000 C 
BRANCH  33  34
ATOM     34  N   UNL     1      50.839   9.210  12.603  0.00  0.00    +0.000 NA
ATOM     35  H   UNL     1      50.642  10.156  12.279  0.00  0.00    +0.000 HD
ATOM     36  H   UNL     1      51.806   9.014  12.349  0.00  0.00    +0.000 HD
ENDBRANCH  33  34
ENDBRANCH  32  33
ENDBRANCH   1  32
TORSDOF 9
ENDMDL
MODEL 7
REMARK VINA RESULT:    -7.166      2.013      2.665
REMARK INTER + INTRA:         -12.605
REMARK INTER:                 -10.907
REMARK INTRA:                  -1.697
REMARK UNBOUND:                -1.877
REMARK  Name = 
REMARK  9 active torsions:
REMARK  status: ('A' for Active; 'I' for Inactive)
REMARK    1  A    between atoms: N_1  and  C_2
REMARK    2  A    between atoms: C_2  and  C_3
REMARK    3  A    between atoms: C_3  and  C_4
REMARK    4  A    between atoms: C_4  and  N_5
REMARK    5  A    between atoms: C_4  and  C_18
REMARK    6  A    between atoms: C_6  and  C_8
REMARK    7  A    between atoms: C_21  and  N_22
REMARK    8  A    between atoms: N_22  and  C_23
REMARK    9  A    between atoms: C_23  and  C_24
REMARK                            x       y       z     vdW  Elec       q    Type
REMARK                         _______ _______ _______ _____ _____    ______ ____
ROOT
ATOM      1  C   UNL     1      47.673   7.279  13.597  0.00  0.00    +0.000 C 
ENDROOT
BRANCH   1   2
ATOM      2  C   UNL     1      46.772   6.348  12.804  0.00  0.00    +0.000 A 
ATOM      3  C   UNL     1      46.243   6.794  11.583  0.00  0.00    +0.000 A 
ATOM      4  C   UNL     1      45.449   5.956  10.792  0.00  0.00    +0.000 A 
ATOM      5  C   UNL     1      45.173   4.647  11.192  0.00  0.00    +0.000 A 
ATOM      6  C   UNL     1      45.614   4.241  12.454  0.00  0.00    +0.000 A 
ATOM      7  C   UNL     1      46.406   5.074  13.252  0.00  0.00    +0.000 A 
BRANCH   5   8
ATOM      8  N   UNL     1      44.459   3.729  10.420  0.00  0.00    +0.000 N 
ATOM      9  H   UNL     1      43.557   3.509  10.835  0.00  0.00    +0.000 HD
BRANCH   8  10
ATOM     10  C   UNL     1      44.371   3.949   8.981  0.00  0.00    +0.000 C 
BRANCH  10  11
ATOM     11  C   UNL     1      45.404   3.108   8.268  0.00  0.00    +0.000 A 
ATOM     12  C   UNL     1      46.286   3.683   7.344  0.00  0.00    +0.000 A 
ATOM     13  C   UNL     1      47.291   2.914   6.751  0.00  0.00    +0.000 A 
ATOM     14  C   UNL     1      47.426   1.563   7.081  0.00  0.00    +0.000 A 
ATOM     15  C   UNL     1      46.550   0.980   7.994  0.00  0.00    +0.000 A 
ATOM     16  C   UNL     1      45.545   1.748   8.584  0.00  0.00    +0.000 A 
ENDBRANCH  10  11
ENDBRANCH   8  10
ENDBRANCH   5   8
ENDBRANCH   1   2
BRANCH   1  17
ATOM     17  N   UNL     1      48.463   6.479  14.520  0.00  0.00    +0.000 N 
ATOM     18  C   UNL     1      48.894   6.976  15.721  0.00  0.00    +0.000 C 
ATOM     19  O   UNL     1      48.547   8.083  16.126  0.00  0.00    +0.000 OA
ATOM     20  H   UNL     1      48.883   5.628  14.149  0.00  0.00    +0.000 HD
BRANCH  18  21
ATOM     21  C   UNL     1      49.745   6.107  16.537  0.00  0.00    +0.000 A 
ATOM     22  C   UNL     1      49.158   5.103  17.297  0.00  0.00    +0.000 A 
ATOM     23  S   UNL     1      50.273   4.197  18.214  0.00  0.00    +0.000 S 
ATOM     24  C   UNL     1      51.574   5.147  17.666  0.00  0.00    +0.000 A 
ATOM     25  N   UNL     1      52.834   4.932  18.129  0.00  0.00    +0.000 NA
ATOM     26  C   UNL     1      53.718   5.750  17.665  0.00  0.00    +0.000 A 
ATOM     27  N   UNL     1      53.460   6.749  16.760  0.00  0.00    +0.000 N 
ATOM     28  C   UNL     1      52.213   6.961  16.216  0.00  0.00    +0.000 A 
ATOM     29  O   UNL     1      52.035   7.793  15.332  0.00  0.00    +0.000 OA
ATOM     30  C   UNL     1      51.171   6.108  16.754  0.00  0.00    +0.000 A 
ATOM     31  H   UNL     1      54.206   7.331  16.412  0.00  0.00    +0.000 HD
ENDBRANCH  18  21
ENDBRANCH   1  17
BRANCH   1  32
ATOM     32  C   UNL     1      48.603   8.195  12.773  0.00  0.00    +0.000 C 
BRANCH  32  33
ATOM     33  C   UNL     1      49.761   7.449  12.107  0.00  0.00    +0.000 C 
BRANCH  33  34
ATOM     34  N   UNL     1      51.027   7.857  12.714  0.00  0.00    +0.000 NA
ATOM     35  H   UNL     1      51.639   7.047  12.799  0.00  0.00    +0.000 HD
ATOM     36  H   UNL     1      50.866   8.196  13.661  0.00  0.00    +0.000 HD
ENDBRANCH  33  34
ENDBRANCH  32  33
ENDBRANCH   1  32
TORSDOF 9
ENDMDL
MODEL 8
REMARK VINA RESULT:    -7.064      2.891      8.321
REMARK INTER + INTRA:         -12.452
REMARK INTER:                 -10.975
REMARK INTRA:                  -1.476
REMARK UNBOUND:                -1.877
REMARK  Name = 
REMARK  9 active torsions:
REMARK  status: ('A' for Active; 'I' for Inactive)
REMARK    1  A    between atoms: N_1  and  C_2
REMARK    2  A    between atoms: C_2  and  C_3
REMARK    3  A    between atoms: C_3  and  C_4
REMARK    4  A    between atoms: C_4  and  N_5
REMARK    5  A    between atoms: C_4  and  C_18
REMARK    6  A    between atoms: C_6  and  C_8
REMARK    7  A    between atoms: C_21  and  N_22
REMARK    8  A    between atoms: N_22  and  C_23
REMARK    9  A    between atoms: C_23  and  C_24
REMARK                            x       y       z     vdW  Elec       q    Type
REMARK                         _______ _______ _______ _____ _____    ______ ____
ROOT
ATOM      1  C   UNL     1      48.706   5.722  17.310  0.00  0.00    +0.000 C 
ENDROOT
BRANCH   1   2
ATOM      2  C   UNL     1      49.543   4.456  17.382  0.00  0.00    +0.000 A 
ATOM      3  C   UNL     1      48.933   3.223  17.104  0.00  0.00    +0.000 A 
ATOM      4  C   UNL     1      49.673   2.035  17.107  0.00  0.00    +0.000 A 
ATOM      5  C   UNL     1      51.043   2.047  17.376  0.00  0.00    +0.000 A 
ATOM      6  C   UNL     1      51.626   3.260  17.754  0.00  0.00    +0.000 A 
ATOM      7  C   UNL     1      50.892   4.451  17.755  0.00  0.00    +0.000 A 
BRANCH   5   8
ATOM      8  N   UNL     1      51.860   0.917  17.318  0.00  0.00    +0.000 N 
ATOM      9  H   UNL     1      51.892   0.524  16.381  0.00  0.00    +0.000 HD
BRANCH   8  10
ATOM     10  C   UNL     1      53.176   0.977  17.942  0.00  0.00    +0.000 C 
BRANCH  10  11
ATOM     11  C   UNL     1      53.976  -0.252  17.576  0.00  0.00    +0.000 A 
ATOM     12  C   UNL     1      54.546  -0.387  16.303  0.00  0.00    +0.000 A 
ATOM     13  C   UNL     1      55.351  -1.489  16.001  0.00  0.00    +0.000 A 
ATOM     14  C   UNL     1      55.597  -2.463  16.971  0.00  0.00    +0.000 A 
ATOM     15  C   UNL     1      55.030  -2.342  18.238  0.00  0.00    +0.000 A 
ATOM     16  C   UNL     1      54.224  -1.243  18.538  0.00  0.00    +0.000 A 
ENDBRANCH  10  11
ENDBRANCH   8  10
ENDBRANCH   5   8
ENDBRANCH   1   2
BRANCH   1  17
ATOM     17  N   UNL     1      47.891   5.665  16.107  0.00  0.00    +0.000 N 
ATOM     18  C   UNL     1      48.320   6.191  14.917  0.00  0.00    +0.000 C 
ATOM     19  O   UNL     1      49.455   6.643  14.780  0.00  0.00    +0.000 OA
ATOM     20  H   UNL     1      46.906   5.437  16.228  0.00  0.00    +0.000 HD
BRANCH  18  21
ATOM     21  C   UNL     1      47.386   6.144  13.790  0.00  0.00    +0.000 A 
ATOM     22  C   UNL     1      47.042   7.324  13.144  0.00  0.00    +0.000 A 
ATOM     23  S   UNL     1      45.925   7.111  11.874  0.00  0.00    +0.000 S 
ATOM     24  C   UNL     1      45.825   5.439  12.175  0.00  0.00    +0.000 A 
ATOM     25  N   UNL     1      44.975   4.655  11.460  0.00  0.00    +0.000 NA
ATOM     26  C   UNL     1      44.967   3.415  11.818  0.00  0.00    +0.000 A 
ATOM     27  N   UNL     1      45.750   2.883  12.811  0.00  0.00    +0.000 N 
ATOM     28  C   UNL     1      46.670   3.626  13.516  0.00  0.00    +0.000 A 
ATOM     29  O   UNL     1      47.430   3.102  14.325  0.00  0.00    +0.000 OA
ATOM     30  C   UNL     1      46.672   5.040  13.195  0.00  0.00    +0.000 A 
ATOM     31  H   UNL     1      45.718   1.897  13.016  0.00  0.00    +0.000 HD
ENDBRANCH  18  21
ENDBRANCH   1  17
BRANCH   1  32
ATOM     32  C   UNL     1      47.813   6.021  18.532  0.00  0.00    +0.000 C 
BRANCH  32  33
ATOM     33  C   UNL     1      47.816   7.494  18.945  0.00  0.00    +0.000 C 
BRANCH  33  34
ATOM     34  N   UNL     1      47.735   8.341  17.756  0.00  0.00    +0.000 NA
ATOM     35  H   UNL     1      47.679   7.755  16.924  0.00  0.00    +0.000 HD
ATOM     36  H   UNL     1      48.587   8.892  17.662  0.00  0.00    +0.000 HD
ENDBRANCH  33  34
ENDBRANCH  32  33
ENDBRANCH   1  32
TORSDOF 9
ENDMDL
MODEL 9
REMARK VINA RESULT:    -6.818      2.524      3.172
REMARK INTER + INTRA:         -12.083
REMARK INTER:                 -10.981
REMARK INTRA:                  -1.102
REMARK UNBOUND:                -1.877
REMARK  Name = 
REMARK  9 active torsions:
REMARK  status: ('A' for Active; 'I' for Inactive)
REMARK    1  A    between atoms: N_1  and  C_2
REMARK    2  A    between atoms: C_2  and  C_3
REMARK    3  A    between atoms: C_3  and  C_4
REMARK    4  A    between atoms: C_4  and  N_5
REMARK    5  A    between atoms: C_4  and  C_18
REMARK    6  A    between atoms: C_6  and  C_8
REMARK    7  A    between atoms: C_21  and  N_22
REMARK    8  A    between atoms: N_22  and  C_23
REMARK    9  A    between atoms: C_23  and  C_24
REMARK                            x       y       z     vdW  Elec       q    Type
REMARK                         _______ _______ _______ _____ _____    ______ ____
ROOT
ATOM      1  C   UNL     1      46.791   8.045  13.106  0.00  0.00    +0.000 C 
ENDROOT
BRANCH   1   2
ATOM      2  C   UNL     1      46.136   7.040  12.174  0.00  0.00    +0.000 A 
ATOM      3  C   UNL     1      44.961   6.395  12.590  0.00  0.00    +0.000 A 
ATOM      4  C   UNL     1      44.293   5.499  11.747  0.00  0.00    +0.000 A 
ATOM      5  C   UNL     1      44.772   5.234  10.463  0.00  0.00    +0.000 A 
ATOM      6  C   UNL     1      45.995   5.797  10.090  0.00  0.00    +0.000 A 
ATOM      7  C   UNL     1      46.671   6.691  10.929  0.00  0.00    +0.000 A 
BRANCH   5   8
ATOM      8  N   UNL     1      44.117   4.418   9.538  0.00  0.00    +0.000 N 
ATOM      9  H   UNL     1      44.155   4.808   8.599  0.00  0.00    +0.000 HD
BRANCH   8  10
ATOM     10  C   UNL     1      44.391   2.986   9.558  0.00  0.00    +0.000 C 
BRANCH  10  11
ATOM     11  C   UNL     1      45.338   2.628   8.437  0.00  0.00    +0.000 A 
ATOM     12  C   UNL     1      45.645   3.553   7.430  0.00  0.00    +0.000 A 
ATOM     13  C   UNL     1      46.583   3.241   6.443  0.00  0.00    +0.000 A 
ATOM     14  C   UNL     1      47.229   2.002   6.457  0.00  0.00    +0.000 A 
ATOM     15  C   UNL     1      46.927   1.073   7.450  0.00  0.00    +0.000 A 
ATOM     16  C   UNL     1      45.986   1.383   8.434  0.00  0.00    +0.000 A 
ENDBRANCH  10  11
ENDBRANCH   8  10
ENDBRANCH   5   8
ENDBRANCH   1   2
BRANCH   1  17
ATOM     17  N   UNL     1      47.125   7.368  14.350  0.00  0.00    +0.000 N 
ATOM     18  C   UNL     1      48.150   6.463  14.427  0.00  0.00    +0.000 C 
ATOM     19  O   UNL     1      48.904   6.256  13.478  0.00  0.00    +0.000 OA
ATOM     20  H   UNL     1      46.434   7.408  15.096  0.00  0.00    +0.000 HD
BRANCH  18  21
ATOM     21  C   UNL     1      48.350   5.787  15.711  0.00  0.00    +0.000 A 
ATOM     22  C   UNL     1      47.652   4.616  15.977  0.00  0.00    +0.000 A 
ATOM     23  S   UNL     1      47.967   3.966  17.520  0.00  0.00    +0.000 S 
ATOM     24  C   UNL     1      49.010   5.253  17.906  0.00  0.00    +0.000 A 
ATOM     25  N   UNL     1      49.584   5.337  19.136  0.00  0.00    +0.000 NA
ATOM     26  C   UNL     1      50.317   6.385  19.311  0.00  0.00    +0.000 A 
ATOM     27  N   UNL     1      50.550   7.344  18.357  0.00  0.00    +0.000 N 
ATOM     28  C   UNL     1      50.043   7.267  17.079  0.00  0.00    +0.000 A 
ATOM     29  O   UNL     1      50.353   8.084  16.218  0.00  0.00    +0.000 OA
ATOM     30  C   UNL     1      49.159   6.140  16.853  0.00  0.00    +0.000 A 
ATOM     31  H   UNL     1      51.164   8.120  18.550  0.00  0.00    +0.000 HD
ENDBRANCH  18  21
ENDBRANCH   1  17
BRANCH   1  32
ATOM     32  C   UNL     1      48.035   8.775  12.559  0.00  0.00    +0.000 C 
BRANCH  32  33
ATOM     33  C   UNL     1      48.201  10.194  13.106  0.00  0.00    +0.000 C 
BRANCH  33  34
ATOM     34  N   UNL     1      48.571  10.139  14.520  0.00  0.00    +0.000 NA
ATOM     35  H   UNL     1      48.998   9.237  14.724  0.00  0.00    +0.000 HD
ATOM     36  H   UNL     1      47.736  10.200  15.101  0.00  0.00    +0.000 HD
ENDBRANCH  33  34
ENDBRANCH  32  33
ENDBRANCH   1  32
TORSDOF 9
ENDMDL
