MODEL 1
REMARK VINA RESULT:    -8.791      0.000      0.000
REMARK INTER + INTRA:         -12.113
REMARK INTER:                 -11.361
REMARK INTRA:                  -0.752
REMARK UNBOUND:                -0.752
REMARK  Name = 
REMARK  5 active torsions:
REMARK  status: ('A' for Active; 'I' for Inactive)
REMARK    1  A    between atoms: C_2  and  C_18
REMARK    2  A    between atoms: N_3  and  C_4
REMARK    3  A    between atoms: C_4  and  C_5
REMARK    4  A    between atoms: C_8  and  C_9
REMARK    5  A    between atoms: C_9  and  C_10
REMARK                            x       y       z     vdW  Elec       q    Type
REMARK                         _______ _______ _______ _____ _____    ______ ____
ROOT
ATOM      1  O   UNL     1      48.969   6.757  13.175  0.00  0.00    +0.000 OA
ATOM      2  C   UNL     1      48.192   6.611  14.114  0.00  0.00    +0.000 C 
ATOM      3  N   UNL     1      46.842   6.797  13.993  0.00  0.00    +0.000 N 
ATOM      4  H   UNL     1      46.272   6.845  14.829  0.00  0.00    +0.000 HD
ENDROOT
BRANCH   2   5
ATOM      5  C   UNL     1      48.668   6.176  15.434  0.00  0.00    +0.000 A 
ATOM      6  C   UNL     1      49.622   6.927  16.107  0.00  0.00    +0.000 A 
ATOM      7  S   UNL     1      50.064   6.274  17.620  0.00  0.00    +0.000 S 
ATOM      8  C   UNL     1      48.959   4.990  17.449  0.00  0.00    +0.000 A 
ATOM      9  N   UNL     1      48.804   4.064  18.433  0.00  0.00    +0.000 NA
ATOM     10  C   UNL     1      47.901   3.175  18.192  0.00  0.00    +0.000 A 
ATOM     11  N   UNL     1      47.146   3.117  17.049  0.00  0.00    +0.000 N 
ATOM     12  C   UNL     1      47.328   3.978  15.994  0.00  0.00    +0.000 A 
ATOM     13  O   UNL     1      46.743   3.805  14.930  0.00  0.00    +0.000 OA
ATOM     14  C   UNL     1      48.291   5.037  16.238  0.00  0.00    +0.000 A 
ATOM     15  H   UNL     1      46.479   2.374  16.906  0.00  0.00    +0.000 HD
ENDBRANCH   2   5
BRANCH   3  16
ATOM     16  C   UNL     1      46.232   7.318  12.797  0.00  0.00    +0.000 C 
BRANCH  16  17
ATOM     17  C   UNL     1      45.778   6.207  11.886  0.00  0.00    +0.000 A 
ATOM     18  C   UNL     1      46.064   6.262  10.518  0.00  0.00    +0.000 A 
ATOM     19  C   UNL     1      45.660   5.233   9.667  0.00  0.00    +0.000 A 
ATOM     20  C   UNL     1      44.969   4.121  10.167  0.00  0.00    +0.000 A 
ATOM     21  C   UNL     1      44.654   4.081  11.532  0.00  0.00    +0.000 A 
ATOM     22  C   UNL     1      45.042   5.122  12.380  0.00  0.00    +0.000 A 
BRANCH  20  23
ATOM     23  C   UNL     1      44.560   2.992   9.247  0.00  0.00    +0.000 C 
BRANCH  23  24
ATOM     24  C   UNL     1      45.621   2.513   8.276  0.00  0.00    +0.000 A 
ATOM     25  C   UNL     1      46.018   3.300   7.195  0.00  0.00    +0.000 A 
ATOM     26  C   UNL     1      46.894   2.768   6.251  0.00  0.00    +0.000 A 
ATOM     27  C   UNL     1      47.355   1.468   6.408  0.00  0.00    +0.000 A 
ATOM     28  C   UNL     1      46.930   0.756   7.516  0.00  0.00    +0.000 A 
ATOM     29  N   UNL     1      46.076   1.244   8.444  0.00  0.00    +0.000 NA
ENDBRANCH  23  24
ENDBRANCH  20  23
ENDBRANCH  16  17
ENDBRANCH   3  16
TORSDOF 5
ENDMDL
MODEL 2
REMARK VINA RESULT:    -8.001      1.284      1.833
REMARK INTER + INTRA:         -11.091
REMARK INTER:                 -10.097
REMARK INTRA:                  -0.995
REMARK UNBOUND:                -0.752
REMARK  Name = 
REMARK  5 active torsions:
REMARK  status: ('A' for Active; 'I' for Inactive)
REMARK    1  A    between atoms: C_2  and  C_18
REMARK    2  A    between atoms: N_3  and  C_4
REMARK    3  A    between atoms: C_4  and  C_5
REMARK    4  A    between atoms: C_8  and  C_9
REMARK    5  A    between atoms: C_9  and  C_10
REMARK                            x       y       z     vdW  Elec       q    Type
REMARK                         _______ _______ _______ _____ _____    ______ ____
ROOT
ATOM      1  O   UNL     1      49.884   7.072  14.080  0.00  0.00    +0.000 OA
ATOM      2  C   UNL     1      49.051   7.028  14.981  0.00  0.00    +0.000 C 
ATOM      3  N   UNL     1      47.768   7.475  14.824  0.00  0.00    +0.000 N 
ATOM      4  H   UNL     1      47.180   7.587  15.642  0.00  0.00    +0.000 HD
ENDROOT
BRANCH   2   5
ATOM      5  C   UNL     1      49.375   6.440  16.288  0.00  0.00    +0.000 A 
ATOM      6  C   UNL     1      50.270   7.084  17.133  0.00  0.00    +0.000 A 
ATOM      7  S   UNL     1      50.535   6.260  18.603  0.00  0.00    +0.000 S 
ATOM      8  C   UNL     1      49.426   5.039  18.181  0.00  0.00    +0.000 A 
ATOM      9  N   UNL     1      49.147   4.020  19.039  0.00  0.00    +0.000 NA
ATOM     10  C   UNL     1      48.255   3.193  18.611  0.00  0.00    +0.000 A 
ATOM     11  N   UNL     1      47.624   3.281  17.398  0.00  0.00    +0.000 N 
ATOM     12  C   UNL     1      47.935   4.241  16.466  0.00  0.00    +0.000 A 
ATOM     13  O   UNL     1      47.462   4.202  15.335  0.00  0.00    +0.000 OA
ATOM     14  C   UNL     1      48.890   5.236  16.921  0.00  0.00    +0.000 A 
ATOM     15  H   UNL     1      46.959   2.580  17.107  0.00  0.00    +0.000 HD
ENDBRANCH   2   5
BRANCH   3  16
ATOM     16  C   UNL     1      47.323   8.166  13.642  0.00  0.00    +0.000 C 
BRANCH  16  17
ATOM     17  C   UNL     1      46.449   7.283  12.789  0.00  0.00    +0.000 A 
ATOM     18  C   UNL     1      45.293   7.804  12.199  0.00  0.00    +0.000 A 
ATOM     19  C   UNL     1      44.482   7.000  11.396  0.00  0.00    +0.000 A 
ATOM     20  C   UNL     1      44.815   5.659  11.160  0.00  0.00    +0.000 A 
ATOM     21  C   UNL     1      45.955   5.129  11.779  0.00  0.00    +0.000 A 
ATOM     22  C   UNL     1      46.756   5.930  12.598  0.00  0.00    +0.000 A 
BRANCH  20  23
ATOM     23  C   UNL     1      43.952   4.798  10.265  0.00  0.00    +0.000 C 
BRANCH  23  24
ATOM     24  C   UNL     1      44.694   3.899   9.297  0.00  0.00    +0.000 A 
ATOM     25  C   UNL     1      44.761   2.521   9.498  0.00  0.00    +0.000 A 
ATOM     26  C   UNL     1      45.565   1.749   8.662  0.00  0.00    +0.000 A 
ATOM     27  C   UNL     1      46.280   2.367   7.646  0.00  0.00    +0.000 A 
ATOM     28  C   UNL     1      46.148   3.737   7.498  0.00  0.00    +0.000 A 
ATOM     29  N   UNL     1      45.381   4.512   8.298  0.00  0.00    +0.000 NA
ENDBRANCH  23  24
ENDBRANCH  20  23
ENDBRANCH  16  17
ENDBRANCH   3  16
TORSDOF 5
ENDMDL
MODEL 3
REMARK VINA RESULT:    -7.763      2.292      2.911
REMARK INTER + INTRA:         -10.784
REMARK INTER:                  -9.973
REMARK INTRA:                  -0.812
REMARK UNBOUND:                -0.752
REMARK  Name = 
REMARK  5 active torsions:
REMARK  status: ('A' for Active; 'I' for Inactive)
REMARK    1  A    between atoms: C_2  and  C_18
REMARK    2  A    between atoms: N_3  and  C_4
REMARK    3  A    between atoms: C_4  and  C_5
REMARK    4  A    between atoms: C_8  and  C_9
REMARK    5  A    between atoms: C_9  and  C_10
REMARK                            x       y       z     vdW  Elec       q    Type
REMARK                         _______ _______ _______ _____ _____    ______ ____
ROOT
ATOM      1  O   UNL     1      50.139   6.392  15.570  0.00  0.00    +0.000 OA
ATOM      2  C   UNL     1      48.996   6.242  15.991  0.00  0.00    +0.000 C 
ATOM      3  N   UNL     1      47.888   6.478  15.224  0.00  0.00    +0.000 N 
ATOM      4  H   UNL     1      46.978   6.517  15.668  0.00  0.00    +0.000 HD
ENDROOT
BRANCH   2   5
ATOM      5  C   UNL     1      48.745   5.747  17.351  0.00  0.00    +0.000 A 
ATOM      6  C   UNL     1      49.004   4.418  17.662  0.00  0.00    +0.000 A 
ATOM      7  S   UNL     1      48.651   4.014  19.282  0.00  0.00    +0.000 S 
ATOM      8  C   UNL     1      48.185   5.613  19.635  0.00  0.00    +0.000 A 
ATOM      9  N   UNL     1      47.797   5.967  20.890  0.00  0.00    +0.000 NA
ATOM     10  C   UNL     1      47.517   7.219  21.029  0.00  0.00    +0.000 A 
ATOM     11  N   UNL     1      47.574   8.149  20.023  0.00  0.00    +0.000 N 
ATOM     12  C   UNL     1      47.877   7.821  18.724  0.00  0.00    +0.000 A 
ATOM     13  O   UNL     1      47.772   8.646  17.823  0.00  0.00    +0.000 OA
ATOM     14  C   UNL     1      48.261   6.435  18.525  0.00  0.00    +0.000 A 
ATOM     15  H   UNL     1      47.307   9.108  20.188  0.00  0.00    +0.000 HD
ENDBRANCH   2   5
BRANCH   3  16
ATOM     16  C   UNL     1      47.961   7.060  13.908  0.00  0.00    +0.000 C 
BRANCH  16  17
ATOM     17  C   UNL     1      47.034   6.360  12.949  0.00  0.00    +0.000 A 
ATOM     18  C   UNL     1      46.784   6.913  11.688  0.00  0.00    +0.000 A 
ATOM     19  C   UNL     1      45.937   6.268  10.786  0.00  0.00    +0.000 A 
ATOM     20  C   UNL     1      45.328   5.051  11.122  0.00  0.00    +0.000 A 
ATOM     21  C   UNL     1      45.553   4.514  12.396  0.00  0.00    +0.000 A 
ATOM     22  C   UNL     1      46.386   5.171  13.307  0.00  0.00    +0.000 A 
BRANCH  20  23
ATOM     23  C   UNL     1      44.437   4.337  10.130  0.00  0.00    +0.000 C 
BRANCH  23  24
ATOM     24  C   UNL     1      45.148   3.556   9.044  0.00  0.00    +0.000 A 
ATOM     25  C   UNL     1      45.331   2.178   9.147  0.00  0.00    +0.000 A 
ATOM     26  C   UNL     1      46.107   1.520   8.195  0.00  0.00    +0.000 A 
ATOM     27  C   UNL     1      46.678   2.250   7.162  0.00  0.00    +0.000 A 
ATOM     28  C   UNL     1      46.436   3.612   7.116  0.00  0.00    +0.000 A 
ATOM     29  N   UNL     1      45.693   4.277   8.030  0.00  0.00    +0.000 NA
ENDBRANCH  23  24
ENDBRANCH  20  23
ENDBRANCH  16  17
ENDBRANCH   3  16
TORSDOF 5
ENDMDL
MODEL 4
REMARK VINA RESULT:    -7.706      2.078      2.917
REMARK INTER + INTRA:         -10.710
REMARK INTER:                  -9.919
REMARK INTRA:                  -0.791
REMARK UNBOUND:                -0.752
REMARK  Name = 
REMARK  5 active torsions:
REMARK  status: ('A' for Active; 'I' for Inactive)
REMARK    1  A    between atoms: C_2  and  C_18
REMARK    2  A    between atoms: N_3  and  C_4
REMARK    3  A    between atoms: C_4  and  C_5
REMARK    4  A    between atoms: C_8  and  C_9
REMARK    5  A    between atoms: C_9  and  C_10
REMARK                            x       y       z     vdW  Elec       q    Type
REMARK                         _______ _______ _______ _____ _____    ______ ____
ROOT
ATOM      1  O   UNL     1      47.514   4.524  14.230  0.00  0.00    +0.000 OA
ATOM      2  C   UNL     1      47.406   5.719  13.969  0.00  0.00    +0.000 C 
ATOM      3  N   UNL     1      46.217   6.294  13.613  0.00  0.00    +0.000 N 
ATOM      4  H   UNL     1      46.216   7.233  13.232  0.00  0.00    +0.000 HD
ENDROOT
BRANCH   2   5
ATOM      5  C   UNL     1      48.557   6.627  14.070  0.00  0.00    +0.000 A 
ATOM      6  C   UNL     1      49.063   7.232  12.927  0.00  0.00    +0.000 A 
ATOM      7  S   UNL     1      50.401   8.247  13.228  0.00  0.00    +0.000 S 
ATOM      8  C   UNL     1      50.321   7.949  14.901  0.00  0.00    +0.000 A 
ATOM      9  N   UNL     1      51.182   8.556  15.763  0.00  0.00    +0.000 NA
ATOM     10  C   UNL     1      50.978   8.277  17.006  0.00  0.00    +0.000 A 
ATOM     11  N   UNL     1      50.001   7.434  17.468  0.00  0.00    +0.000 N 
ATOM     12  C   UNL     1      49.166   6.734  16.631  0.00  0.00    +0.000 A 
ATOM     13  O   UNL     1      48.407   5.876  17.069  0.00  0.00    +0.000 OA
ATOM     14  C   UNL     1      49.312   7.058  15.224  0.00  0.00    +0.000 A 
ATOM     15  H   UNL     1      49.916   7.229  18.452  0.00  0.00    +0.000 HD
ENDBRANCH   2   5
BRANCH   3  16
ATOM     16  C   UNL     1      45.022   5.526  13.372  0.00  0.00    +0.000 C 
BRANCH  16  17
ATOM     17  C   UNL     1      44.958   5.049  11.945  0.00  0.00    +0.000 A 
ATOM     18  C   UNL     1      44.237   3.893  11.625  0.00  0.00    +0.000 A 
ATOM     19  C   UNL     1      44.159   3.449  10.304  0.00  0.00    +0.000 A 
ATOM     20  C   UNL     1      44.795   4.154   9.273  0.00  0.00    +0.000 A 
ATOM     21  C   UNL     1      45.544   5.292   9.598  0.00  0.00    +0.000 A 
ATOM     22  C   UNL     1      45.638   5.727  10.924  0.00  0.00    +0.000 A 
BRANCH  20  23
ATOM     23  C   UNL     1      44.683   3.687   7.839  0.00  0.00    +0.000 C 
BRANCH  23  24
ATOM     24  C   UNL     1      45.900   2.982   7.276  0.00  0.00    +0.000 A 
ATOM     25  C   UNL     1      46.497   3.408   6.090  0.00  0.00    +0.000 A 
ATOM     26  C   UNL     1      47.528   2.652   5.537  0.00  0.00    +0.000 A 
ATOM     27  C   UNL     1      47.941   1.492   6.179  0.00  0.00    +0.000 A 
ATOM     28  C   UNL     1      47.312   1.145   7.362  0.00  0.00    +0.000 A 
ATOM     29  N   UNL     1      46.305   1.856   7.918  0.00  0.00    +0.000 NA
ENDBRANCH  23  24
ENDBRANCH  20  23
ENDBRANCH  16  17
ENDBRANCH   3  16
TORSDOF 5
ENDMDL
MODEL 5
REMARK VINA RESULT:    -7.563      2.621      4.380
REMARK INTER + INTRA:         -10.526
REMARK INTER:                  -9.613
REMARK INTRA:                  -0.912
REMARK UNBOUND:                -0.752
REMARK  Name = 
REMARK  5 active torsions:
REMARK  status: ('A' for Active; 'I' for Inactive)
REMARK    1  A    between atoms: C_2  and  C_18
REMARK    2  A    between atoms: N_3  and  C_4
REMARK    3  A    between atoms: C_4  and  C_5
REMARK    4  A    between atoms: C_8  and  C_9
REMARK    5  A    between atoms: C_9  and  C_10
REMARK                            x       y       z     vdW  Elec       q    Type
REMARK                         _______ _______ _______ _____ _____    ______ ____
ROOT
ATOM      1  O   UNL     1      48.990   6.125  15.290  0.00  0.00    +0.000 OA
ATOM      2  C   UNL     1      48.327   6.966  14.690  0.00  0.00    +0.000 C 
ATOM      3  N   UNL     1      47.086   6.703  14.177  0.00  0.00    +0.000 N 
ATOM      4  H   UNL     1      46.664   7.367  13.538  0.00  0.00    +0.000 HD
ENDROOT
BRANCH   2   5
ATOM      5  C   UNL     1      48.815   8.343  14.525  0.00  0.00    +0.000 A 
ATOM      6  C   UNL     1      48.837   9.203  15.614  0.00  0.00    +0.000 A 
ATOM      7  S   UNL     1      49.427  10.761  15.242  0.00  0.00    +0.000 S 
ATOM      8  C   UNL     1      49.717  10.323  13.623  0.00  0.00    +0.000 A 
ATOM      9  N   UNL     1      50.267  11.206  12.747  0.00  0.00    +0.000 NA
ATOM     10  C   UNL     1      50.476  10.728  11.567  0.00  0.00    +0.000 A 
ATOM     11  N   UNL     1      50.171   9.450  11.176  0.00  0.00    +0.000 N 
ATOM     12  C   UNL     1      49.537   8.553  12.000  0.00  0.00    +0.000 A 
ATOM     13  O   UNL     1      49.143   7.472  11.573  0.00  0.00    +0.000 OA
ATOM     14  C   UNL     1      49.334   9.020  13.360  0.00  0.00    +0.000 A 
ATOM     15  H   UNL     1      50.326   9.148  10.226  0.00  0.00    +0.000 HD
ENDBRANCH   2   5
BRANCH   3  16
ATOM     16  C   UNL     1      46.512   5.382  14.168  0.00  0.00    +0.000 C 
BRANCH  16  17
ATOM     17  C   UNL     1      46.027   5.007  12.791  0.00  0.00    +0.000 A 
ATOM     18  C   UNL     1      45.532   3.721  12.550  0.00  0.00    +0.000 A 
ATOM     19  C   UNL     1      45.067   3.366  11.283  0.00  0.00    +0.000 A 
ATOM     20  C   UNL     1      45.081   4.292  10.231  0.00  0.00    +0.000 A 
ATOM     21  C   UNL     1      45.608   5.570  10.464  0.00  0.00    +0.000 A 
ATOM     22  C   UNL     1      46.091   5.918  11.729  0.00  0.00    +0.000 A 
BRANCH  20  23
ATOM     23  C   UNL     1      44.548   3.915   8.867  0.00  0.00    +0.000 C 
BRANCH  23  24
ATOM     24  C   UNL     1      45.470   3.074   8.006  0.00  0.00    +0.000 A 
ATOM     25  C   UNL     1      45.841   1.786   8.388  0.00  0.00    +0.000 A 
ATOM     26  C   UNL     1      46.795   1.101   7.638  0.00  0.00    +0.000 A 
ATOM     27  C   UNL     1      47.353   1.714   6.525  0.00  0.00    +0.000 A 
ATOM     28  C   UNL     1      46.920   2.988   6.198  0.00  0.00    +0.000 A 
ATOM     29  N   UNL     1      46.002   3.679   6.911  0.00  0.00    +0.000 NA
ENDBRANCH  23  24
ENDBRANCH  20  23
ENDBRANCH  16  17
ENDBRANCH   3  16
TORSDOF 5
ENDMDL
MODEL 6
REMARK VINA RESULT:    -7.373      3.970      8.620
REMARK INTER + INTRA:         -10.280
REMARK INTER:                  -9.826
REMARK INTRA:                  -0.455
REMARK UNBOUND:                -0.752
REMARK  Name = 
REMARK  5 active torsions:
REMARK  status: ('A' for Active; 'I' for Inactive)
REMARK    1  A    between atoms: C_2  and  C_18
REMARK    2  A    between atoms: N_3  and  C_4
REMARK    3  A    between atoms: C_4  and  C_5
REMARK    4  A    between atoms: C_8  and  C_9
REMARK    5  A    between atoms: C_9  and  C_10
REMARK                            x       y       z     vdW  Elec       q    Type
REMARK                         _______ _______ _______ _____ _____    ______ ____
ROOT
ATOM      1  O   UNL     1      47.351   3.125  13.998  0.00  0.00    +0.000 OA
ATOM      2  C   UNL     1      46.919   4.154  14.509  0.00  0.00    +0.000 C 
ATOM      3  N   UNL     1      46.891   4.352  15.863  0.00  0.00    +0.000 N 
ATOM      4  H   UNL     1      46.361   5.131  16.238  0.00  0.00    +0.000 HD
ENDROOT
BRANCH   2   5
ATOM      5  C   UNL     1      46.440   5.271  13.683  0.00  0.00    +0.000 A 
ATOM      6  C   UNL     1      47.251   6.380  13.483  0.00  0.00    +0.000 A 
ATOM      7  S   UNL     1      46.536   7.581  12.505  0.00  0.00    +0.000 S 
ATOM      8  C   UNL     1      45.137   6.640  12.277  0.00  0.00    +0.000 A 
ATOM      9  N   UNL     1      44.119   7.079  11.489  0.00  0.00    +0.000 NA
ATOM     10  C   UNL     1      43.142   6.245  11.365  0.00  0.00    +0.000 A 
ATOM     11  N   UNL     1      43.081   5.016  11.970  0.00  0.00    +0.000 N 
ATOM     12  C   UNL     1      44.045   4.568  12.840  0.00  0.00    +0.000 A 
ATOM     13  O   UNL     1      43.887   3.533  13.479  0.00  0.00    +0.000 OA
ATOM     14  C   UNL     1      45.197   5.442  12.967  0.00  0.00    +0.000 A 
ATOM     15  H   UNL     1      42.271   4.425  11.862  0.00  0.00    +0.000 HD
ENDBRANCH   2   5
BRANCH   3  16
ATOM     16  C   UNL     1      47.229   3.320  16.808  0.00  0.00    +0.000 C 
BRANCH  16  17
ATOM     17  C   UNL     1      48.705   3.320  17.111  0.00  0.00    +0.000 A 
ATOM     18  C   UNL     1      49.328   4.489  17.561  0.00  0.00    +0.000 A 
ATOM     19  C   UNL     1      50.691   4.498  17.858  0.00  0.00    +0.000 A 
ATOM     20  C   UNL     1      51.461   3.335  17.719  0.00  0.00    +0.000 A 
ATOM     21  C   UNL     1      50.844   2.172  17.238  0.00  0.00    +0.000 A 
ATOM     22  C   UNL     1      49.482   2.169  16.922  0.00  0.00    +0.000 A 
BRANCH  20  23
ATOM     23  C   UNL     1      52.932   3.339  18.072  0.00  0.00    +0.000 C 
BRANCH  23  24
ATOM     24  C   UNL     1      53.666   2.030  17.859  0.00  0.00    +0.000 A 
ATOM     25  C   UNL     1      54.671   1.914  16.899  0.00  0.00    +0.000 A 
ATOM     26  C   UNL     1      55.225   0.662  16.643  0.00  0.00    +0.000 A 
ATOM     27  C   UNL     1      54.769  -0.442  17.350  0.00  0.00    +0.000 A 
ATOM     28  C   UNL     1      53.782  -0.243  18.300  0.00  0.00    +0.000 A 
ATOM     29  N   UNL     1      53.221   0.958  18.565  0.00  0.00    +0.000 NA
ENDBRANCH  23  24
ENDBRANCH  20  23
ENDBRANCH  16  17
ENDBRANCH   3  16
TORSDOF 5
ENDMDL
MODEL 7
REMARK VINA RESULT:    -6.818      4.659      7.490
REMARK INTER + INTRA:          -9.563
REMARK INTER:                  -8.686
REMARK INTRA:                  -0.877
REMARK UNBOUND:                -0.752
REMARK  Name = 
REMARK  5 active torsions:
REMARK  status: ('A' for Active; 'I' for Inactive)
REMARK    1  A    between atoms: C_2  and  C_18
REMARK    2  A    between atoms: N_3  and  C_4
REMARK    3  A    between atoms: C_4  and  C_5
REMARK    4  A    between atoms: C_8  and  C_9
REMARK    5  A    between atoms: C_9  and  C_10
REMARK                            x       y       z     vdW  Elec       q    Type
REMARK                         _______ _______ _______ _____ _____    ______ ____
ROOT
ATOM      1  O   UNL     1      43.928   7.509  11.250  0.00  0.00    +0.000 OA
ATOM      2  C   UNL     1      44.710   6.627  11.595  0.00  0.00    +0.000 C 
ATOM      3  N   UNL     1      45.865   6.889  12.280  0.00  0.00    +0.000 N 
ATOM      4  H   UNL     1      46.559   6.157  12.377  0.00  0.00    +0.000 HD
ENDROOT
BRANCH   2   5
ATOM      5  C   UNL     1      44.424   5.211  11.327  0.00  0.00    +0.000 A 
ATOM      6  C   UNL     1      43.644   4.483  12.216  0.00  0.00    +0.000 A 
ATOM      7  S   UNL     1      43.420   2.856  11.754  0.00  0.00    +0.000 S 
ATOM      8  C   UNL     1      44.319   3.081  10.326  0.00  0.00    +0.000 A 
ATOM      9  N   UNL     1      44.484   2.066   9.436  0.00  0.00    +0.000 NA
ATOM     10  C   UNL     1      45.145   2.387   8.376  0.00  0.00    +0.000 A 
ATOM     11  N   UNL     1      45.671   3.629   8.130  0.00  0.00    +0.000 N 
ATOM     12  C   UNL     1      45.603   4.658   9.037  0.00  0.00    +0.000 A 
ATOM     13  O   UNL     1      46.213   5.706   8.850  0.00  0.00    +0.000 OA
ATOM     14  C   UNL     1      44.815   4.368  10.221  0.00  0.00    +0.000 A 
ATOM     15  H   UNL     1      46.211   3.807   7.296  0.00  0.00    +0.000 HD
ENDBRANCH   2   5
BRANCH   3  16
ATOM     16  C   UNL     1      46.336   8.227  12.529  0.00  0.00    +0.000 C 
BRANCH  16  17
ATOM     17  C   UNL     1      47.804   8.357  12.215  0.00  0.00    +0.000 A 
ATOM     18  C   UNL     1      48.650   7.251  12.353  0.00  0.00    +0.000 A 
ATOM     19  C   UNL     1      50.009   7.356  12.052  0.00  0.00    +0.000 A 
ATOM     20  C   UNL     1      50.550   8.567  11.599  0.00  0.00    +0.000 A 
ATOM     21  C   UNL     1      49.709   9.682  11.492  0.00  0.00    +0.000 A 
ATOM     22  C   UNL     1      48.351   9.582  11.812  0.00  0.00    +0.000 A 
BRANCH  20  23
ATOM     23  C   UNL     1      52.016   8.669  11.243  0.00  0.00    +0.000 C 
BRANCH  23  24
ATOM     24  C   UNL     1      52.376   8.318   9.813  0.00  0.00    +0.000 A 
ATOM     25  C   UNL     1      52.370   6.997   9.370  0.00  0.00    +0.000 A 
ATOM     26  C   UNL     1      52.837   6.706   8.090  0.00  0.00    +0.000 A 
ATOM     27  C   UNL     1      53.296   7.737   7.283  0.00  0.00    +0.000 A 
ATOM     28  C   UNL     1      53.253   9.026   7.787  0.00  0.00    +0.000 A 
ATOM     29  N   UNL     1      52.812   9.336   9.027  0.00  0.00    +0.000 NA
ENDBRANCH  23  24
ENDBRANCH  20  23
ENDBRANCH  16  17
ENDBRANCH   3  16
TORSDOF 5
ENDMDL
MODEL 8
REMARK VINA RESULT:    -6.767      2.137      2.863
REMARK INTER + INTRA:          -9.497
REMARK INTER:                  -8.644
REMARK INTRA:                  -0.853
REMARK UNBOUND:                -0.752
REMARK  Name = 
REMARK  5 active torsions:
REMARK  status: ('A' for Active; 'I' for Inactive)
REMARK    1  A    between atoms: C_2  and  C_18
REMARK    2  A    between atoms: N_3  and  C_4
REMARK    3  A    between atoms: C_4  and  C_5
REMARK    4  A    between atoms: C_8  and  C_9
REMARK    5  A    between atoms: C_9  and  C_10
REMARK                            x       y       z     vdW  Elec       q    Type
REMARK                         _______ _______ _______ _____ _____    ______ ____
ROOT
ATOM      1  O   UNL     1      49.360  10.093  14.219  0.00  0.00    +0.000 OA
ATOM      2  C   UNL     1      49.345   8.870  14.333  0.00  0.00    +0.000 C 
ATOM      3  N   UNL     1      48.303   8.099  13.894  0.00  0.00    +0.000 N 
ATOM      4  H   UNL     1      48.256   7.126  14.174  0.00  0.00    +0.000 HD
ENDROOT
BRANCH   2   5
ATOM      5  C   UNL     1      50.483   8.147  14.915  0.00  0.00    +0.000 A 
ATOM      6  C   UNL     1      51.780   8.561  14.640  0.00  0.00    +0.000 A 
ATOM      7  S   UNL     1      52.976   7.606  15.392  0.00  0.00    +0.000 S 
ATOM      8  C   UNL     1      51.802   6.634  16.149  0.00  0.00    +0.000 A 
ATOM      9  N   UNL     1      52.162   5.625  16.988  0.00  0.00    +0.000 NA
ATOM     10  C   UNL     1      51.171   5.001  17.529  0.00  0.00    +0.000 A 
ATOM     11  N   UNL     1      49.850   5.283  17.298  0.00  0.00    +0.000 N 
ATOM     12  C   UNL     1      49.439   6.233  16.396  0.00  0.00    +0.000 A 
ATOM     13  O   UNL     1      48.255   6.356  16.101  0.00  0.00    +0.000 OA
ATOM     14  C   UNL     1      50.515   7.008  15.804  0.00  0.00    +0.000 A 
ATOM     15  H   UNL     1      49.120   4.733  17.726  0.00  0.00    +0.000 HD
ENDBRANCH   2   5
BRANCH   3  16
ATOM     16  C   UNL     1      47.075   8.661  13.394  0.00  0.00    +0.000 C 
BRANCH  16  17
ATOM     17  C   UNL     1      46.290   7.644  12.606  0.00  0.00    +0.000 A 
ATOM     18  C   UNL     1      46.810   6.361  12.404  0.00  0.00    +0.000 A 
ATOM     19  C   UNL     1      46.086   5.407  11.688  0.00  0.00    +0.000 A 
ATOM     20  C   UNL     1      44.823   5.712  11.164  0.00  0.00    +0.000 A 
ATOM     21  C   UNL     1      44.316   7.007  11.338  0.00  0.00    +0.000 A 
ATOM     22  C   UNL     1      45.050   7.969  12.039  0.00  0.00    +0.000 A 
BRANCH  20  23
ATOM     23  C   UNL     1      44.027   4.667  10.416  0.00  0.00    +0.000 C 
BRANCH  23  24
ATOM     24  C   UNL     1      44.796   3.862   9.387  0.00  0.00    +0.000 A 
ATOM     25  C   UNL     1      44.891   2.474   9.480  0.00  0.00    +0.000 A 
ATOM     26  C   UNL     1      45.718   1.787   8.594  0.00  0.00    +0.000 A 
ATOM     27  C   UNL     1      46.426   2.498   7.635  0.00  0.00    +0.000 A 
ATOM     28  C   UNL     1      46.265   3.872   7.593  0.00  0.00    +0.000 A 
ATOM     29  N   UNL     1      45.476   4.565   8.445  0.00  0.00    +0.000 NA
ENDBRANCH  23  24
ENDBRANCH  20  23
ENDBRANCH  16  17
ENDBRANCH   3  16
TORSDOF 5
ENDMDL
MODEL 9
REMARK VINA RESULT:    -6.430      3.477      5.661
REMARK INTER + INTRA:          -9.062
REMARK INTER:                  -8.069
REMARK INTRA:                  -0.993
REMARK UNBOUND:                -0.752
REMARK  Name = 
REMARK  5 active torsions:
REMARK  status: ('A' for Active; 'I' for Inactive)
REMARK    1  A    between atoms: C_2  and  C_18
REMARK    2  A    between atoms: N_3  and  C_4
REMARK    3  A    between atoms: C_4  and  C_5
REMARK    4  A    between atoms: C_8  and  C_9
REMARK    5  A    between atoms: C_9  and  C_10
REMARK                            x       y       z     vdW  Elec       q    Type
REMARK                         _______ _______ _______ _____ _____    ______ ____
ROOT
ATOM      1  O   UNL     1      51.563   6.340  18.081  0.00  0.00    +0.000 OA
ATOM      2  C   UNL     1      51.267   5.175  18.335  0.00  0.00    +0.000 C 
ATOM      3  N   UNL     1      49.976   4.721  18.325  0.00  0.00    +0.000 N 
ATOM      4  H   UNL     1      49.770   3.810  18.718  0.00  0.00    +0.000 HD
ENDROOT
BRANCH   2   5
ATOM      5  C   UNL     1      52.302   4.173  18.624  0.00  0.00    +0.000 A 
ATOM      6  C   UNL     1      53.386   4.510  19.424  0.00  0.00    +0.000 A 
ATOM      7  S   UNL     1      54.492   3.230  19.650  0.00  0.00    +0.000 S 
ATOM      8  C   UNL     1      53.535   2.169  18.725  0.00  0.00    +0.000 A 
ATOM      9  N   UNL     1      53.900   0.870  18.550  0.00  0.00    +0.000 NA
ATOM     10  C   UNL     1      53.061   0.167  17.868  0.00  0.00    +0.000 A 
ATOM     11  N   UNL     1      51.894   0.646  17.330  0.00  0.00    +0.000 N 
ATOM     12  C   UNL     1      51.528   1.968  17.408  0.00  0.00    +0.000 A 
ATOM     13  O   UNL     1      50.558   2.392  16.789  0.00  0.00    +0.000 OA
ATOM     14  C   UNL     1      52.408   2.791  18.219  0.00  0.00    +0.000 A 
ATOM     15  H   UNL     1      51.297   0.052  16.775  0.00  0.00    +0.000 HD
ENDBRANCH   2   5
BRANCH   3  16
ATOM     16  C   UNL     1      48.845   5.596  18.160  0.00  0.00    +0.000 C 
BRANCH  16  17
ATOM     17  C   UNL     1      48.370   5.611  16.730  0.00  0.00    +0.000 A 
ATOM     18  C   UNL     1      47.568   4.570  16.248  0.00  0.00    +0.000 A 
ATOM     19  C   UNL     1      47.111   4.579  14.930  0.00  0.00    +0.000 A 
ATOM     20  C   UNL     1      47.440   5.633  14.066  0.00  0.00    +0.000 A 
ATOM     21  C   UNL     1      48.270   6.658  14.539  0.00  0.00    +0.000 A 
ATOM     22  C   UNL     1      48.743   6.639  15.854  0.00  0.00    +0.000 A 
BRANCH  20  23
ATOM     23  C   UNL     1      46.917   5.656  12.647  0.00  0.00    +0.000 C 
BRANCH  23  24
ATOM     24  C   UNL     1      45.528   5.085  12.444  0.00  0.00    +0.000 A 
ATOM     25  C   UNL     1      44.394   5.777  12.867  0.00  0.00    +0.000 A 
ATOM     26  C   UNL     1      43.148   5.158  12.786  0.00  0.00    +0.000 A 
ATOM     27  C   UNL     1      43.062   3.867  12.282  0.00  0.00    +0.000 A 
ATOM     28  C   UNL     1      44.230   3.253  11.864  0.00  0.00    +0.000 A 
ATOM     29  N   UNL     1      45.452   3.826  11.939  0.00  0.00    +0.000 NA
ENDBRANCH  23  24
ENDBRANCH  20  23
ENDBRANCH  16  17
ENDBRANCH   3  16
TORSDOF 5
ENDMDL
