MODEL 1
REMARK VINA RESULT:    -8.059      0.000      0.000
REMARK INTER + INTRA:         -13.116
REMARK INTER:                 -11.828
REMARK INTRA:                  -1.287
REMARK UNBOUND:                -1.287
REMARK  Name = 
REMARK  10 active torsions:
REMARK  status: ('A' for Active; 'I' for Inactive)
REMARK    1  A    between atoms: C_1  and  O_2
REMARK    2  A    between atoms: O_2  and  C_3
REMARK    3  A    between atoms: C_10  and  C_11
REMARK    4  A    between atoms: N_13  and  C_14
REMARK    5  A    between atoms: C_14  and  C_15
REMARK    6  A    between atoms: C_18  and  C_19
REMARK    7  A    between atoms: C_19  and  N_20
REMARK    8  A    between atoms: N_20  and  C_21
REMARK    9  A    between atoms: C_21  and  C_22
REMARK   10  A    between atoms: C_21  and  C_23
REMARK                            x       y       z     vdW  Elec       q    Type
REMARK                         _______ _______ _______ _____ _____    ______ ____
ROOT
ATOM      1  C   UNL     1      47.068   6.164  12.816  0.00  0.00    +0.000 A 
ATOM      2  C   UNL     1      46.889   6.639  11.510  0.00  0.00    +0.000 A 
ATOM      3  C   UNL     1      45.783   6.238  10.755  0.00  0.00    +0.000 A 
ATOM      4  C   UNL     1      44.829   5.361  11.289  0.00  0.00    +0.000 A 
ATOM      5  C   UNL     1      44.979   4.934  12.614  0.00  0.00    +0.000 A 
ATOM      6  C   UNL     1      46.084   5.336  13.372  0.00  0.00    +0.000 A 
ENDROOT
BRANCH   1   7
ATOM      7  C   UNL     1      48.302   6.521  13.601  0.00  0.00    +0.000 C 
BRANCH   7  10
ATOM      8  C   UNL     1      49.028   6.724  15.926  0.00  0.00    +0.000 C 
ATOM      9  O   UNL     1      50.192   6.505  15.592  0.00  0.00    +0.000 OA
ATOM     10  N   UNL     1      48.022   6.739  14.998  0.00  0.00    +0.000 N 
ATOM     11  H   UNL     1      47.067   6.930  15.271  0.00  0.00    +0.000 HD
BRANCH   8  19
ATOM     12  C   UNL     1      48.951   4.786  18.773  0.00  0.00    +0.000 A 
ATOM     13  N   UNL     1      48.768   4.259  20.001  0.00  0.00    +0.000 NA
ATOM     14  C   UNL     1      48.316   5.061  20.969  0.00  0.00    +0.000 A 
ATOM     15  N   UNL     1      48.026   6.355  20.866  0.00  0.00    +0.000 NA
ATOM     16  C   UNL     1      48.207   6.836  19.624  0.00  0.00    +0.000 A 
ATOM     17  S   UNL     1      47.897   8.476  19.313  0.00  0.00    +0.000 S 
ATOM     18  C   UNL     1      48.306   8.289  17.675  0.00  0.00    +0.000 A 
ATOM     19  C   UNL     1      48.682   6.995  17.331  0.00  0.00    +0.000 A 
ATOM     20  C   UNL     1      48.646   6.132  18.506  0.00  0.00    +0.000 A 
BRANCH  12  22
ATOM     21  C   UNL     1      48.384   3.241  17.119  0.00  0.00    +0.000 C 
ATOM     22  O   UNL     1      49.426   3.959  17.777  0.00  0.00    +0.000 OA
ENDBRANCH  12  22
ENDBRANCH   8  19
ENDBRANCH   7  10
ENDBRANCH   1   7
BRANCH   4  23
ATOM     23  C   UNL     1      43.656   4.897  10.452  0.00  0.00    +0.000 C 
BRANCH  23  24
ATOM     24  N   UNL     1      44.098   4.236   9.224  0.00  0.00    +0.000 NA
ATOM     25  H   UNL     1      44.667   4.896   8.691  0.00  0.00    +0.000 HD
BRANCH  24  26
ATOM     26  C   UNL     1      44.908   3.031   9.467  0.00  0.00    +0.000 C 
ATOM     27  C   UNL     1      44.048   1.805   9.811  0.00  0.00    +0.000 C 
BRANCH  26  28
ATOM     28  C   UNL     1      45.778   2.730   8.250  0.00  0.00    +0.000 A 
ATOM     29  C   UNL     1      46.010   3.718   7.281  0.00  0.00    +0.000 A 
ATOM     30  C   UNL     1      46.822   3.454   6.174  0.00  0.00    +0.000 A 
ATOM     31  C   UNL     1      47.412   2.201   6.019  0.00  0.00    +0.000 A 
ATOM     32  C   UNL     1      47.186   1.208   6.970  0.00  0.00    +0.000 A 
ATOM     33  C   UNL     1      46.375   1.469   8.076  0.00  0.00    +0.000 A 
ENDBRANCH  26  28
ENDBRANCH  24  26
ENDBRANCH  23  24
ENDBRANCH   4  23
TORSDOF 8
ENDMDL
MODEL 2
REMARK VINA RESULT:    -8.022      2.385      3.069
REMARK INTER + INTRA:         -13.061
REMARK INTER:                 -11.853
REMARK INTRA:                  -1.207
REMARK UNBOUND:                -1.287
REMARK  Name = 
REMARK  10 active torsions:
REMARK  status: ('A' for Active; 'I' for Inactive)
REMARK    1  A    between atoms: C_1  and  O_2
REMARK    2  A    between atoms: O_2  and  C_3
REMARK    3  A    between atoms: C_10  and  C_11
REMARK    4  A    between atoms: N_13  and  C_14
REMARK    5  A    between atoms: C_14  and  C_15
REMARK    6  A    between atoms: C_18  and  C_19
REMARK    7  A    between atoms: C_19  and  N_20
REMARK    8  A    between atoms: N_20  and  C_21
REMARK    9  A    between atoms: C_21  and  C_22
REMARK   10  A    between atoms: C_21  and  C_23
REMARK                            x       y       z     vdW  Elec       q    Type
REMARK                         _______ _______ _______ _____ _____    ______ ____
ROOT
ATOM      1  C   UNL     1      47.457   6.146  14.120  0.00  0.00    +0.000 A 
ATOM      2  C   UNL     1      47.316   4.785  14.418  0.00  0.00    +0.000 A 
ATOM      3  C   UNL     1      46.408   3.993  13.707  0.00  0.00    +0.000 A 
ATOM      4  C   UNL     1      45.628   4.542  12.680  0.00  0.00    +0.000 A 
ATOM      5  C   UNL     1      45.813   5.890  12.345  0.00  0.00    +0.000 A 
ATOM      6  C   UNL     1      46.722   6.682  13.054  0.00  0.00    +0.000 A 
ENDROOT
BRANCH   1   7
ATOM      7  C   UNL     1      48.366   7.022  14.941  0.00  0.00    +0.000 C 
BRANCH   7  10
ATOM      8  C   UNL     1      49.576   5.992  16.798  0.00  0.00    +0.000 C 
ATOM      9  O   UNL     1      48.694   6.341  17.581  0.00  0.00    +0.000 OA
ATOM     10  N   UNL     1      49.497   6.300  15.467  0.00  0.00    +0.000 N 
ATOM     11  H   UNL     1      50.218   6.003  14.822  0.00  0.00    +0.000 HD
BRANCH   8  19
ATOM     12  C   UNL     1      50.258   2.621  17.011  0.00  0.00    +0.000 A 
ATOM     13  N   UNL     1      50.752   1.393  17.265  0.00  0.00    +0.000 NA
ATOM     14  C   UNL     1      51.962   1.306  17.826  0.00  0.00    +0.000 A 
ATOM     15  N   UNL     1      52.762   2.313  18.163  0.00  0.00    +0.000 NA
ATOM     16  C   UNL     1      52.225   3.518  17.908  0.00  0.00    +0.000 A 
ATOM     17  S   UNL     1      53.114   4.919  18.265  0.00  0.00    +0.000 S 
ATOM     18  C   UNL     1      51.850   5.915  17.722  0.00  0.00    +0.000 A 
ATOM     19  C   UNL     1      50.738   5.216  17.264  0.00  0.00    +0.000 A 
ATOM     20  C   UNL     1      50.975   3.780  17.353  0.00  0.00    +0.000 A 
BRANCH  12  22
ATOM     21  C   UNL     1      47.958   2.762  17.383  0.00  0.00    +0.000 C 
ATOM     22  O   UNL     1      49.013   2.709  16.424  0.00  0.00    +0.000 OA
ENDBRANCH  12  22
ENDBRANCH   8  19
ENDBRANCH   7  10
ENDBRANCH   1   7
BRANCH   4  23
ATOM     23  C   UNL     1      44.617   3.691  11.942  0.00  0.00    +0.000 C 
BRANCH  23  24
ATOM     24  N   UNL     1      45.250   2.896  10.889  0.00  0.00    +0.000 NA
ATOM     25  H   UNL     1      45.218   1.913  11.167  0.00  0.00    +0.000 HD
BRANCH  24  26
ATOM     26  C   UNL     1      44.586   3.020   9.581  0.00  0.00    +0.000 C 
ATOM     27  C   UNL     1      44.026   4.430   9.339  0.00  0.00    +0.000 C 
BRANCH  26  28
ATOM     28  C   UNL     1      45.557   2.648   8.464  0.00  0.00    +0.000 A 
ATOM     29  C   UNL     1      45.960   3.609   7.524  0.00  0.00    +0.000 A 
ATOM     30  C   UNL     1      46.864   3.279   6.510  0.00  0.00    +0.000 A 
ATOM     31  C   UNL     1      47.375   1.986   6.420  0.00  0.00    +0.000 A 
ATOM     32  C   UNL     1      46.980   1.020   7.342  0.00  0.00    +0.000 A 
ATOM     33  C   UNL     1      46.077   1.347   8.355  0.00  0.00    +0.000 A 
ENDBRANCH  26  28
ENDBRANCH  24  26
ENDBRANCH  23  24
ENDBRANCH   4  23
TORSDOF 8
ENDMDL
MODEL 3
REMARK VINA RESULT:    -7.893      1.288      2.521
REMARK INTER + INTRA:         -12.872
REMARK INTER:                 -11.656
REMARK INTRA:                  -1.216
REMARK UNBOUND:                -1.287
REMARK  Name = 
REMARK  10 active torsions:
REMARK  status: ('A' for Active; 'I' for Inactive)
REMARK    1  A    between atoms: C_1  and  O_2
REMARK    2  A    between atoms: O_2  and  C_3
REMARK    3  A    between atoms: C_10  and  C_11
REMARK    4  A    between atoms: N_13  and  C_14
REMARK    5  A    between atoms: C_14  and  C_15
REMARK    6  A    between atoms: C_18  and  C_19
REMARK    7  A    between atoms: C_19  and  N_20
REMARK    8  A    between atoms: N_20  and  C_21
REMARK    9  A    between atoms: C_21  and  C_22
REMARK   10  A    between atoms: C_21  and  C_23
REMARK                            x       y       z     vdW  Elec       q    Type
REMARK                         _______ _______ _______ _____ _____    ______ ____
ROOT
ATOM      1  C   UNL     1      47.046   6.171  12.850  0.00  0.00    +0.000 A 
ATOM      2  C   UNL     1      46.171   5.176  13.307  0.00  0.00    +0.000 A 
ATOM      3  C   UNL     1      45.106   4.746  12.511  0.00  0.00    +0.000 A 
ATOM      4  C   UNL     1      44.895   5.294  11.237  0.00  0.00    +0.000 A 
ATOM      5  C   UNL     1      45.805   6.246  10.758  0.00  0.00    +0.000 A 
ATOM      6  C   UNL     1      46.872   6.675  11.554  0.00  0.00    +0.000 A 
ENDROOT
BRANCH   1   7
ATOM      7  C   UNL     1      48.139   6.701  13.739  0.00  0.00    +0.000 C 
BRANCH   7  10
ATOM      8  C   UNL     1      49.016   6.307  15.985  0.00  0.00    +0.000 C 
ATOM      9  O   UNL     1      50.150   6.594  15.604  0.00  0.00    +0.000 OA
ATOM     10  N   UNL     1      47.958   6.323  15.118  0.00  0.00    +0.000 N 
ATOM     11  H   UNL     1      47.024   6.097  15.435  0.00  0.00    +0.000 HD
BRANCH   8  19
ATOM     12  C   UNL     1      47.863   8.070  18.712  0.00  0.00    +0.000 A 
ATOM     13  N   UNL     1      47.510   8.522  19.932  0.00  0.00    +0.000 NA
ATOM     14  C   UNL     1      47.540   7.663  20.955  0.00  0.00    +0.000 A 
ATOM     15  N   UNL     1      47.878   6.377  20.910  0.00  0.00    +0.000 NA
ATOM     16  C   UNL     1      48.238   5.971  19.680  0.00  0.00    +0.000 A 
ATOM     17  S   UNL     1      48.688   4.354  19.435  0.00  0.00    +0.000 S 
ATOM     18  C   UNL     1      48.988   4.639  17.788  0.00  0.00    +0.000 A 
ATOM     19  C   UNL     1      48.757   5.952  17.391  0.00  0.00    +0.000 A 
ATOM     20  C   UNL     1      48.284   6.742  18.522  0.00  0.00    +0.000 A 
BRANCH  12  22
ATOM     21  C   UNL     1      48.403  10.219  17.979  0.00  0.00    +0.000 C 
ATOM     22  O   UNL     1      47.823   8.956  17.656  0.00  0.00    +0.000 OA
ENDBRANCH  12  22
ENDBRANCH   8  19
ENDBRANCH   7  10
ENDBRANCH   1   7
BRANCH   4  23
ATOM     23  C   UNL     1      43.716   4.855  10.396  0.00  0.00    +0.000 C 
BRANCH  23  24
ATOM     24  N   UNL     1      44.151   4.200   9.161  0.00  0.00    +0.000 NA
ATOM     25  H   UNL     1      44.725   4.859   8.634  0.00  0.00    +0.000 HD
BRANCH  24  26
ATOM     26  C   UNL     1      44.948   2.985   9.393  0.00  0.00    +0.000 C 
ATOM     27  C   UNL     1      44.074   1.756   9.688  0.00  0.00    +0.000 C 
BRANCH  26  28
ATOM     28  C   UNL     1      45.842   2.708   8.188  0.00  0.00    +0.000 A 
ATOM     29  C   UNL     1      46.439   1.449   8.020  0.00  0.00    +0.000 A 
ATOM     30  C   UNL     1      47.244   1.184   6.908  0.00  0.00    +0.000 A 
ATOM     31  C   UNL     1      47.464   2.171   5.950  0.00  0.00    +0.000 A 
ATOM     32  C   UNL     1      46.884   3.427   6.105  0.00  0.00    +0.000 A 
ATOM     33  C   UNL     1      46.080   3.695   7.216  0.00  0.00    +0.000 A 
ENDBRANCH  26  28
ENDBRANCH  24  26
ENDBRANCH  23  24
ENDBRANCH   4  23
TORSDOF 8
ENDMDL
MODEL 4
REMARK VINA RESULT:    -7.438      2.388      3.021
REMARK INTER + INTRA:         -12.205
REMARK INTER:                 -11.013
REMARK INTRA:                  -1.192
REMARK UNBOUND:                -1.287
REMARK  Name = 
REMARK  10 active torsions:
REMARK  status: ('A' for Active; 'I' for Inactive)
REMARK    1  A    between atoms: C_1  and  O_2
REMARK    2  A    between atoms: O_2  and  C_3
REMARK    3  A    between atoms: C_10  and  C_11
REMARK    4  A    between atoms: N_13  and  C_14
REMARK    5  A    between atoms: C_14  and  C_15
REMARK    6  A    between atoms: C_18  and  C_19
REMARK    7  A    between atoms: C_19  and  N_20
REMARK    8  A    between atoms: N_20  and  C_21
REMARK    9  A    between atoms: C_21  and  C_22
REMARK   10  A    between atoms: C_21  and  C_23
REMARK                            x       y       z     vdW  Elec       q    Type
REMARK                         _______ _______ _______ _____ _____    ______ ____
ROOT
ATOM      1  C   UNL     1      47.299   6.553  13.570  0.00  0.00    +0.000 A 
ATOM      2  C   UNL     1      47.166   5.281  14.142  0.00  0.00    +0.000 A 
ATOM      3  C   UNL     1      46.294   4.340  13.585  0.00  0.00    +0.000 A 
ATOM      4  C   UNL     1      45.542   4.646  12.442  0.00  0.00    +0.000 A 
ATOM      5  C   UNL     1      45.721   5.897  11.838  0.00  0.00    +0.000 A 
ATOM      6  C   UNL     1      46.594   6.839  12.393  0.00  0.00    +0.000 A 
ENDROOT
BRANCH   1   7
ATOM      7  C   UNL     1      48.166   7.599  14.218  0.00  0.00    +0.000 C 
BRANCH   7  10
ATOM      8  C   UNL     1      49.884   7.207  15.912  0.00  0.00    +0.000 C 
ATOM      9  O   UNL     1      49.201   7.790  16.753  0.00  0.00    +0.000 OA
ATOM     10  N   UNL     1      49.448   7.078  14.621  0.00  0.00    +0.000 N 
ATOM     11  H   UNL     1      50.005   6.589  13.932  0.00  0.00    +0.000 HD
BRANCH   8  19
ATOM     12  C   UNL     1      50.826   4.534  17.871  0.00  0.00    +0.000 A 
ATOM     13  N   UNL     1      51.466   3.609  18.613  0.00  0.00    +0.000 NA
ATOM     14  C   UNL     1      52.803   3.604  18.595  0.00  0.00    +0.000 A 
ATOM     15  N   UNL     1      53.597   4.417  17.906  0.00  0.00    +0.000 NA
ATOM     16  C   UNL     1      52.919   5.333  17.193  0.00  0.00    +0.000 A 
ATOM     17  S   UNL     1      53.774   6.448  16.241  0.00  0.00    +0.000 S 
ATOM     18  C   UNL     1      52.333   7.190  15.734  0.00  0.00    +0.000 A 
ATOM     19  C   UNL     1      51.184   6.617  16.269  0.00  0.00    +0.000 A 
ATOM     20  C   UNL     1      51.537   5.488  17.123  0.00  0.00    +0.000 A 
BRANCH  12  22
ATOM     21  C   UNL     1      48.891   3.586  16.973  0.00  0.00    +0.000 C 
ATOM     22  O   UNL     1      49.446   4.533  17.884  0.00  0.00    +0.000 OA
ENDBRANCH  12  22
ENDBRANCH   8  19
ENDBRANCH   7  10
ENDBRANCH   1   7
BRANCH   4  23
ATOM     23  C   UNL     1      44.570   3.639  11.867  0.00  0.00    +0.000 C 
BRANCH  23  24
ATOM     24  N   UNL     1      45.207   2.788  10.862  0.00  0.00    +0.000 NA
ATOM     25  H   UNL     1      45.155   1.820  11.181  0.00  0.00    +0.000 HD
BRANCH  24  26
ATOM     26  C   UNL     1      44.568   2.866   9.538  0.00  0.00    +0.000 C 
ATOM     27  C   UNL     1      43.895   4.225   9.290  0.00  0.00    +0.000 C 
BRANCH  26  28
ATOM     28  C   UNL     1      45.593   2.587   8.444  0.00  0.00    +0.000 A 
ATOM     29  C   UNL     1      46.130   1.301   8.283  0.00  0.00    +0.000 A 
ATOM     30  C   UNL     1      47.056   1.035   7.269  0.00  0.00    +0.000 A 
ATOM     31  C   UNL     1      47.458   2.050   6.404  0.00  0.00    +0.000 A 
ATOM     32  C   UNL     1      46.940   3.334   6.554  0.00  0.00    +0.000 A 
ATOM     33  C   UNL     1      46.016   3.602   7.567  0.00  0.00    +0.000 A 
ENDBRANCH  26  28
ENDBRANCH  24  26
ENDBRANCH  23  24
ENDBRANCH   4  23
TORSDOF 8
ENDMDL
MODEL 5
REMARK VINA RESULT:    -7.404      1.511      2.231
REMARK INTER + INTRA:         -12.154
REMARK INTER:                 -10.947
REMARK INTRA:                  -1.207
REMARK UNBOUND:                -1.287
REMARK  Name = 
REMARK  10 active torsions:
REMARK  status: ('A' for Active; 'I' for Inactive)
REMARK    1  A    between atoms: C_1  and  O_2
REMARK    2  A    between atoms: O_2  and  C_3
REMARK    3  A    between atoms: C_10  and  C_11
REMARK    4  A    between atoms: N_13  and  C_14
REMARK    5  A    between atoms: C_14  and  C_15
REMARK    6  A    between atoms: C_18  and  C_19
REMARK    7  A    between atoms: C_19  and  N_20
REMARK    8  A    between atoms: N_20  and  C_21
REMARK    9  A    between atoms: C_21  and  C_22
REMARK   10  A    between atoms: C_21  and  C_23
REMARK                            x       y       z     vdW  Elec       q    Type
REMARK                         _______ _______ _______ _____ _____    ______ ____
ROOT
ATOM      1  C   UNL     1      46.808   4.475  14.075  0.00  0.00    +0.000 A 
ATOM      2  C   UNL     1      46.476   3.317  13.360  0.00  0.00    +0.000 A 
ATOM      3  C   UNL     1      45.531   3.365  12.330  0.00  0.00    +0.000 A 
ATOM      4  C   UNL     1      44.903   4.571  11.988  0.00  0.00    +0.000 A 
ATOM      5  C   UNL     1      45.280   5.738  12.665  0.00  0.00    +0.000 A 
ATOM      6  C   UNL     1      46.227   5.692  13.694  0.00  0.00    +0.000 A 
ENDROOT
BRANCH   1   7
ATOM      7  C   UNL     1      47.757   4.411  15.243  0.00  0.00    +0.000 C 
BRANCH   7  10
ATOM      8  C   UNL     1      48.691   6.535  16.010  0.00  0.00    +0.000 C 
ATOM      9  O   UNL     1      49.665   6.384  15.275  0.00  0.00    +0.000 OA
ATOM     10  N   UNL     1      47.699   5.594  16.064  0.00  0.00    +0.000 N 
ATOM     11  H   UNL     1      46.892   5.724  16.661  0.00  0.00    +0.000 HD
BRANCH   8  19
ATOM     12  C   UNL     1      47.948   7.057  19.334  0.00  0.00    +0.000 A 
ATOM     13  N   UNL     1      47.620   7.545  20.547  0.00  0.00    +0.000 NA
ATOM     14  C   UNL     1      47.584   8.872  20.703  0.00  0.00    +0.000 A 
ATOM     15  N   UNL     1      47.851   9.793  19.782  0.00  0.00    +0.000 NA
ATOM     16  C   UNL     1      48.158   9.265  18.585  0.00  0.00    +0.000 A 
ATOM     17  S   UNL     1      48.540  10.297  17.292  0.00  0.00    +0.000 S 
ATOM     18  C   UNL     1      48.760   8.979  16.245  0.00  0.00    +0.000 A 
ATOM     19  C   UNL     1      48.551   7.740  16.843  0.00  0.00    +0.000 A 
ATOM     20  C   UNL     1      48.215   7.914  18.252  0.00  0.00    +0.000 A 
BRANCH  12  22
ATOM     21  C   UNL     1      49.256   5.135  19.543  0.00  0.00    +0.000 C 
ATOM     22  O   UNL     1      47.993   5.688  19.177  0.00  0.00    +0.000 OA
ENDBRANCH  12  22
ENDBRANCH   8  19
ENDBRANCH   7  10
ENDBRANCH   1   7
BRANCH   4  23
ATOM     23  C   UNL     1      43.851   4.610  10.901  0.00  0.00    +0.000 C 
BRANCH  23  24
ATOM     24  N   UNL     1      44.111   3.609   9.865  0.00  0.00    +0.000 NA
ATOM     25  H   UNL     1      43.214   3.253   9.532  0.00  0.00    +0.000 HD
BRANCH  24  26
ATOM     26  C   UNL     1      44.847   4.142   8.707  0.00  0.00    +0.000 C 
ATOM     27  C   UNL     1      45.775   5.307   9.086  0.00  0.00    +0.000 C 
BRANCH  26  28
ATOM     28  C   UNL     1      45.654   3.031   8.043  0.00  0.00    +0.000 A 
ATOM     29  C   UNL     1      46.403   3.291   6.885  0.00  0.00    +0.000 A 
ATOM     30  C   UNL     1      47.160   2.281   6.283  0.00  0.00    +0.000 A 
ATOM     31  C   UNL     1      47.177   0.999   6.828  0.00  0.00    +0.000 A 
ATOM     32  C   UNL     1      46.435   0.723   7.973  0.00  0.00    +0.000 A 
ATOM     33  C   UNL     1      45.677   1.730   8.575  0.00  0.00    +0.000 A 
ENDBRANCH  26  28
ENDBRANCH  24  26
ENDBRANCH  23  24
ENDBRANCH   4  23
TORSDOF 8
ENDMDL
MODEL 6
REMARK VINA RESULT:    -7.291      1.984      2.861
REMARK INTER + INTRA:         -11.988
REMARK INTER:                 -10.850
REMARK INTRA:                  -1.138
REMARK UNBOUND:                -1.287
REMARK  Name = 
REMARK  10 active torsions:
REMARK  status: ('A' for Active; 'I' for Inactive)
REMARK    1  A    between atoms: C_1  and  O_2
REMARK    2  A    between atoms: O_2  and  C_3
REMARK    3  A    between atoms: C_10  and  C_11
REMARK    4  A    between atoms: N_13  and  C_14
REMARK    5  A    between atoms: C_14  and  C_15
REMARK    6  A    between atoms: C_18  and  C_19
REMARK    7  A    between atoms: C_19  and  N_20
REMARK    8  A    between atoms: N_20  and  C_21
REMARK    9  A    between atoms: C_21  and  C_22
REMARK   10  A    between atoms: C_21  and  C_23
REMARK                            x       y       z     vdW  Elec       q    Type
REMARK                         _______ _______ _______ _____ _____    ______ ____
ROOT
ATOM      1  C   UNL     1      46.642   6.417  12.904  0.00  0.00    +0.000 A 
ATOM      2  C   UNL     1      46.167   5.137  13.220  0.00  0.00    +0.000 A 
ATOM      3  C   UNL     1      45.220   4.511  12.403  0.00  0.00    +0.000 A 
ATOM      4  C   UNL     1      44.733   5.145  11.252  0.00  0.00    +0.000 A 
ATOM      5  C   UNL     1      45.254   6.399  10.906  0.00  0.00    +0.000 A 
ATOM      6  C   UNL     1      46.203   7.026  11.721  0.00  0.00    +0.000 A 
ENDROOT
BRANCH   1   7
ATOM      7  C   UNL     1      47.593   7.131  13.827  0.00  0.00    +0.000 C 
BRANCH   7  10
ATOM      8  C   UNL     1      48.800   6.773  15.922  0.00  0.00    +0.000 C 
ATOM      9  O   UNL     1      48.972   7.985  16.042  0.00  0.00    +0.000 OA
ATOM     10  N   UNL     1      48.133   6.261  14.842  0.00  0.00    +0.000 N 
ATOM     11  H   UNL     1      47.983   5.265  14.749  0.00  0.00    +0.000 HD
BRANCH   8  19
ATOM     12  C   UNL     1      51.943   5.778  16.926  0.00  0.00    +0.000 A 
ATOM     13  N   UNL     1      53.022   5.173  17.460  0.00  0.00    +0.000 NA
ATOM     14  C   UNL     1      52.822   4.248  18.403  0.00  0.00    +0.000 A 
ATOM     15  N   UNL     1      51.654   3.849  18.898  0.00  0.00    +0.000 NA
ATOM     16  C   UNL     1      50.605   4.466  18.328  0.00  0.00    +0.000 A 
ATOM     17  S   UNL     1      49.034   4.089  18.848  0.00  0.00    +0.000 S 
ATOM     18  C   UNL     1      48.354   5.170  17.728  0.00  0.00    +0.000 A 
ATOM     19  C   UNL     1      49.292   5.833  16.944  0.00  0.00    +0.000 A 
ATOM     20  C   UNL     1      50.641   5.428  17.322  0.00  0.00    +0.000 A 
BRANCH  12  22
ATOM     21  C   UNL     1      52.899   7.853  16.446  0.00  0.00    +0.000 C 
ATOM     22  O   UNL     1      52.152   6.739  15.959  0.00  0.00    +0.000 OA
ENDBRANCH  12  22
ENDBRANCH   8  19
ENDBRANCH   7  10
ENDBRANCH   1   7
BRANCH   4  23
ATOM     23  C   UNL     1      43.678   4.481  10.394  0.00  0.00    +0.000 C 
BRANCH  23  24
ATOM     24  N   UNL     1      44.234   4.011   9.124  0.00  0.00    +0.000 NA
ATOM     25  H   UNL     1      44.855   4.735   8.759  0.00  0.00    +0.000 HD
BRANCH  24  26
ATOM     26  C   UNL     1      45.010   2.767   9.249  0.00  0.00    +0.000 C 
ATOM     27  C   UNL     1      44.113   1.527   9.385  0.00  0.00    +0.000 C 
BRANCH  26  28
ATOM     28  C   UNL     1      45.938   2.606   8.049  0.00  0.00    +0.000 A 
ATOM     29  C   UNL     1      46.674   1.424   7.873  0.00  0.00    +0.000 A 
ATOM     30  C   UNL     1      47.512   1.264   6.765  0.00  0.00    +0.000 A 
ATOM     31  C   UNL     1      47.626   2.281   5.819  0.00  0.00    +0.000 A 
ATOM     32  C   UNL     1      46.907   3.462   5.983  0.00  0.00    +0.000 A 
ATOM     33  C   UNL     1      46.071   3.625   7.089  0.00  0.00    +0.000 A 
ENDBRANCH  26  28
ENDBRANCH  24  26
ENDBRANCH  23  24
ENDBRANCH   4  23
TORSDOF 8
ENDMDL
MODEL 7
REMARK VINA RESULT:    -7.027      3.421      8.515
REMARK INTER + INTRA:         -11.602
REMARK INTER:                  -9.696
REMARK INTRA:                  -1.906
REMARK UNBOUND:                -1.287
REMARK  Name = 
REMARK  10 active torsions:
REMARK  status: ('A' for Active; 'I' for Inactive)
REMARK    1  A    between atoms: C_1  and  O_2
REMARK    2  A    between atoms: O_2  and  C_3
REMARK    3  A    between atoms: C_10  and  C_11
REMARK    4  A    between atoms: N_13  and  C_14
REMARK    5  A    between atoms: C_14  and  C_15
REMARK    6  A    between atoms: C_18  and  C_19
REMARK    7  A    between atoms: C_19  and  N_20
REMARK    8  A    between atoms: N_20  and  C_21
REMARK    9  A    between atoms: C_21  and  C_22
REMARK   10  A    between atoms: C_21  and  C_23
REMARK                            x       y       z     vdW  Elec       q    Type
REMARK                         _______ _______ _______ _____ _____    ______ ____
ROOT
ATOM      1  C   UNL     1      48.526   8.017  13.271  0.00  0.00    +0.000 A 
ATOM      2  C   UNL     1      48.015   9.063  14.050  0.00  0.00    +0.000 A 
ATOM      3  C   UNL     1      48.106   9.019  15.445  0.00  0.00    +0.000 A 
ATOM      4  C   UNL     1      48.715   7.934  16.090  0.00  0.00    +0.000 A 
ATOM      5  C   UNL     1      49.278   6.918  15.307  0.00  0.00    +0.000 A 
ATOM      6  C   UNL     1      49.190   6.962  13.912  0.00  0.00    +0.000 A 
ENDROOT
BRANCH   1   7
ATOM      7  C   UNL     1      48.351   8.017  11.776  0.00  0.00    +0.000 C 
BRANCH   7  10
ATOM      8  C   UNL     1      46.263   6.882  11.204  0.00  0.00    +0.000 C 
ATOM      9  O   UNL     1      45.620   7.879  11.529  0.00  0.00    +0.000 OA
ATOM     10  N   UNL     1      47.628   6.861  11.307  0.00  0.00    +0.000 N 
ATOM     11  H   UNL     1      48.157   6.045  11.029  0.00  0.00    +0.000 HD
BRANCH   8  19
ATOM     12  C   UNL     1      44.431   4.352  12.659  0.00  0.00    +0.000 A 
ATOM     13  N   UNL     1      43.753   3.228  12.965  0.00  0.00    +0.000 NA
ATOM     14  C   UNL     1      43.446   2.389  11.971  0.00  0.00    +0.000 A 
ATOM     15  N   UNL     1      43.730   2.540  10.680  0.00  0.00    +0.000 NA
ATOM     16  C   UNL     1      44.419   3.664  10.422  0.00  0.00    +0.000 A 
ATOM     17  S   UNL     1      44.856   4.024   8.822  0.00  0.00    +0.000 S 
ATOM     18  C   UNL     1      45.638   5.451   9.308  0.00  0.00    +0.000 A 
ATOM     19  C   UNL     1      45.588   5.683  10.679  0.00  0.00    +0.000 A 
ATOM     20  C   UNL     1      44.835   4.624  11.341  0.00  0.00    +0.000 A 
BRANCH  12  22
ATOM     21  C   UNL     1      46.056   5.022  14.195  0.00  0.00    +0.000 C 
ATOM     22  O   UNL     1      44.739   5.222  13.685  0.00  0.00    +0.000 OA
ENDBRANCH  12  22
ENDBRANCH   8  19
ENDBRANCH   7  10
ENDBRANCH   1   7
BRANCH   4  23
ATOM     23  C   UNL     1      48.774   7.871  17.602  0.00  0.00    +0.000 C 
BRANCH  23  24
ATOM     24  N   UNL     1      47.943   6.788  18.128  0.00  0.00    +0.000 NA
ATOM     25  H   UNL     1      47.520   6.296  17.339  0.00  0.00    +0.000 HD
BRANCH  24  26
ATOM     26  C   UNL     1      48.695   5.806  18.926  0.00  0.00    +0.000 C 
ATOM     27  C   UNL     1      48.021   5.503  20.273  0.00  0.00    +0.000 C 
BRANCH  26  28
ATOM     28  C   UNL     1      48.875   4.515  18.134  0.00  0.00    +0.000 A 
ATOM     29  C   UNL     1      47.817   3.993  17.375  0.00  0.00    +0.000 A 
ATOM     30  C   UNL     1      47.982   2.820  16.632  0.00  0.00    +0.000 A 
ATOM     31  C   UNL     1      49.205   2.153  16.637  0.00  0.00    +0.000 A 
ATOM     32  C   UNL     1      50.264   2.655  17.389  0.00  0.00    +0.000 A 
ATOM     33  C   UNL     1      50.101   3.826  18.133  0.00  0.00    +0.000 A 
ENDBRANCH  26  28
ENDBRANCH  24  26
ENDBRANCH  23  24
ENDBRANCH   4  23
TORSDOF 8
ENDMDL
MODEL 8
REMARK VINA RESULT:    -6.965      4.057      9.257
REMARK INTER + INTRA:         -11.510
REMARK INTER:                  -9.975
REMARK INTRA:                  -1.535
REMARK UNBOUND:                -1.287
REMARK  Name = 
REMARK  10 active torsions:
REMARK  status: ('A' for Active; 'I' for Inactive)
REMARK    1  A    between atoms: C_1  and  O_2
REMARK    2  A    between atoms: O_2  and  C_3
REMARK    3  A    between atoms: C_10  and  C_11
REMARK    4  A    between atoms: N_13  and  C_14
REMARK    5  A    between atoms: C_14  and  C_15
REMARK    6  A    between atoms: C_18  and  C_19
REMARK    7  A    between atoms: C_19  and  N_20
REMARK    8  A    between atoms: N_20  and  C_21
REMARK    9  A    between atoms: C_21  and  C_22
REMARK   10  A    between atoms: C_21  and  C_23
REMARK                            x       y       z     vdW  Elec       q    Type
REMARK                         _______ _______ _______ _____ _____    ______ ____
ROOT
ATOM      1  C   UNL     1      48.866   3.294  17.092  0.00  0.00    +0.000 A 
ATOM      2  C   UNL     1      49.536   4.411  17.608  0.00  0.00    +0.000 A 
ATOM      3  C   UNL     1      50.882   4.323  17.975  0.00  0.00    +0.000 A 
ATOM      4  C   UNL     1      51.590   3.121  17.828  0.00  0.00    +0.000 A 
ATOM      5  C   UNL     1      50.934   2.023  17.257  0.00  0.00    +0.000 A 
ATOM      6  C   UNL     1      49.587   2.110  16.888  0.00  0.00    +0.000 A 
ENDROOT
BRANCH   1   7
ATOM      7  C   UNL     1      47.394   3.358  16.780  0.00  0.00    +0.000 C 
BRANCH   7  10
ATOM      8  C   UNL     1      46.978   4.255  14.545  0.00  0.00    +0.000 C 
ATOM      9  O   UNL     1      47.196   3.150  14.049  0.00  0.00    +0.000 OA
ATOM     10  N   UNL     1      47.066   4.449  15.896  0.00  0.00    +0.000 N 
ATOM     11  H   UNL     1      46.876   5.356  16.304  0.00  0.00    +0.000 HD
BRANCH   8  19
ATOM     12  C   UNL     1      44.194   5.002  12.656  0.00  0.00    +0.000 A 
ATOM     13  N   UNL     1      43.280   5.508  11.804  0.00  0.00    +0.000 NA
ATOM     14  C   UNL     1      43.548   6.679  11.217  0.00  0.00    +0.000 A 
ATOM     15  N   UNL     1      44.632   7.429  11.387  0.00  0.00    +0.000 NA
ATOM     16  C   UNL     1      45.523   6.882  12.231  0.00  0.00    +0.000 A 
ATOM     17  S   UNL     1      46.964   7.710  12.575  0.00  0.00    +0.000 S 
ATOM     18  C   UNL     1      47.491   6.462  13.598  0.00  0.00    +0.000 A 
ATOM     19  C   UNL     1      46.598   5.401  13.702  0.00  0.00    +0.000 A 
ATOM     20  C   UNL     1      45.408   5.666  12.900  0.00  0.00    +0.000 A 
BRANCH  12  22
ATOM     21  C   UNL     1      43.588   2.772  12.331  0.00  0.00    +0.000 C 
ATOM     22  O   UNL     1      43.912   3.798  13.267  0.00  0.00    +0.000 OA
ENDBRANCH  12  22
ENDBRANCH   8  19
ENDBRANCH   7  10
ENDBRANCH   1   7
BRANCH   4  23
ATOM     23  C   UNL     1      53.035   3.020  18.266  0.00  0.00    +0.000 C 
BRANCH  23  24
ATOM     24  N   UNL     1      53.653   4.340  18.391  0.00  0.00    +0.000 NA
ATOM     25  H   UNL     1      53.918   4.480  19.367  0.00  0.00    +0.000 HD
BRANCH  24  26
ATOM     26  C   UNL     1      54.861   4.502  17.565  0.00  0.00    +0.000 C 
ATOM     27  C   UNL     1      55.333   3.176  16.949  0.00  0.00    +0.000 C 
BRANCH  26  28
ATOM     28  C   UNL     1      54.608   5.526  16.462  0.00  0.00    +0.000 A 
ATOM     29  C   UNL     1      55.500   5.645  15.386  0.00  0.00    +0.000 A 
ATOM     30  C   UNL     1      55.263   6.568  14.362  0.00  0.00    +0.000 A 
ATOM     31  C   UNL     1      54.134   7.384  14.401  0.00  0.00    +0.000 A 
ATOM     32  C   UNL     1      53.242   7.281  15.465  0.00  0.00    +0.000 A 
ATOM     33  C   UNL     1      53.478   6.361  16.489  0.00  0.00    +0.000 A 
ENDBRANCH  26  28
ENDBRANCH  24  26
ENDBRANCH  23  24
ENDBRANCH   4  23
TORSDOF 8
ENDMDL
MODEL 9
REMARK VINA RESULT:    -6.854      3.804      5.369
REMARK INTER + INTRA:         -11.347
REMARK INTER:                 -10.343
REMARK INTRA:                  -1.004
REMARK UNBOUND:                -1.287
REMARK  Name = 
REMARK  10 active torsions:
REMARK  status: ('A' for Active; 'I' for Inactive)
REMARK    1  A    between atoms: C_1  and  O_2
REMARK    2  A    between atoms: O_2  and  C_3
REMARK    3  A    between atoms: C_10  and  C_11
REMARK    4  A    between atoms: N_13  and  C_14
REMARK    5  A    between atoms: C_14  and  C_15
REMARK    6  A    between atoms: C_18  and  C_19
REMARK    7  A    between atoms: C_19  and  N_20
REMARK    8  A    between atoms: N_20  and  C_21
REMARK    9  A    between atoms: C_21  and  C_22
REMARK   10  A    between atoms: C_21  and  C_23
REMARK                            x       y       z     vdW  Elec       q    Type
REMARK                         _______ _______ _______ _____ _____    ______ ____
ROOT
ATOM      1  C   UNL     1      47.241   5.798  13.681  0.00  0.00    +0.000 A 
ATOM      2  C   UNL     1      46.315   6.376  12.802  0.00  0.00    +0.000 A 
ATOM      3  C   UNL     1      45.373   5.582  12.141  0.00  0.00    +0.000 A 
ATOM      4  C   UNL     1      45.330   4.196  12.349  0.00  0.00    +0.000 A 
ATOM      5  C   UNL     1      46.217   3.629  13.273  0.00  0.00    +0.000 A 
ATOM      6  C   UNL     1      47.159   4.423  13.936  0.00  0.00    +0.000 A 
ENDROOT
BRANCH   1   7
ATOM      7  C   UNL     1      48.314   6.635  14.324  0.00  0.00    +0.000 C 
BRANCH   7  10
ATOM      8  C   UNL     1      50.088   8.151  13.599  0.00  0.00    +0.000 C 
ATOM      9  O   UNL     1      49.884   8.873  14.573  0.00  0.00    +0.000 OA
ATOM     10  N   UNL     1      49.343   7.022  13.392  0.00  0.00    +0.000 N 
ATOM     11  H   UNL     1      49.519   6.423  12.596  0.00  0.00    +0.000 HD
BRANCH   8  19
ATOM     12  C   UNL     1      53.530   8.161  13.762  0.00  0.00    +0.000 A 
ATOM     13  N   UNL     1      54.855   8.316  13.569  0.00  0.00    +0.000 NA
ATOM     14  C   UNL     1      55.270   8.750  12.375  0.00  0.00    +0.000 A 
ATOM     15  N   UNL     1      54.512   9.047  11.324  0.00  0.00    +0.000 NA
ATOM     16  C   UNL     1      53.199   8.894  11.563  0.00  0.00    +0.000 A 
ATOM     17  S   UNL     1      52.082   9.216  10.326  0.00  0.00    +0.000 S 
ATOM     18  C   UNL     1      50.776   8.842  11.344  0.00  0.00    +0.000 A 
ATOM     19  C   UNL     1      51.151   8.469  12.631  0.00  0.00    +0.000 A 
ATOM     20  C   UNL     1      52.605   8.477  12.752  0.00  0.00    +0.000 A 
BRANCH  12  22
ATOM     21  C   UNL     1      53.087   8.732  15.982  0.00  0.00    +0.000 C 
ATOM     22  O   UNL     1      53.104   7.704  14.992  0.00  0.00    +0.000 OA
ENDBRANCH  12  22
ENDBRANCH   8  19
ENDBRANCH   7  10
ENDBRANCH   1   7
BRANCH   4  23
ATOM     23  C   UNL     1      44.335   3.335  11.600  0.00  0.00    +0.000 C 
BRANCH  23  24
ATOM     24  N   UNL     1      44.984   2.556  10.545  0.00  0.00    +0.000 NA
ATOM     25  H   UNL     1      44.786   1.568  10.708  0.00  0.00    +0.000 HD
BRANCH  24  26
ATOM     26  C   UNL     1      44.515   2.898   9.193  0.00  0.00    +0.000 C 
ATOM     27  C   UNL     1      44.122   4.377   9.063  0.00  0.00    +0.000 C 
BRANCH  26  28
ATOM     28  C   UNL     1      45.589   2.554   8.164  0.00  0.00    +0.000 A 
ATOM     29  C   UNL     1      45.934   3.474   7.163  0.00  0.00    +0.000 A 
ATOM     30  C   UNL     1      46.931   3.172   6.229  0.00  0.00    +0.000 A 
ATOM     31  C   UNL     1      47.594   1.948   6.283  0.00  0.00    +0.000 A 
ATOM     32  C   UNL     1      47.259   1.022   7.267  0.00  0.00    +0.000 A 
ATOM     33  C   UNL     1      46.263   1.321   8.200  0.00  0.00    +0.000 A 
ENDBRANCH  26  28
ENDBRANCH  24  26
ENDBRANCH  23  24
ENDBRANCH   4  23
TORSDOF 8
ENDMDL
