MODEL 1
REMARK VINA RESULT:    -5.494      0.000      0.000
REMARK INTER + INTRA:          -7.034
REMARK INTER:                  -6.779
REMARK INTRA:                  -0.255
REMARK UNBOUND:                -0.255
REMARK  Name = 
REMARK  5 active torsions:
REMARK  status: ('A' for Active; 'I' for Inactive)
REMARK    1  A    between atoms: N_1  and  C_2
REMARK    2  A    between atoms: C_2  and  C_3
REMARK    3  A    between atoms: C_6  and  C_7
REMARK    4  A    between atoms: C_8  and  C_9
REMARK    5  A    between atoms: C_15  and  O_16
REMARK                            x       y       z     vdW  Elec       q    Type
REMARK                         _______ _______ _______ _____ _____    ______ ____
ROOT
ATOM      1  C   UNL     1      49.229   4.922  18.562  0.00  0.00    +0.000 A 
ATOM      2  C   UNL     1      49.534   5.672  17.416  0.00  0.00    +0.000 A 
ATOM      3  C   UNL     1      48.772   5.533  16.248  0.00  0.00    +0.000 A 
ATOM      4  C   UNL     1      47.694   4.644  16.209  0.00  0.00    +0.000 A 
ATOM      5  C   UNL     1      47.411   3.871  17.339  0.00  0.00    +0.000 A 
ATOM      6  C   UNL     1      48.172   4.003  18.500  0.00  0.00    +0.000 A 
ENDROOT
BRANCH   4   7
ATOM      7  C   UNL     1      46.895   4.568  15.018  0.00  0.00    +0.000 C 
ATOM      8  C   UNL     1      46.214   4.495  14.033  0.00  0.00    +0.000 C 
BRANCH   8   9
ATOM      9  C   UNL     1      45.411   4.391  12.859  0.00  0.00    +0.000 A 
ATOM     10  N   UNL     1      44.423   3.484  12.881  0.00  0.00    +0.000 NA
ATOM     11  C   UNL     1      43.646   3.457  11.783  0.00  0.00    +0.000 A 
ATOM     12  C   UNL     1      43.825   4.291  10.702  0.00  0.00    +0.000 A 
ATOM     13  C   UNL     1      44.881   5.171  10.794  0.00  0.00    +0.000 A 
ATOM     14  N   UNL     1      45.696   5.245  11.864  0.00  0.00    +0.000 NA
ENDBRANCH   8   9
ENDBRANCH   4   7
BRANCH   5  15
ATOM     15  O   UNL     1      46.390   2.960  17.391  0.00  0.00    +0.000 OA
ATOM     16  H   UNL     1      46.530   2.379  18.156  0.00  0.00    +0.000 HD
ENDBRANCH   5  15
BRANCH   1  17
ATOM     17  C   UNL     1      50.009   5.097  19.840  0.00  0.00    +0.000 C 
BRANCH  17  18
ATOM     18  N   UNL     1      49.379   4.397  20.956  0.00  0.00    +0.000 NA
ATOM     19  H   UNL     1      49.237   5.054  21.720  0.00  0.00    +0.000 HD
ATOM     20  H   UNL     1      50.028   3.692  21.304  0.00  0.00    +0.000 HD
ENDBRANCH  17  18
ENDBRANCH   1  17
TORSDOF 5
ENDMDL
MODEL 2
REMARK VINA RESULT:    -5.491      2.313      7.608
REMARK INTER + INTRA:          -7.030
REMARK INTER:                  -6.784
REMARK INTRA:                  -0.246
REMARK UNBOUND:                -0.255
REMARK  Name = 
REMARK  5 active torsions:
REMARK  status: ('A' for Active; 'I' for Inactive)
REMARK    1  A    between atoms: N_1  and  C_2
REMARK    2  A    between atoms: C_2  and  C_3
REMARK    3  A    between atoms: C_6  and  C_7
REMARK    4  A    between atoms: C_8  and  C_9
REMARK    5  A    between atoms: C_15  and  O_16
REMARK                            x       y       z     vdW  Elec       q    Type
REMARK                         _______ _______ _______ _____ _____    ______ ____
ROOT
ATOM      1  C   UNL     1      44.833   4.438  11.058  0.00  0.00    +0.000 A 
ATOM      2  C   UNL     1      45.219   3.249  11.696  0.00  0.00    +0.000 A 
ATOM      3  C   UNL     1      45.920   3.284  12.909  0.00  0.00    +0.000 A 
ATOM      4  C   UNL     1      46.245   4.507  13.502  0.00  0.00    +0.000 A 
ATOM      5  C   UNL     1      45.891   5.693  12.851  0.00  0.00    +0.000 A 
ATOM      6  C   UNL     1      45.198   5.660  11.640  0.00  0.00    +0.000 A 
ENDROOT
BRANCH   4   7
ATOM      7  C   UNL     1      46.910   4.511  14.775  0.00  0.00    +0.000 C 
ATOM      8  C   UNL     1      47.476   4.529  15.833  0.00  0.00    +0.000 C 
BRANCH   8   9
ATOM      9  C   UNL     1      48.163   4.541  17.082  0.00  0.00    +0.000 A 
ATOM     10  N   UNL     1      49.428   4.096  17.081  0.00  0.00    +0.000 NA
ATOM     11  C   UNL     1      50.067   4.181  18.263  0.00  0.00    +0.000 A 
ATOM     12  C   UNL     1      49.490   4.689  19.406  0.00  0.00    +0.000 A 
ATOM     13  C   UNL     1      48.182   5.103  19.282  0.00  0.00    +0.000 A 
ATOM     14  N   UNL     1      47.488   5.041  18.130  0.00  0.00    +0.000 NA
ENDBRANCH   8   9
ENDBRANCH   4   7
BRANCH   5  15
ATOM     15  O   UNL     1      46.181   6.937  13.343  0.00  0.00    +0.000 OA
ATOM     16  H   UNL     1      45.427   7.524  13.168  0.00  0.00    +0.000 HD
ENDBRANCH   5  15
BRANCH   1  17
ATOM     17  C   UNL     1      44.036   4.415   9.779  0.00  0.00    +0.000 C 
BRANCH  17  18
ATOM     18  N   UNL     1      44.883   4.649   8.612  0.00  0.00    +0.000 NA
ATOM     19  H   UNL     1      45.705   5.175   8.900  0.00  0.00    +0.000 HD
ATOM     20  H   UNL     1      44.377   5.248   7.960  0.00  0.00    +0.000 HD
ENDBRANCH  17  18
ENDBRANCH   1  17
TORSDOF 5
ENDMDL
MODEL 3
REMARK VINA RESULT:    -5.220      3.304      7.338
REMARK INTER + INTRA:          -6.697
REMARK INTER:                  -6.446
REMARK INTRA:                  -0.251
REMARK UNBOUND:                -0.255
REMARK  Name = 
REMARK  5 active torsions:
REMARK  status: ('A' for Active; 'I' for Inactive)
REMARK    1  A    between atoms: N_1  and  C_2
REMARK    2  A    between atoms: C_2  and  C_3
REMARK    3  A    between atoms: C_6  and  C_7
REMARK    4  A    between atoms: C_8  and  C_9
REMARK    5  A    between atoms: C_15  and  O_16
REMARK                            x       y       z     vdW  Elec       q    Type
REMARK                         _______ _______ _______ _____ _____    ______ ____
ROOT
ATOM      1  C   UNL     1      44.786   3.888  11.510  0.00  0.00    +0.000 A 
ATOM      2  C   UNL     1      44.992   5.251  11.247  0.00  0.00    +0.000 A 
ATOM      3  C   UNL     1      45.969   5.974  11.946  0.00  0.00    +0.000 A 
ATOM      4  C   UNL     1      46.754   5.345  12.916  0.00  0.00    +0.000 A 
ATOM      5  C   UNL     1      46.526   3.996  13.204  0.00  0.00    +0.000 A 
ATOM      6  C   UNL     1      45.550   3.276  12.513  0.00  0.00    +0.000 A 
ENDROOT
BRANCH   4   7
ATOM      7  C   UNL     1      47.787   6.096  13.573  0.00  0.00    +0.000 C 
ATOM      8  C   UNL     1      48.662   6.710  14.117  0.00  0.00    +0.000 C 
BRANCH   8   9
ATOM      9  C   UNL     1      49.700   7.429  14.780  0.00  0.00    +0.000 A 
ATOM     10  N   UNL     1      50.525   6.717  15.561  0.00  0.00    +0.000 NA
ATOM     11  C   UNL     1      51.531   7.416  16.120  0.00  0.00    +0.000 A 
ATOM     12  C   UNL     1      51.725   8.764  15.919  0.00  0.00    +0.000 A 
ATOM     13  C   UNL     1      50.803   9.386  15.106  0.00  0.00    +0.000 A 
ATOM     14  N   UNL     1      49.775   8.744  14.520  0.00  0.00    +0.000 NA
ENDBRANCH   8   9
ENDBRANCH   4   7
BRANCH   5  15
ATOM     15  O   UNL     1      47.229   3.299  14.149  0.00  0.00    +0.000 OA
ATOM     16  H   UNL     1      47.871   2.724  13.699  0.00  0.00    +0.000 HD
ENDBRANCH   5  15
BRANCH   1  17
ATOM     17  C   UNL     1      43.774   3.088  10.732  0.00  0.00    +0.000 C 
BRANCH  17  18
ATOM     18  N   UNL     1      43.045   2.159  11.591  0.00  0.00    +0.000 NA
ATOM     19  H   UNL     1      42.593   1.456  11.010  0.00  0.00    +0.000 HD
ATOM     20  H   UNL     1      42.295   2.668  12.057  0.00  0.00    +0.000 HD
ENDBRANCH  17  18
ENDBRANCH   1  17
TORSDOF 5
ENDMDL
MODEL 4
REMARK VINA RESULT:    -4.780      4.479      7.500
REMARK INTER + INTRA:          -6.154
REMARK INTER:                  -5.898
REMARK INTRA:                  -0.256
REMARK UNBOUND:                -0.255
REMARK  Name = 
REMARK  5 active torsions:
REMARK  status: ('A' for Active; 'I' for Inactive)
REMARK    1  A    between atoms: N_1  and  C_2
REMARK    2  A    between atoms: C_2  and  C_3
REMARK    3  A    between atoms: C_6  and  C_7
REMARK    4  A    between atoms: C_8  and  C_9
REMARK    5  A    between atoms: C_15  and  O_16
REMARK                            x       y       z     vdW  Elec       q    Type
REMARK                         _______ _______ _______ _____ _____    ______ ____
ROOT
ATOM      1  C   UNL     1      44.488   4.230  11.684  0.00  0.00    +0.000 A 
ATOM      2  C   UNL     1      44.566   5.368  10.868  0.00  0.00    +0.000 A 
ATOM      3  C   UNL     1      45.612   6.288  11.023  0.00  0.00    +0.000 A 
ATOM      4  C   UNL     1      46.595   6.083  11.995  0.00  0.00    +0.000 A 
ATOM      5  C   UNL     1      46.499   4.967  12.833  0.00  0.00    +0.000 A 
ATOM      6  C   UNL     1      45.455   4.053  12.683  0.00  0.00    +0.000 A 
ENDROOT
BRANCH   4   7
ATOM      7  C   UNL     1      47.687   7.010  12.091  0.00  0.00    +0.000 C 
ATOM      8  C   UNL     1      48.592   7.792  12.186  0.00  0.00    +0.000 C 
BRANCH   8   9
ATOM      9  C   UNL     1      49.656   8.736  12.288  0.00  0.00    +0.000 A 
ATOM     10  N   UNL     1      49.681   9.721  11.378  0.00  0.00    +0.000 NA
ATOM     11  C   UNL     1      50.661  10.629  11.544  0.00  0.00    +0.000 A 
ATOM     12  C   UNL     1      51.583  10.578  12.565  0.00  0.00    +0.000 A 
ATOM     13  C   UNL     1      51.460   9.511  13.428  0.00  0.00    +0.000 A 
ATOM     14  N   UNL     1      50.504   8.569  13.316  0.00  0.00    +0.000 NA
ENDBRANCH   8   9
ENDBRANCH   4   7
BRANCH   5  15
ATOM     15  O   UNL     1      47.400   4.691  13.825  0.00  0.00    +0.000 OA
ATOM     16  H   UNL     1      47.834   3.844  13.626  0.00  0.00    +0.000 HD
ENDBRANCH   5  15
BRANCH   1  17
ATOM     17  C   UNL     1      43.397   3.207  11.496  0.00  0.00    +0.000 C 
BRANCH  17  18
ATOM     18  N   UNL     1      43.502   2.120  12.465  0.00  0.00    +0.000 NA
ATOM     19  H   UNL     1      44.384   2.208  12.965  0.00  0.00    +0.000 HD
ATOM     20  H   UNL     1      43.550   1.237  11.958  0.00  0.00    +0.000 HD
ENDBRANCH  17  18
ENDBRANCH   1  17
TORSDOF 5
ENDMDL
MODEL 5
REMARK VINA RESULT:    -4.649      4.986      5.610
REMARK INTER + INTRA:          -5.991
REMARK INTER:                  -5.746
REMARK INTRA:                  -0.245
REMARK UNBOUND:                -0.255
REMARK  Name = 
REMARK  5 active torsions:
REMARK  status: ('A' for Active; 'I' for Inactive)
REMARK    1  A    between atoms: N_1  and  C_2
REMARK    2  A    between atoms: C_2  and  C_3
REMARK    3  A    between atoms: C_6  and  C_7
REMARK    4  A    between atoms: C_8  and  C_9
REMARK    5  A    between atoms: C_15  and  O_16
REMARK                            x       y       z     vdW  Elec       q    Type
REMARK                         _______ _______ _______ _____ _____    ______ ____
ROOT
ATOM      1  C   UNL     1      49.835   9.851  12.558  0.00  0.00    +0.000 A 
ATOM      2  C   UNL     1      50.035   8.795  11.656  0.00  0.00    +0.000 A 
ATOM      3  C   UNL     1      49.095   7.761  11.545  0.00  0.00    +0.000 A 
ATOM      4  C   UNL     1      47.941   7.769  12.334  0.00  0.00    +0.000 A 
ATOM      5  C   UNL     1      47.757   8.803  13.258  0.00  0.00    +0.000 A 
ATOM      6  C   UNL     1      48.695   9.829  13.373  0.00  0.00    +0.000 A 
ENDROOT
BRANCH   4   7
ATOM      7  C   UNL     1      46.967   6.730  12.156  0.00  0.00    +0.000 C 
ATOM      8  C   UNL     1      46.144   5.872  11.995  0.00  0.00    +0.000 C 
BRANCH   8   9
ATOM      9  C   UNL     1      45.154   4.861  11.818  0.00  0.00    +0.000 A 
ATOM     10  N   UNL     1      44.988   4.388  10.574  0.00  0.00    +0.000 NA
ATOM     11  C   UNL     1      44.092   3.390  10.454  0.00  0.00    +0.000 A 
ATOM     12  C   UNL     1      43.385   2.871  11.515  0.00  0.00    +0.000 A 
ATOM     13  C   UNL     1      43.634   3.448  12.740  0.00  0.00    +0.000 A 
ATOM     14  N   UNL     1      44.515   4.450  12.925  0.00  0.00    +0.000 NA
ENDBRANCH   8   9
ENDBRANCH   4   7
BRANCH   5  15
ATOM     15  O   UNL     1      46.671   8.887  14.086  0.00  0.00    +0.000 OA
ATOM     16  H   UNL     1      46.598   8.059  14.591  0.00  0.00    +0.000 HD
ENDBRANCH   5  15
BRANCH   1  17
ATOM     17  C   UNL     1      50.814  10.993  12.652  0.00  0.00    +0.000 C 
BRANCH  17  18
ATOM     18  N   UNL     1      51.942  10.667  13.520  0.00  0.00    +0.000 NA
ATOM     19  H   UNL     1      52.794  11.044  13.109  0.00  0.00    +0.000 HD
ATOM     20  H   UNL     1      52.057   9.654  13.534  0.00  0.00    +0.000 HD
ENDBRANCH  17  18
ENDBRANCH   1  17
TORSDOF 5
ENDMDL
MODEL 6
REMARK VINA RESULT:    -4.466      4.182      5.022
REMARK INTER + INTRA:          -5.766
REMARK INTER:                  -5.514
REMARK INTRA:                  -0.252
REMARK UNBOUND:                -0.255
REMARK  Name = 
REMARK  5 active torsions:
REMARK  status: ('A' for Active; 'I' for Inactive)
REMARK    1  A    between atoms: N_1  and  C_2
REMARK    2  A    between atoms: C_2  and  C_3
REMARK    3  A    between atoms: C_6  and  C_7
REMARK    4  A    between atoms: C_8  and  C_9
REMARK    5  A    between atoms: C_15  and  O_16
REMARK                            x       y       z     vdW  Elec       q    Type
REMARK                         _______ _______ _______ _____ _____    ______ ____
ROOT
ATOM      1  C   UNL     1      51.241   8.565  13.299  0.00  0.00    +0.000 A 
ATOM      2  C   UNL     1      50.594   8.694  12.060  0.00  0.00    +0.000 A 
ATOM      3  C   UNL     1      49.361   8.069  11.829  0.00  0.00    +0.000 A 
ATOM      4  C   UNL     1      48.757   7.307  12.833  0.00  0.00    +0.000 A 
ATOM      5  C   UNL     1      49.417   7.149  14.055  0.00  0.00    +0.000 A 
ATOM      6  C   UNL     1      50.647   7.766  14.285  0.00  0.00    +0.000 A 
ENDROOT
BRANCH   4   7
ATOM      7  C   UNL     1      47.466   6.729  12.588  0.00  0.00    +0.000 C 
ATOM      8  C   UNL     1      46.382   6.261  12.375  0.00  0.00    +0.000 C 
BRANCH   8   9
ATOM      9  C   UNL     1      45.086   5.714  12.136  0.00  0.00    +0.000 A 
ATOM     10  N   UNL     1      44.252   5.656  13.185  0.00  0.00    +0.000 NA
ATOM     11  C   UNL     1      43.018   5.195  12.911  0.00  0.00    +0.000 A 
ATOM     12  C   UNL     1      42.611   4.807  11.653  0.00  0.00    +0.000 A 
ATOM     13  C   UNL     1      43.563   4.902  10.662  0.00  0.00    +0.000 A 
ATOM     14  N   UNL     1      44.814   5.353  10.873  0.00  0.00    +0.000 NA
ENDBRANCH   8   9
ENDBRANCH   4   7
BRANCH   5  15
ATOM     15  O   UNL     1      48.915   6.408  15.091  0.00  0.00    +0.000 OA
ATOM     16  H   UNL     1      48.417   6.996  15.683  0.00  0.00    +0.000 HD
ENDBRANCH   5  15
BRANCH   1  17
ATOM     17  C   UNL     1      52.543   9.272  13.577  0.00  0.00    +0.000 C 
BRANCH  17  18
ATOM     18  N   UNL     1      53.392   9.326  12.390  0.00  0.00    +0.000 NA
ATOM     19  H   UNL     1      52.876   8.950  11.597  0.00  0.00    +0.000 HD
ATOM     20  H   UNL     1      54.187   8.704  12.532  0.00  0.00    +0.000 HD
ENDBRANCH  17  18
ENDBRANCH   1  17
TORSDOF 5
ENDMDL
MODEL 7
REMARK VINA RESULT:    -4.434      3.743      4.476
REMARK INTER + INTRA:          -5.727
REMARK INTER:                  -5.477
REMARK INTRA:                  -0.249
REMARK UNBOUND:                -0.255
REMARK  Name = 
REMARK  5 active torsions:
REMARK  status: ('A' for Active; 'I' for Inactive)
REMARK    1  A    between atoms: N_1  and  C_2
REMARK    2  A    between atoms: C_2  and  C_3
REMARK    3  A    between atoms: C_6  and  C_7
REMARK    4  A    between atoms: C_8  and  C_9
REMARK    5  A    between atoms: C_15  and  O_16
REMARK                            x       y       z     vdW  Elec       q    Type
REMARK                         _______ _______ _______ _____ _____    ______ ____
ROOT
ATOM      1  C   UNL     1      50.924   8.426  13.844  0.00  0.00    +0.000 A 
ATOM      2  C   UNL     1      50.577   8.188  12.505  0.00  0.00    +0.000 A 
ATOM      3  C   UNL     1      49.450   7.418  12.185  0.00  0.00    +0.000 A 
ATOM      4  C   UNL     1      48.655   6.876  13.199  0.00  0.00    +0.000 A 
ATOM      5  C   UNL     1      49.019   7.083  14.533  0.00  0.00    +0.000 A 
ATOM      6  C   UNL     1      50.144   7.845  14.852  0.00  0.00    +0.000 A 
ENDROOT
BRANCH   4   7
ATOM      7  C   UNL     1      47.473   6.142  12.841  0.00  0.00    +0.000 C 
ATOM      8  C   UNL     1      46.490   5.531  12.525  0.00  0.00    +0.000 C 
BRANCH   8   9
ATOM      9  C   UNL     1      45.312   4.822  12.147  0.00  0.00    +0.000 A 
ATOM     10  N   UNL     1      44.661   5.266  11.061  0.00  0.00    +0.000 NA
ATOM     11  C   UNL     1      43.592   4.536  10.696  0.00  0.00    +0.000 A 
ATOM     12  C   UNL     1      43.174   3.408  11.366  0.00  0.00    +0.000 A 
ATOM     13  C   UNL     1      43.918   3.061  12.472  0.00  0.00    +0.000 A 
ATOM     14  N   UNL     1      44.996   3.751  12.890  0.00  0.00    +0.000 NA
ENDBRANCH   8   9
ENDBRANCH   4   7
BRANCH   5  15
ATOM     15  O   UNL     1      48.315   6.578  15.592  0.00  0.00    +0.000 OA
ATOM     16  H   UNL     1      48.197   5.622  15.461  0.00  0.00    +0.000 HD
ENDBRANCH   5  15
BRANCH   1  17
ATOM     17  C   UNL     1      52.104   9.293  14.202  0.00  0.00    +0.000 C 
BRANCH  17  18
ATOM     18  N   UNL     1      51.724  10.373  15.108  0.00  0.00    +0.000 NA
ATOM     19  H   UNL     1      50.917  10.860  14.723  0.00  0.00    +0.000 HD
ATOM     20  H   UNL     1      52.481  11.056  15.135  0.00  0.00    +0.000 HD
ENDBRANCH  17  18
ENDBRANCH   1  17
TORSDOF 5
ENDMDL
MODEL 8
REMARK VINA RESULT:    -4.382      3.300      7.714
REMARK INTER + INTRA:          -5.662
REMARK INTER:                  -5.408
REMARK INTRA:                  -0.254
REMARK UNBOUND:                -0.255
REMARK  Name = 
REMARK  5 active torsions:
REMARK  status: ('A' for Active; 'I' for Inactive)
REMARK    1  A    between atoms: N_1  and  C_2
REMARK    2  A    between atoms: C_2  and  C_3
REMARK    3  A    between atoms: C_6  and  C_7
REMARK    4  A    between atoms: C_8  and  C_9
REMARK    5  A    between atoms: C_15  and  O_16
REMARK                            x       y       z     vdW  Elec       q    Type
REMARK                         _______ _______ _______ _____ _____    ______ ____
ROOT
ATOM      1  C   UNL     1      44.980   4.681  11.472  0.00  0.00    +0.000 A 
ATOM      2  C   UNL     1      45.429   3.944  12.578  0.00  0.00    +0.000 A 
ATOM      3  C   UNL     1      46.402   4.469  13.439  0.00  0.00    +0.000 A 
ATOM      4  C   UNL     1      46.939   5.739  13.207  0.00  0.00    +0.000 A 
ATOM      5  C   UNL     1      46.517   6.460  12.086  0.00  0.00    +0.000 A 
ATOM      6  C   UNL     1      45.553   5.936  11.224  0.00  0.00    +0.000 A 
ENDROOT
BRANCH   4   7
ATOM      7  C   UNL     1      47.890   6.276  14.140  0.00  0.00    +0.000 C 
ATOM      8  C   UNL     1      48.682   6.741  14.912  0.00  0.00    +0.000 C 
BRANCH   8   9
ATOM      9  C   UNL     1      49.637   7.293  15.816  0.00  0.00    +0.000 A 
ATOM     10  N   UNL     1      49.154   7.901  16.909  0.00  0.00    +0.000 NA
ATOM     11  C   UNL     1      50.084   8.353  17.771  0.00  0.00    +0.000 A 
ATOM     12  C   UNL     1      51.439   8.211  17.574  0.00  0.00    +0.000 A 
ATOM     13  C   UNL     1      51.810   7.578  16.407  0.00  0.00    +0.000 A 
ATOM     14  N   UNL     1      50.929   7.107  15.504  0.00  0.00    +0.000 NA
ENDBRANCH   8   9
ENDBRANCH   4   7
BRANCH   5  15
ATOM     15  O   UNL     1      46.998   7.701  11.765  0.00  0.00    +0.000 OA
ATOM     16  H   UNL     1      46.896   7.837  10.808  0.00  0.00    +0.000 HD
ENDBRANCH   5  15
BRANCH   1  17
ATOM     17  C   UNL     1      43.899   4.148  10.566  0.00  0.00    +0.000 C 
BRANCH  17  18
ATOM     18  N   UNL     1      42.900   3.386  11.309  0.00  0.00    +0.000 NA
ATOM     19  H   UNL     1      42.419   2.759  10.668  0.00  0.00    +0.000 HD
ATOM     20  H   UNL     1      42.193   4.033  11.659  0.00  0.00    +0.000 HD
ENDBRANCH  17  18
ENDBRANCH   1  17
TORSDOF 5
ENDMDL
MODEL 9
REMARK VINA RESULT:    -4.283      4.195      4.914
REMARK INTER + INTRA:          -5.541
REMARK INTER:                  -5.294
REMARK INTRA:                  -0.246
REMARK UNBOUND:                -0.255
REMARK  Name = 
REMARK  5 active torsions:
REMARK  status: ('A' for Active; 'I' for Inactive)
REMARK    1  A    between atoms: N_1  and  C_2
REMARK    2  A    between atoms: C_2  and  C_3
REMARK    3  A    between atoms: C_6  and  C_7
REMARK    4  A    between atoms: C_8  and  C_9
REMARK    5  A    between atoms: C_15  and  O_16
REMARK                            x       y       z     vdW  Elec       q    Type
REMARK                         _______ _______ _______ _____ _____    ______ ____
ROOT
ATOM      1  C   UNL     1      51.305   8.105  14.054  0.00  0.00    +0.000 A 
ATOM      2  C   UNL     1      50.445   7.524  14.999  0.00  0.00    +0.000 A 
ATOM      3  C   UNL     1      49.170   7.079  14.626  0.00  0.00    +0.000 A 
ATOM      4  C   UNL     1      48.737   7.207  13.303  0.00  0.00    +0.000 A 
ATOM      5  C   UNL     1      49.579   7.816  12.368  0.00  0.00    +0.000 A 
ATOM      6  C   UNL     1      50.847   8.265  12.739  0.00  0.00    +0.000 A 
ENDROOT
BRANCH   4   7
ATOM      7  C   UNL     1      47.449   6.687  12.937  0.00  0.00    +0.000 C 
ATOM      8  C   UNL     1      46.373   6.264  12.617  0.00  0.00    +0.000 C 
BRANCH   8   9
ATOM      9  C   UNL     1      45.085   5.777  12.246  0.00  0.00    +0.000 A 
ATOM     10  N   UNL     1      44.912   5.443  10.959  0.00  0.00    +0.000 NA
ATOM     11  C   UNL     1      43.706   4.927  10.657  0.00  0.00    +0.000 A 
ATOM     12  C   UNL     1      42.704   4.740  11.583  0.00  0.00    +0.000 A 
ATOM     13  C   UNL     1      42.999   5.133  12.870  0.00  0.00    +0.000 A 
ATOM     14  N   UNL     1      44.185   5.658  13.235  0.00  0.00    +0.000 NA
ENDBRANCH   8   9
ENDBRANCH   4   7
BRANCH   5  15
ATOM     15  O   UNL     1      49.237   8.002  11.056  0.00  0.00    +0.000 OA
ATOM     16  H   UNL     1      49.960   7.672  10.496  0.00  0.00    +0.000 HD
ENDBRANCH   5  15
BRANCH   1  17
ATOM     17  C   UNL     1      52.698   8.543  14.431  0.00  0.00    +0.000 C 
BRANCH  17  18
ATOM     18  N   UNL     1      53.699   7.557  14.034  0.00  0.00    +0.000 NA
ATOM     19  H   UNL     1      53.454   7.186  13.118  0.00  0.00    +0.000 HD
ATOM     20  H   UNL     1      53.653   6.769  14.680  0.00  0.00    +0.000 HD
ENDBRANCH  17  18
ENDBRANCH   1  17
TORSDOF 5
ENDMDL
