MODEL 1
REMARK VINA RESULT:    -8.907      0.000      0.000
REMARK INTER + INTRA:         -13.649
REMARK INTER:                 -12.551
REMARK INTRA:                  -1.097
REMARK UNBOUND:                -1.097
REMARK  Name = 
REMARK  9 active torsions:
REMARK  status: ('A' for Active; 'I' for Inactive)
REMARK    1  A    between atoms: C_1  and  C_2
REMARK    2  A    between atoms: C_4  and  O_5
REMARK    3  A    between atoms: O_5  and  C_6
REMARK    4  A    between atoms: C_6  and  C_7
REMARK    5  A    between atoms: C_7  and  C_8
REMARK    6  A    between atoms: C_7  and  C_9
REMARK    7  A    between atoms: C_13  and  O_14
REMARK    8  A    between atoms: O_14  and  C_15
REMARK    9  A    between atoms: C_22  and  C_23
REMARK                            x       y       z     vdW  Elec       q    Type
REMARK                         _______ _______ _______ _____ _____    ______ ____
ROOT
ATOM      1  C   UNL     1      44.143   2.983  11.673  0.00  0.00    +0.000 C 
ENDROOT
BRANCH   1   2
ATOM      2  C   UNL     1      43.929   4.337  12.377  0.00  0.00    +0.000 C 
ATOM      3  C   UNL     1      42.949   5.229  11.608  0.00  0.00    +0.000 C 
BRANCH   2   4
ATOM      4  C   UNL     1      45.264   5.041  12.594  0.00  0.00    +0.000 A 
ATOM      5  C   UNL     1      45.760   5.974  11.671  0.00  0.00    +0.000 A 
ATOM      6  C   UNL     1      46.989   6.605  11.881  0.00  0.00    +0.000 A 
ATOM      7  C   UNL     1      47.749   6.309  13.013  0.00  0.00    +0.000 A 
ATOM      8  C   UNL     1      47.281   5.372  13.932  0.00  0.00    +0.000 A 
ATOM      9  C   UNL     1      46.039   4.754  13.729  0.00  0.00    +0.000 A 
BRANCH   8  10
ATOM     10  O   UNL     1      47.940   5.006  15.079  0.00  0.00    +0.000 OA
BRANCH  10  11
ATOM     11  C   UNL     1      47.279   4.105  15.998  0.00  0.00    +0.000 C 
ATOM     12  C   UNL     1      47.177   4.521  17.473  0.00  0.00    +0.000 C 
ATOM     13  O   UNL     1      47.776   3.278  17.913  0.00  0.00    +0.000 OA
ATOM     14  C   UNL     1      48.153   2.969  16.550  0.00  0.00    +0.000 C 
ENDBRANCH  10  11
ENDBRANCH   8  10
ENDBRANCH   2   4
ENDBRANCH   1   2
BRANCH   1  15
ATOM     15  O   UNL     1      43.635   3.004  10.333  0.00  0.00    +0.000 OA
BRANCH  15  19
ATOM     16  C   UNL     1      46.736   0.217   7.646  0.00  0.00    +0.000 C 
ATOM     17  C   UNL     1      46.137   1.563   7.957  0.00  0.00    +0.000 A 
ATOM     18  C   UNL     1      45.184   1.639   8.992  0.00  0.00    +0.000 A 
ATOM     19  C   UNL     1      44.571   2.844   9.340  0.00  0.00    +0.000 A 
ATOM     20  C   UNL     1      44.921   4.000   8.643  0.00  0.00    +0.000 A 
ATOM     21  C   UNL     1      45.867   3.949   7.611  0.00  0.00    +0.000 A 
ATOM     22  C   UNL     1      46.476   2.734   7.251  0.00  0.00    +0.000 A 
BRANCH  22  23
ATOM     23  C   UNL     1      47.491   2.710   6.150  0.00  0.00    +0.000 C 
ATOM     24  N   UNL     1      48.803   2.561   6.505  0.00  0.00    +0.000 N 
ATOM     25  O   UNL     1      47.194   2.838   4.969  0.00  0.00    +0.000 OA
ATOM     26  H   UNL     1      49.136   2.647   7.454  0.00  0.00    +0.000 HD
ATOM     27  H   UNL     1      49.481   2.640   5.756  0.00  0.00    +0.000 HD
ENDBRANCH  22  23
ENDBRANCH  15  19
ENDBRANCH   1  15
TORSDOF 7
ENDMDL
MODEL 2
REMARK VINA RESULT:    -7.911      2.150      3.558
REMARK INTER + INTRA:         -12.246
REMARK INTER:                 -11.330
REMARK INTRA:                  -0.915
REMARK UNBOUND:                -1.097
REMARK  Name = 
REMARK  9 active torsions:
REMARK  status: ('A' for Active; 'I' for Inactive)
REMARK    1  A    between atoms: C_1  and  C_2
REMARK    2  A    between atoms: C_4  and  O_5
REMARK    3  A    between atoms: O_5  and  C_6
REMARK    4  A    between atoms: C_6  and  C_7
REMARK    5  A    between atoms: C_7  and  C_8
REMARK    6  A    between atoms: C_7  and  C_9
REMARK    7  A    between atoms: C_13  and  O_14
REMARK    8  A    between atoms: O_14  and  C_15
REMARK    9  A    between atoms: C_22  and  C_23
REMARK                            x       y       z     vdW  Elec       q    Type
REMARK                         _______ _______ _______ _____ _____    ______ ____
ROOT
ATOM      1  C   UNL     1      44.074   2.961  11.718  0.00  0.00    +0.000 C 
ENDROOT
BRANCH   1   2
ATOM      2  C   UNL     1      43.786   4.203  12.583  0.00  0.00    +0.000 C 
ATOM      3  C   UNL     1      42.734   5.113  11.940  0.00  0.00    +0.000 C 
BRANCH   2   4
ATOM      4  C   UNL     1      45.076   4.965  12.867  0.00  0.00    +0.000 A 
ATOM      5  C   UNL     1      46.019   4.494  13.793  0.00  0.00    +0.000 A 
ATOM      6  C   UNL     1      47.192   5.209  14.046  0.00  0.00    +0.000 A 
ATOM      7  C   UNL     1      47.441   6.412  13.385  0.00  0.00    +0.000 A 
ATOM      8  C   UNL     1      46.509   6.904  12.476  0.00  0.00    +0.000 A 
ATOM      9  C   UNL     1      45.341   6.176  12.209  0.00  0.00    +0.000 A 
BRANCH   8  10
ATOM     10  O   UNL     1      46.649   8.072  11.767  0.00  0.00    +0.000 OA
BRANCH  10  11
ATOM     11  C   UNL     1      47.439   9.139  12.342  0.00  0.00    +0.000 C 
ATOM     12  C   UNL     1      47.111  10.582  11.933  0.00  0.00    +0.000 C 
ATOM     13  O   UNL     1      48.485  10.834  11.546  0.00  0.00    +0.000 OA
ATOM     14  C   UNL     1      48.778   9.419  11.642  0.00  0.00    +0.000 C 
ENDBRANCH  10  11
ENDBRANCH   8  10
ENDBRANCH   2   4
ENDBRANCH   1   2
BRANCH   1  15
ATOM     15  O   UNL     1      43.592   3.133  10.379  0.00  0.00    +0.000 OA
BRANCH  15  19
ATOM     16  C   UNL     1      46.654   0.271   7.727  0.00  0.00    +0.000 C 
ATOM     17  C   UNL     1      46.068   1.628   8.016  0.00  0.00    +0.000 A 
ATOM     18  C   UNL     1      45.122   1.730   9.055  0.00  0.00    +0.000 A 
ATOM     19  C   UNL     1      44.521   2.946   9.385  0.00  0.00    +0.000 A 
ATOM     20  C   UNL     1      44.877   4.086   8.664  0.00  0.00    +0.000 A 
ATOM     21  C   UNL     1      45.816   4.008   7.628  0.00  0.00    +0.000 A 
ATOM     22  C   UNL     1      46.414   2.782   7.288  0.00  0.00    +0.000 A 
BRANCH  22  23
ATOM     23  C   UNL     1      47.421   2.729   6.181  0.00  0.00    +0.000 C 
ATOM     24  N   UNL     1      48.732   2.547   6.531  0.00  0.00    +0.000 N 
ATOM     25  O   UNL     1      47.123   2.862   5.002  0.00  0.00    +0.000 OA
ATOM     26  H   UNL     1      49.071   2.627   7.478  0.00  0.00    +0.000 HD
ATOM     27  H   UNL     1      49.407   2.607   5.779  0.00  0.00    +0.000 HD
ENDBRANCH  22  23
ENDBRANCH  15  19
ENDBRANCH   1  15
TORSDOF 7
ENDMDL
MODEL 3
REMARK VINA RESULT:    -7.242      2.788      8.096
REMARK INTER + INTRA:         -11.303
REMARK INTER:                 -10.302
REMARK INTRA:                  -1.000
REMARK UNBOUND:                -1.097
REMARK  Name = 
REMARK  9 active torsions:
REMARK  status: ('A' for Active; 'I' for Inactive)
REMARK    1  A    between atoms: C_1  and  C_2
REMARK    2  A    between atoms: C_4  and  O_5
REMARK    3  A    between atoms: O_5  and  C_6
REMARK    4  A    between atoms: C_6  and  C_7
REMARK    5  A    between atoms: C_7  and  C_8
REMARK    6  A    between atoms: C_7  and  C_9
REMARK    7  A    between atoms: C_13  and  O_14
REMARK    8  A    between atoms: O_14  and  C_15
REMARK    9  A    between atoms: C_22  and  C_23
REMARK                            x       y       z     vdW  Elec       q    Type
REMARK                         _______ _______ _______ _____ _____    ______ ____
ROOT
ATOM      1  C   UNL     1      46.967   6.290  11.620  0.00  0.00    +0.000 C 
ENDROOT
BRANCH   1   2
ATOM      2  C   UNL     1      45.649   6.417  10.832  0.00  0.00    +0.000 C 
ATOM      3  C   UNL     1      44.524   6.997  11.695  0.00  0.00    +0.000 C 
BRANCH   2   4
ATOM      4  C   UNL     1      45.252   5.071  10.237  0.00  0.00    +0.000 A 
ATOM      5  C   UNL     1      44.523   4.128  10.978  0.00  0.00    +0.000 A 
ATOM      6  C   UNL     1      44.173   2.895  10.420  0.00  0.00    +0.000 A 
ATOM      7  C   UNL     1      44.553   2.579   9.115  0.00  0.00    +0.000 A 
ATOM      8  C   UNL     1      45.292   3.495   8.371  0.00  0.00    +0.000 A 
ATOM      9  C   UNL     1      45.626   4.739   8.925  0.00  0.00    +0.000 A 
BRANCH   8  10
ATOM     10  O   UNL     1      45.716   3.293   7.081  0.00  0.00    +0.000 OA
BRANCH  10  11
ATOM     11  C   UNL     1      47.120   3.035   6.846  0.00  0.00    +0.000 C 
ATOM     12  C   UNL     1      47.564   2.690   5.418  0.00  0.00    +0.000 C 
ATOM     13  O   UNL     1      48.220   1.478   5.864  0.00  0.00    +0.000 OA
ATOM     14  C   UNL     1      47.588   1.606   7.161  0.00  0.00    +0.000 C 
ENDBRANCH  10  11
ENDBRANCH   8  10
ENDBRANCH   2   4
ENDBRANCH   1   2
BRANCH   1  15
ATOM     15  O   UNL     1      46.845   6.845  12.936  0.00  0.00    +0.000 OA
BRANCH  15  19
ATOM     16  C   UNL     1      49.332   5.877  17.117  0.00  0.00    +0.000 C 
ATOM     17  C   UNL     1      48.391   5.426  16.031  0.00  0.00    +0.000 A 
ATOM     18  C   UNL     1      48.075   6.343  15.009  0.00  0.00    +0.000 A 
ATOM     19  C   UNL     1      47.206   6.013  13.968  0.00  0.00    +0.000 A 
ATOM     20  C   UNL     1      46.643   4.737  13.944  0.00  0.00    +0.000 A 
ATOM     21  C   UNL     1      46.943   3.809  14.949  0.00  0.00    +0.000 A 
ATOM     22  C   UNL     1      47.810   4.144  16.004  0.00  0.00    +0.000 A 
BRANCH  22  23
ATOM     23  C   UNL     1      48.120   3.129  17.061  0.00  0.00    +0.000 C 
ATOM     24  N   UNL     1      47.161   2.891  18.007  0.00  0.00    +0.000 N 
ATOM     25  O   UNL     1      49.189   2.534  17.119  0.00  0.00    +0.000 OA
ATOM     26  H   UNL     1      46.350   3.477  18.136  0.00  0.00    +0.000 HD
ATOM     27  H   UNL     1      47.424   2.272  18.764  0.00  0.00    +0.000 HD
ENDBRANCH  22  23
ENDBRANCH  15  19
ENDBRANCH   1  15
TORSDOF 7
ENDMDL
MODEL 4
REMARK VINA RESULT:    -6.605      2.559      2.753
REMARK INTER + INTRA:         -10.406
REMARK INTER:                  -9.452
REMARK INTRA:                  -0.954
REMARK UNBOUND:                -1.097
REMARK  Name = 
REMARK  9 active torsions:
REMARK  status: ('A' for Active; 'I' for Inactive)
REMARK    1  A    between atoms: C_1  and  C_2
REMARK    2  A    between atoms: C_4  and  O_5
REMARK    3  A    between atoms: O_5  and  C_6
REMARK    4  A    between atoms: C_6  and  C_7
REMARK    5  A    between atoms: C_7  and  C_8
REMARK    6  A    between atoms: C_7  and  C_9
REMARK    7  A    between atoms: C_13  and  O_14
REMARK    8  A    between atoms: O_14  and  C_15
REMARK    9  A    between atoms: C_22  and  C_23
REMARK                            x       y       z     vdW  Elec       q    Type
REMARK                         _______ _______ _______ _____ _____    ______ ____
ROOT
ATOM      1  C   UNL     1      45.010   4.287  11.873  0.00  0.00    +0.000 C 
ENDROOT
BRANCH   1   2
ATOM      2  C   UNL     1      44.687   5.729  12.309  0.00  0.00    +0.000 C 
ATOM      3  C   UNL     1      43.581   6.349  11.447  0.00  0.00    +0.000 C 
BRANCH   2   4
ATOM      4  C   UNL     1      45.948   6.586  12.289  0.00  0.00    +0.000 A 
ATOM      5  C   UNL     1      46.885   6.490  11.249  0.00  0.00    +0.000 A 
ATOM      6  C   UNL     1      48.039   7.277  11.251  0.00  0.00    +0.000 A 
ATOM      7  C   UNL     1      48.283   8.169  12.296  0.00  0.00    +0.000 A 
ATOM      8  C   UNL     1      47.373   8.265  13.346  0.00  0.00    +0.000 A 
ATOM      9  C   UNL     1      46.206   7.489  13.333  0.00  0.00    +0.000 A 
BRANCH   8  10
ATOM     10  O   UNL     1      47.507   9.108  14.422  0.00  0.00    +0.000 OA
BRANCH  10  11
ATOM     11  C   UNL     1      48.288   8.664  15.555  0.00  0.00    +0.000 C 
ATOM     12  C   UNL     1      48.181   9.458  16.865  0.00  0.00    +0.000 C 
ATOM     13  O   UNL     1      49.618   9.625  16.936  0.00  0.00    +0.000 OA
ATOM     14  C   UNL     1      49.748   9.142  15.577  0.00  0.00    +0.000 C 
ENDBRANCH  10  11
ENDBRANCH   8  10
ENDBRANCH   2   4
ENDBRANCH   1   2
BRANCH   1  15
ATOM     15  O   UNL     1      44.271   3.916  10.701  0.00  0.00    +0.000 OA
BRANCH  15  19
ATOM     16  C   UNL     1      46.448   0.491   7.850  0.00  0.00    +0.000 C 
ATOM     17  C   UNL     1      46.144   1.937   8.142  0.00  0.00    +0.000 A 
ATOM     18  C   UNL     1      45.363   2.231   9.277  0.00  0.00    +0.000 A 
ATOM     19  C   UNL     1      45.026   3.543   9.617  0.00  0.00    +0.000 A 
ATOM     20  C   UNL     1      45.484   4.583   8.809  0.00  0.00    +0.000 A 
ATOM     21  C   UNL     1      46.262   4.314   7.675  0.00  0.00    +0.000 A 
ATOM     22  C   UNL     1      46.593   2.993   7.326  0.00  0.00    +0.000 A 
BRANCH  22  23
ATOM     23  C   UNL     1      47.435   2.734   6.114  0.00  0.00    +0.000 C 
ATOM     24  N   UNL     1      48.779   2.568   6.305  0.00  0.00    +0.000 N 
ATOM     25  O   UNL     1      46.974   2.691   4.981  0.00  0.00    +0.000 OA
ATOM     26  H   UNL     1      49.249   2.784   7.171  0.00  0.00    +0.000 HD
ATOM     27  H   UNL     1      49.343   2.487   5.468  0.00  0.00    +0.000 HD
ENDBRANCH  22  23
ENDBRANCH  15  19
ENDBRANCH   1  15
TORSDOF 7
ENDMDL
MODEL 5
REMARK VINA RESULT:    -6.590      3.149      8.013
REMARK INTER + INTRA:         -10.383
REMARK INTER:                  -9.740
REMARK INTRA:                  -0.643
REMARK UNBOUND:                -1.097
REMARK  Name = 
REMARK  9 active torsions:
REMARK  status: ('A' for Active; 'I' for Inactive)
REMARK    1  A    between atoms: C_1  and  C_2
REMARK    2  A    between atoms: C_4  and  O_5
REMARK    3  A    between atoms: O_5  and  C_6
REMARK    4  A    between atoms: C_6  and  C_7
REMARK    5  A    between atoms: C_7  and  C_8
REMARK    6  A    between atoms: C_7  and  C_9
REMARK    7  A    between atoms: C_13  and  O_14
REMARK    8  A    between atoms: O_14  and  C_15
REMARK    9  A    between atoms: C_22  and  C_23
REMARK                            x       y       z     vdW  Elec       q    Type
REMARK                         _______ _______ _______ _____ _____    ______ ____
ROOT
ATOM      1  C   UNL     1      46.332   6.616  11.417  0.00  0.00    +0.000 C 
ENDROOT
BRANCH   1   2
ATOM      2  C   UNL     1      44.896   6.067  11.313  0.00  0.00    +0.000 C 
ATOM      3  C   UNL     1      44.295   5.781  12.694  0.00  0.00    +0.000 C 
BRANCH   2   4
ATOM      4  C   UNL     1      44.862   4.826  10.429  0.00  0.00    +0.000 A 
ATOM      5  C   UNL     1      44.180   3.664  10.820  0.00  0.00    +0.000 A 
ATOM      6  C   UNL     1      44.166   2.532  10.000  0.00  0.00    +0.000 A 
ATOM      7  C   UNL     1      44.840   2.538   8.779  0.00  0.00    +0.000 A 
ATOM      8  C   UNL     1      45.538   3.676   8.382  0.00  0.00    +0.000 A 
ATOM      9  C   UNL     1      45.535   4.817   9.196  0.00  0.00    +0.000 A 
BRANCH   8  10
ATOM     10  O   UNL     1      46.232   3.796   7.203  0.00  0.00    +0.000 OA
BRANCH  10  11
ATOM     11  C   UNL     1      46.543   2.595   6.459  0.00  0.00    +0.000 C 
ATOM     12  C   UNL     1      47.602   1.643   7.033  0.00  0.00    +0.000 C 
ATOM     13  O   UNL     1      48.359   1.664   5.798  0.00  0.00    +0.000 OA
ATOM     14  C   UNL     1      47.558   2.772   5.319  0.00  0.00    +0.000 C 
ENDBRANCH  10  11
ENDBRANCH   8  10
ENDBRANCH   2   4
ENDBRANCH   1   2
BRANCH   1  15
ATOM     15  O   UNL     1      46.862   6.449  12.739  0.00  0.00    +0.000 OA
BRANCH  15  19
ATOM     16  C   UNL     1      50.729   7.523  15.653  0.00  0.00    +0.000 C 
ATOM     17  C   UNL     1      50.068   7.571  14.301  0.00  0.00    +0.000 A 
ATOM     18  C   UNL     1      48.788   6.996  14.170  0.00  0.00    +0.000 A 
ATOM     19  C   UNL     1      48.107   6.988  12.952  0.00  0.00    +0.000 A 
ATOM     20  C   UNL     1      48.715   7.571  11.841  0.00  0.00    +0.000 A 
ATOM     21  C   UNL     1      49.986   8.150  11.947  0.00  0.00    +0.000 A 
ATOM     22  C   UNL     1      50.678   8.149  13.171  0.00  0.00    +0.000 A 
BRANCH  22  23
ATOM     23  C   UNL     1      52.032   8.783  13.259  0.00  0.00    +0.000 C 
ATOM     24  N   UNL     1      53.117   7.988  13.006  0.00  0.00    +0.000 N 
ATOM     25  O   UNL     1      52.199   9.956  13.564  0.00  0.00    +0.000 OA
ATOM     26  H   UNL     1      53.067   6.982  12.944  0.00  0.00    +0.000 HD
ATOM     27  H   UNL     1      54.025   8.409  13.160  0.00  0.00    +0.000 HD
ENDBRANCH  22  23
ENDBRANCH  15  19
ENDBRANCH   1  15
TORSDOF 7
ENDMDL
MODEL 6
REMARK VINA RESULT:    -6.533      3.374      7.809
REMARK INTER + INTRA:         -10.303
REMARK INTER:                  -9.502
REMARK INTRA:                  -0.801
REMARK UNBOUND:                -1.097
REMARK  Name = 
REMARK  9 active torsions:
REMARK  status: ('A' for Active; 'I' for Inactive)
REMARK    1  A    between atoms: C_1  and  C_2
REMARK    2  A    between atoms: C_4  and  O_5
REMARK    3  A    between atoms: O_5  and  C_6
REMARK    4  A    between atoms: C_6  and  C_7
REMARK    5  A    between atoms: C_7  and  C_8
REMARK    6  A    between atoms: C_7  and  C_9
REMARK    7  A    between atoms: C_13  and  O_14
REMARK    8  A    between atoms: O_14  and  C_15
REMARK    9  A    between atoms: C_22  and  C_23
REMARK                            x       y       z     vdW  Elec       q    Type
REMARK                         _______ _______ _______ _____ _____    ______ ____
ROOT
ATOM      1  C   UNL     1      46.364   5.827  12.441  0.00  0.00    +0.000 C 
ENDROOT
BRANCH   1   2
ATOM      2  C   UNL     1      45.566   6.215  11.181  0.00  0.00    +0.000 C 
ATOM      3  C   UNL     1      44.311   7.023  11.530  0.00  0.00    +0.000 C 
BRANCH   2   4
ATOM      4  C   UNL     1      45.215   4.973  10.370  0.00  0.00    +0.000 A 
ATOM      5  C   UNL     1      44.462   3.925  10.920  0.00  0.00    +0.000 A 
ATOM      6  C   UNL     1      44.156   2.790  10.163  0.00  0.00    +0.000 A 
ATOM      7  C   UNL     1      44.605   2.678   8.847  0.00  0.00    +0.000 A 
ATOM      8  C   UNL     1      45.369   3.700   8.290  0.00  0.00    +0.000 A 
ATOM      9  C   UNL     1      45.659   4.847   9.043  0.00  0.00    +0.000 A 
BRANCH   8  10
ATOM     10  O   UNL     1      45.860   3.700   7.008  0.00  0.00    +0.000 OA
BRANCH  10  11
ATOM     11  C   UNL     1      46.388   2.465   6.471  0.00  0.00    +0.000 C 
ATOM     12  C   UNL     1      47.540   1.782   7.223  0.00  0.00    +0.000 C 
ATOM     13  O   UNL     1      48.356   1.737   6.027  0.00  0.00    +0.000 OA
ATOM     14  C   UNL     1      47.431   2.625   5.354  0.00  0.00    +0.000 C 
ENDBRANCH  10  11
ENDBRANCH   8  10
ENDBRANCH   2   4
ENDBRANCH   1   2
BRANCH   1  15
ATOM     15  O   UNL     1      46.673   6.977  13.240  0.00  0.00    +0.000 OA
BRANCH  15  19
ATOM     16  C   UNL     1      51.014   7.799  10.986  0.00  0.00    +0.000 C 
ATOM     17  C   UNL     1      49.761   8.334  11.629  0.00  0.00    +0.000 A 
ATOM     18  C   UNL     1      48.827   7.406  12.128  0.00  0.00    +0.000 A 
ATOM     19  C   UNL     1      47.635   7.814  12.730  0.00  0.00    +0.000 A 
ATOM     20  C   UNL     1      47.374   9.179  12.841  0.00  0.00    +0.000 A 
ATOM     21  C   UNL     1      48.289  10.121  12.353  0.00  0.00    +0.000 A 
ATOM     22  C   UNL     1      49.485   9.710  11.736  0.00  0.00    +0.000 A 
BRANCH  22  23
ATOM     23  C   UNL     1      50.450  10.738  11.231  0.00  0.00    +0.000 C 
ATOM     24  N   UNL     1      50.191  11.299  10.010  0.00  0.00    +0.000 N 
ATOM     25  O   UNL     1      51.453  11.070  11.849  0.00  0.00    +0.000 OA
ATOM     26  H   UNL     1      49.504  10.937   9.365  0.00  0.00    +0.000 HD
ATOM     27  H   UNL     1      50.902  11.921   9.645  0.00  0.00    +0.000 HD
ENDBRANCH  22  23
ENDBRANCH  15  19
ENDBRANCH   1  15
TORSDOF 7
ENDMDL
MODEL 7
REMARK VINA RESULT:    -6.399      3.000      8.510
REMARK INTER + INTRA:         -10.115
REMARK INTER:                  -9.349
REMARK INTRA:                  -0.766
REMARK UNBOUND:                -1.097
REMARK  Name = 
REMARK  9 active torsions:
REMARK  status: ('A' for Active; 'I' for Inactive)
REMARK    1  A    between atoms: C_1  and  C_2
REMARK    2  A    between atoms: C_4  and  O_5
REMARK    3  A    between atoms: O_5  and  C_6
REMARK    4  A    between atoms: C_6  and  C_7
REMARK    5  A    between atoms: C_7  and  C_8
REMARK    6  A    between atoms: C_7  and  C_9
REMARK    7  A    between atoms: C_13  and  O_14
REMARK    8  A    between atoms: O_14  and  C_15
REMARK    9  A    between atoms: C_22  and  C_23
REMARK                            x       y       z     vdW  Elec       q    Type
REMARK                         _______ _______ _______ _____ _____    ______ ____
ROOT
ATOM      1  C   UNL     1      47.543   6.067  12.721  0.00  0.00    +0.000 C 
ENDROOT
BRANCH   1   2
ATOM      2  C   UNL     1      46.490   6.730  11.812  0.00  0.00    +0.000 C 
ATOM      3  C   UNL     1      45.651   7.763  12.573  0.00  0.00    +0.000 C 
BRANCH   2   4
ATOM      4  C   UNL     1      45.606   5.672  11.161  0.00  0.00    +0.000 A 
ATOM      5  C   UNL     1      44.619   4.990  11.890  0.00  0.00    +0.000 A 
ATOM      6  C   UNL     1      43.823   4.018  11.279  0.00  0.00    +0.000 A 
ATOM      7  C   UNL     1      44.003   3.703   9.932  0.00  0.00    +0.000 A 
ATOM      8  C   UNL     1      44.989   4.356   9.197  0.00  0.00    +0.000 A 
ATOM      9  C   UNL     1      45.774   5.345   9.806  0.00  0.00    +0.000 A 
BRANCH   8  10
ATOM     10  O   UNL     1      45.252   4.131   7.869  0.00  0.00    +0.000 OA
BRANCH  10  11
ATOM     11  C   UNL     1      46.488   3.469   7.512  0.00  0.00    +0.000 C 
ATOM     12  C   UNL     1      46.702   3.080   6.042  0.00  0.00    +0.000 C 
ATOM     13  O   UNL     1      46.982   1.704   6.398  0.00  0.00    +0.000 OA
ATOM     14  C   UNL     1      46.513   1.951   7.746  0.00  0.00    +0.000 C 
ENDBRANCH  10  11
ENDBRANCH   8  10
ENDBRANCH   2   4
ENDBRANCH   1   2
BRANCH   1  15
ATOM     15  O   UNL     1      47.845   6.888  13.857  0.00  0.00    +0.000 OA
BRANCH  15  19
ATOM     16  C   UNL     1      47.276   3.216  17.142  0.00  0.00    +0.000 C 
ATOM     17  C   UNL     1      48.016   4.444  16.681  0.00  0.00    +0.000 A 
ATOM     18  C   UNL     1      47.576   5.076  15.502  0.00  0.00    +0.000 A 
ATOM     19  C   UNL     1      48.208   6.214  14.997  0.00  0.00    +0.000 A 
ATOM     20  C   UNL     1      49.302   6.735  15.688  0.00  0.00    +0.000 A 
ATOM     21  C   UNL     1      49.757   6.124  16.864  0.00  0.00    +0.000 A 
ATOM     22  C   UNL     1      49.127   4.971  17.367  0.00  0.00    +0.000 A 
BRANCH  22  23
ATOM     23  C   UNL     1      49.629   4.343  18.631  0.00  0.00    +0.000 C 
ATOM     24  N   UNL     1      50.761   3.579  18.548  0.00  0.00    +0.000 N 
ATOM     25  O   UNL     1      49.061   4.470  19.708  0.00  0.00    +0.000 OA
ATOM     26  H   UNL     1      51.163   3.272  17.675  0.00  0.00    +0.000 HD
ATOM     27  H   UNL     1      51.031   3.088  19.392  0.00  0.00    +0.000 HD
ENDBRANCH  22  23
ENDBRANCH  15  19
ENDBRANCH   1  15
TORSDOF 7
ENDMDL
MODEL 8
REMARK VINA RESULT:    -6.177      4.290      6.211
REMARK INTER + INTRA:          -9.802
REMARK INTER:                  -8.879
REMARK INTRA:                  -0.924
REMARK UNBOUND:                -1.097
REMARK  Name = 
REMARK  9 active torsions:
REMARK  status: ('A' for Active; 'I' for Inactive)
REMARK    1  A    between atoms: C_1  and  C_2
REMARK    2  A    between atoms: C_4  and  O_5
REMARK    3  A    between atoms: O_5  and  C_6
REMARK    4  A    between atoms: C_6  and  C_7
REMARK    5  A    between atoms: C_7  and  C_8
REMARK    6  A    between atoms: C_7  and  C_9
REMARK    7  A    between atoms: C_13  and  O_14
REMARK    8  A    between atoms: O_14  and  C_15
REMARK    9  A    between atoms: C_22  and  C_23
REMARK                            x       y       z     vdW  Elec       q    Type
REMARK                         _______ _______ _______ _____ _____    ______ ____
ROOT
ATOM      1  C   UNL     1      49.169   7.565  13.457  0.00  0.00    +0.000 C 
ENDROOT
BRANCH   1   2
ATOM      2  C   UNL     1      48.907   7.873  14.944  0.00  0.00    +0.000 C 
ATOM      3  C   UNL     1      49.170   9.347  15.273  0.00  0.00    +0.000 C 
BRANCH   2   4
ATOM      4  C   UNL     1      49.736   6.953  15.833  0.00  0.00    +0.000 A 
ATOM      5  C   UNL     1      51.138   7.009  15.844  0.00  0.00    +0.000 A 
ATOM      6  C   UNL     1      51.882   6.152  16.660  0.00  0.00    +0.000 A 
ATOM      7  C   UNL     1      51.239   5.218  17.472  0.00  0.00    +0.000 A 
ATOM      8  C   UNL     1      49.849   5.134  17.460  0.00  0.00    +0.000 A 
ATOM      9  C   UNL     1      49.103   6.007  16.656  0.00  0.00    +0.000 A 
BRANCH   8  10
ATOM     10  O   UNL     1      49.112   4.258  18.218  0.00  0.00    +0.000 OA
BRANCH  10  11
ATOM     11  C   UNL     1      49.046   2.873  17.805  0.00  0.00    +0.000 C 
ATOM     12  C   UNL     1      50.245   2.286  17.046  0.00  0.00    +0.000 C 
ATOM     13  O   UNL     1      49.396   1.835  15.962  0.00  0.00    +0.000 OA
ATOM     14  C   UNL     1      48.295   2.614  16.490  0.00  0.00    +0.000 C 
ENDBRANCH  10  11
ENDBRANCH   8  10
ENDBRANCH   2   4
ENDBRANCH   1   2
BRANCH   1  15
ATOM     15  O   UNL     1      48.860   6.200  13.143  0.00  0.00    +0.000 OA
BRANCH  15  19
ATOM     16  C   UNL     1      44.311   7.231  11.457  0.00  0.00    +0.000 C 
ATOM     17  C   UNL     1      45.239   6.324  12.222  0.00  0.00    +0.000 A 
ATOM     18  C   UNL     1      46.594   6.697  12.320  0.00  0.00    +0.000 A 
ATOM     19  C   UNL     1      47.525   5.911  13.002  0.00  0.00    +0.000 A 
ATOM     20  C   UNL     1      47.092   4.730  13.604  0.00  0.00    +0.000 A 
ATOM     21  C   UNL     1      45.749   4.340  13.520  0.00  0.00    +0.000 A 
ATOM     22  C   UNL     1      44.813   5.124  12.824  0.00  0.00    +0.000 A 
BRANCH  22  23
ATOM     23  C   UNL     1      43.381   4.688  12.757  0.00  0.00    +0.000 C 
ATOM     24  N   UNL     1      43.019   3.874  11.719  0.00  0.00    +0.000 N 
ATOM     25  O   UNL     1      42.539   5.046  13.570  0.00  0.00    +0.000 OA
ATOM     26  H   UNL     1      43.604   3.703  10.915  0.00  0.00    +0.000 HD
ATOM     27  H   UNL     1      42.031   3.666  11.639  0.00  0.00    +0.000 HD
ENDBRANCH  22  23
ENDBRANCH  15  19
ENDBRANCH   1  15
TORSDOF 7
ENDMDL
MODEL 9
REMARK VINA RESULT:    -6.007      3.731      5.568
REMARK INTER + INTRA:          -9.562
REMARK INTER:                  -8.316
REMARK INTRA:                  -1.247
REMARK UNBOUND:                -1.097
REMARK  Name = 
REMARK  9 active torsions:
REMARK  status: ('A' for Active; 'I' for Inactive)
REMARK    1  A    between atoms: C_1  and  C_2
REMARK    2  A    between atoms: C_4  and  O_5
REMARK    3  A    between atoms: O_5  and  C_6
REMARK    4  A    between atoms: C_6  and  C_7
REMARK    5  A    between atoms: C_7  and  C_8
REMARK    6  A    between atoms: C_7  and  C_9
REMARK    7  A    between atoms: C_13  and  O_14
REMARK    8  A    between atoms: O_14  and  C_15
REMARK    9  A    between atoms: C_22  and  C_23
REMARK                            x       y       z     vdW  Elec       q    Type
REMARK                         _______ _______ _______ _____ _____    ______ ____
ROOT
ATOM      1  C   UNL     1      47.370   8.671  13.435  0.00  0.00    +0.000 C 
ENDROOT
BRANCH   1   2
ATOM      2  C   UNL     1      48.891   8.900  13.352  0.00  0.00    +0.000 C 
ATOM      3  C   UNL     1      49.441   8.568  11.960  0.00  0.00    +0.000 C 
BRANCH   2   4
ATOM      4  C   UNL     1      49.609   8.102  14.434  0.00  0.00    +0.000 A 
ATOM      5  C   UNL     1      51.010   8.058  14.507  0.00  0.00    +0.000 A 
ATOM      6  C   UNL     1      51.652   7.315  15.501  0.00  0.00    +0.000 A 
ATOM      7  C   UNL     1      50.907   6.596  16.436  0.00  0.00    +0.000 A 
ATOM      8  C   UNL     1      49.516   6.613  16.369  0.00  0.00    +0.000 A 
ATOM      9  C   UNL     1      48.873   7.374  15.382  0.00  0.00    +0.000 A 
BRANCH   8  10
ATOM     10  O   UNL     1      48.684   5.948  17.235  0.00  0.00    +0.000 OA
BRANCH  10  11
ATOM     11  C   UNL     1      48.411   4.548  16.993  0.00  0.00    +0.000 C 
ATOM     12  C   UNL     1      47.265   4.189  16.036  0.00  0.00    +0.000 C 
ATOM     13  O   UNL     1      46.644   3.332  17.026  0.00  0.00    +0.000 OA
ATOM     14  C   UNL     1      47.528   3.858  18.045  0.00  0.00    +0.000 C 
ENDBRANCH  10  11
ENDBRANCH   8  10
ENDBRANCH   2   4
ENDBRANCH   1   2
BRANCH   1  15
ATOM     15  O   UNL     1      46.826   8.301  12.160  0.00  0.00    +0.000 OA
BRANCH  15  19
ATOM     16  C   UNL     1      42.620   5.772  11.438  0.00  0.00    +0.000 C 
ATOM     17  C   UNL     1      44.078   5.789  11.816  0.00  0.00    +0.000 A 
ATOM     18  C   UNL     1      44.747   7.029  11.812  0.00  0.00    +0.000 A 
ATOM     19  C   UNL     1      46.100   7.135  12.141  0.00  0.00    +0.000 A 
ATOM     20  C   UNL     1      46.798   5.978  12.486  0.00  0.00    +0.000 A 
ATOM     21  C   UNL     1      46.153   4.735  12.498  0.00  0.00    +0.000 A 
ATOM     22  C   UNL     1      44.794   4.625  12.156  0.00  0.00    +0.000 A 
BRANCH  22  23
ATOM     23  C   UNL     1      44.127   3.284  12.186  0.00  0.00    +0.000 C 
ATOM     24  N   UNL     1      44.195   2.522  11.052  0.00  0.00    +0.000 N 
ATOM     25  O   UNL     1      43.517   2.866  13.161  0.00  0.00    +0.000 OA
ATOM     26  H   UNL     1      44.505   2.878  10.160  0.00  0.00    +0.000 HD
ATOM     27  H   UNL     1      43.661   1.661  11.059  0.00  0.00    +0.000 HD
ENDBRANCH  22  23
ENDBRANCH  15  19
ENDBRANCH   1  15
TORSDOF 7
ENDMDL
