MODEL 1
REMARK VINA RESULT:    -8.512      0.000      0.000
REMARK INTER + INTRA:         -12.453
REMARK INTER:                 -11.746
REMARK INTRA:                  -0.706
REMARK UNBOUND:                -0.706
REMARK  Name = 
REMARK  7 active torsions:
REMARK  status: ('A' for Active; 'I' for Inactive)
REMARK    1  A    between atoms: N_1  and  C_2
REMARK    2  A    between atoms: C_2  and  C_3
REMARK    3  A    between atoms: C_2  and  C_18
REMARK    4  A    between atoms: C_3  and  N_4
REMARK    5  A    between atoms: C_7  and  C_8
REMARK    6  A    between atoms: C_8  and  N_9
REMARK    7  A    between atoms: C_18  and  C_20
REMARK                            x       y       z     vdW  Elec       q    Type
REMARK                         _______ _______ _______ _____ _____    ______ ____
ROOT
ATOM      1  C   UNL     1      47.536   5.533  15.049  0.00  0.00    +0.000 C 
ENDROOT
BRANCH   1   2
ATOM      2  N   UNL     1      48.893   6.121  15.072  0.00  0.00    +0.000 NA
ATOM      3  H   UNL     1      48.894   6.946  15.669  0.00  0.00    +0.000 HD
ATOM      4  H   UNL     1      49.127   6.437  14.128  0.00  0.00    +0.000 HD
ENDBRANCH   1   2
BRANCH   1   5
ATOM      5  C   UNL     1      47.494   4.407  16.094  0.00  0.00    +0.000 C 
ATOM      6  O   UNL     1      47.211   3.256  15.764  0.00  0.00    +0.000 OA
BRANCH   5   7
ATOM      7  C   UNL     1      47.921   4.674  17.473  0.00  0.00    +0.000 A 
ATOM      8  C   UNL     1      47.189   5.360  18.423  0.00  0.00    +0.000 A 
ATOM      9  S   UNL     1      48.136   5.797  19.785  0.00  0.00    +0.000 S 
ATOM     10  C   UNL     1      49.511   5.012  19.153  0.00  0.00    +0.000 A 
ATOM     11  N   UNL     1      50.726   5.074  19.760  0.00  0.00    +0.000 NA
ATOM     12  C   UNL     1      51.654   4.416  19.144  0.00  0.00    +0.000 A 
ATOM     13  N   UNL     1      51.471   3.662  18.011  0.00  0.00    +0.000 N 
ATOM     14  C   UNL     1      50.238   3.483  17.433  0.00  0.00    +0.000 A 
ATOM     15  O   UNL     1      50.039   2.602  16.603  0.00  0.00    +0.000 OA
ATOM     16  C   UNL     1      49.212   4.338  17.990  0.00  0.00    +0.000 A 
ATOM     17  H   UNL     1      52.209   3.077  17.649  0.00  0.00    +0.000 HD
ENDBRANCH   5   7
ENDBRANCH   1   5
BRANCH   1  18
ATOM     18  C   UNL     1      47.096   4.920  13.678  0.00  0.00    +0.000 C 
BRANCH  18  19
ATOM     19  N   UNL     1      45.851   5.371  13.033  0.00  0.00    +0.000 NA
ATOM     20  C   UNL     1      46.038   5.802  11.652  0.00  0.00    +0.000 C 
ATOM     21  C   UNL     1      44.748   6.383  11.073  0.00  0.00    +0.000 C 
ATOM     22  C   UNL     1      43.580   5.394  11.185  0.00  0.00    +0.000 C 
ATOM     23  C   UNL     1      43.404   5.047  12.672  0.00  0.00    +0.000 C 
ATOM     24  C   UNL     1      44.698   4.515  13.290  0.00  0.00    +0.000 C 
BRANCH  22  25
ATOM     25  C   UNL     1      43.779   4.118  10.342  0.00  0.00    +0.000 C 
BRANCH  25  26
ATOM     26  N   UNL     1      44.122   4.442   8.969  0.00  0.00    +0.000 N 
ATOM     27  C   UNL     1      45.083   3.597   8.423  0.00  0.00    +0.000 A 
ATOM     28  N   UNL     1      45.151   2.313   8.807  0.00  0.00    +0.000 NA
ATOM     29  C   UNL     1      46.107   1.555   8.244  0.00  0.00    +0.000 A 
ATOM     30  C   UNL     1      47.003   2.031   7.320  0.00  0.00    +0.000 A 
ATOM     31  C   UNL     1      46.860   3.358   7.002  0.00  0.00    +0.000 A 
ATOM     32  N   UNL     1      45.921   4.158   7.543  0.00  0.00    +0.000 NA
ATOM     33  H   UNL     1      44.471   5.379   8.795  0.00  0.00    +0.000 HD
ENDBRANCH  25  26
ENDBRANCH  22  25
ENDBRANCH  18  19
ENDBRANCH   1  18
TORSDOF 7
ENDMDL
MODEL 2
REMARK VINA RESULT:    -8.197      1.862      2.627
REMARK INTER + INTRA:         -12.017
REMARK INTER:                 -11.243
REMARK INTRA:                  -0.775
REMARK UNBOUND:                -0.706
REMARK  Name = 
REMARK  7 active torsions:
REMARK  status: ('A' for Active; 'I' for Inactive)
REMARK    1  A    between atoms: N_1  and  C_2
REMARK    2  A    between atoms: C_2  and  C_3
REMARK    3  A    between atoms: C_2  and  C_18
REMARK    4  A    between atoms: C_3  and  N_4
REMARK    5  A    between atoms: C_7  and  C_8
REMARK    6  A    between atoms: C_8  and  N_9
REMARK    7  A    between atoms: C_18  and  C_20
REMARK                            x       y       z     vdW  Elec       q    Type
REMARK                         _______ _______ _______ _____ _____    ______ ____
ROOT
ATOM      1  C   UNL     1      46.862   7.407  13.720  0.00  0.00    +0.000 C 
ENDROOT
BRANCH   1   2
ATOM      2  N   UNL     1      47.136   8.859  13.764  0.00  0.00    +0.000 NA
ATOM      3  H   UNL     1      47.629   9.136  12.917  0.00  0.00    +0.000 HD
ATOM      4  H   UNL     1      47.764   9.049  14.548  0.00  0.00    +0.000 HD
ENDBRANCH   1   2
BRANCH   1   5
ATOM      5  C   UNL     1      48.174   6.672  14.041  0.00  0.00    +0.000 C 
ATOM      6  O   UNL     1      48.901   6.265  13.137  0.00  0.00    +0.000 OA
BRANCH   5   7
ATOM      7  C   UNL     1      48.631   6.568  15.432  0.00  0.00    +0.000 A 
ATOM      8  C   UNL     1      49.387   7.510  16.103  0.00  0.00    +0.000 A 
ATOM      9  S   UNL     1      50.040   6.900  17.568  0.00  0.00    +0.000 S 
ATOM     10  C   UNL     1      49.260   5.399  17.357  0.00  0.00    +0.000 A 
ATOM     11  N   UNL     1      49.462   4.351  18.199  0.00  0.00    +0.000 NA
ATOM     12  C   UNL     1      48.785   3.292  17.890  0.00  0.00    +0.000 A 
ATOM     13  N   UNL     1      47.889   3.200  16.854  0.00  0.00    +0.000 N 
ATOM     14  C   UNL     1      47.573   4.269  16.051  0.00  0.00    +0.000 A 
ATOM     15  O   UNL     1      46.588   4.256  15.322  0.00  0.00    +0.000 OA
ATOM     16  C   UNL     1      48.433   5.416  16.255  0.00  0.00    +0.000 A 
ATOM     17  H   UNL     1      47.306   2.385  16.740  0.00  0.00    +0.000 HD
ENDBRANCH   5   7
ENDBRANCH   1   5
BRANCH   1  18
ATOM     18  C   UNL     1      46.343   6.864  12.347  0.00  0.00    +0.000 C 
BRANCH  18  19
ATOM     19  N   UNL     1      45.243   5.885  12.308  0.00  0.00    +0.000 NA
ATOM     20  C   UNL     1      44.194   6.230  11.354  0.00  0.00    +0.000 C 
ATOM     21  C   UNL     1      43.018   5.258  11.447  0.00  0.00    +0.000 C 
ATOM     22  C   UNL     1      43.470   3.803  11.262  0.00  0.00    +0.000 C 
ATOM     23  C   UNL     1      44.519   3.499  12.344  0.00  0.00    +0.000 C 
ATOM     24  C   UNL     1      45.680   4.493  12.308  0.00  0.00    +0.000 C 
BRANCH  22  25
ATOM     25  C   UNL     1      44.032   3.515   9.855  0.00  0.00    +0.000 C 
BRANCH  25  26
ATOM     26  N   UNL     1      44.976   2.412   9.882  0.00  0.00    +0.000 N 
ATOM     27  C   UNL     1      45.761   2.326   8.736  0.00  0.00    +0.000 A 
ATOM     28  N   UNL     1      46.104   3.437   8.067  0.00  0.00    +0.000 NA
ATOM     29  C   UNL     1      46.859   3.281   6.965  0.00  0.00    +0.000 A 
ATOM     30  C   UNL     1      47.277   2.060   6.503  0.00  0.00    +0.000 A 
ATOM     31  C   UNL     1      46.866   0.983   7.249  0.00  0.00    +0.000 A 
ATOM     32  N   UNL     1      46.106   1.090   8.357  0.00  0.00    +0.000 NA
ATOM     33  H   UNL     1      44.588   1.482  10.001  0.00  0.00    +0.000 HD
ENDBRANCH  25  26
ENDBRANCH  22  25
ENDBRANCH  18  19
ENDBRANCH   1  18
TORSDOF 7
ENDMDL
MODEL 3
REMARK VINA RESULT:    -7.862      2.021      2.479
REMARK INTER + INTRA:         -11.556
REMARK INTER:                 -10.679
REMARK INTRA:                  -0.877
REMARK UNBOUND:                -0.706
REMARK  Name = 
REMARK  7 active torsions:
REMARK  status: ('A' for Active; 'I' for Inactive)
REMARK    1  A    between atoms: N_1  and  C_2
REMARK    2  A    between atoms: C_2  and  C_3
REMARK    3  A    between atoms: C_2  and  C_18
REMARK    4  A    between atoms: C_3  and  N_4
REMARK    5  A    between atoms: C_7  and  C_8
REMARK    6  A    between atoms: C_8  and  N_9
REMARK    7  A    between atoms: C_18  and  C_20
REMARK                            x       y       z     vdW  Elec       q    Type
REMARK                         _______ _______ _______ _____ _____    ______ ____
ROOT
ATOM      1  C   UNL     1      48.647   6.966  14.230  0.00  0.00    +0.000 C 
ENDROOT
BRANCH   1   2
ATOM      2  N   UNL     1      49.825   7.105  13.346  0.00  0.00    +0.000 NA
ATOM      3  H   UNL     1      49.958   6.242  12.822  0.00  0.00    +0.000 HD
ATOM      4  H   UNL     1      50.656   7.229  13.929  0.00  0.00    +0.000 HD
ENDBRANCH   1   2
BRANCH   1   5
ATOM      5  C   UNL     1      49.160   6.725  15.660  0.00  0.00    +0.000 C 
ATOM      6  O   UNL     1      50.124   5.989  15.864  0.00  0.00    +0.000 OA
BRANCH   5   7
ATOM      7  C   UNL     1      48.581   7.478  16.779  0.00  0.00    +0.000 A 
ATOM      8  C   UNL     1      48.576   8.854  16.907  0.00  0.00    +0.000 A 
ATOM      9  S   UNL     1      48.154   9.361  18.490  0.00  0.00    +0.000 S 
ATOM     10  C   UNL     1      47.903   7.754  19.000  0.00  0.00    +0.000 A 
ATOM     11  N   UNL     1      47.617   7.437  20.290  0.00  0.00    +0.000 NA
ATOM     12  C   UNL     1      47.453   6.170  20.496  0.00  0.00    +0.000 A 
ATOM     13  N   UNL     1      47.496   5.199  19.526  0.00  0.00    +0.000 N 
ATOM     14  C   UNL     1      47.669   5.490  18.195  0.00  0.00    +0.000 A 
ATOM     15  O   UNL     1      47.432   4.664  17.321  0.00  0.00    +0.000 OA
ATOM     16  C   UNL     1      48.026   6.871  17.950  0.00  0.00    +0.000 A 
ATOM     17  H   UNL     1      47.242   4.245  19.732  0.00  0.00    +0.000 HD
ENDBRANCH   5   7
ENDBRANCH   1   5
BRANCH   1  18
ATOM     18  C   UNL     1      47.678   5.791  13.874  0.00  0.00    +0.000 C 
BRANCH  18  19
ATOM     19  N   UNL     1      46.374   6.073  13.250  0.00  0.00    +0.000 NA
ATOM     20  C   UNL     1      46.475   6.463  11.847  0.00  0.00    +0.000 C 
ATOM     21  C   UNL     1      45.114   6.872  11.285  0.00  0.00    +0.000 C 
ATOM     22  C   UNL     1      44.068   5.764  11.471  0.00  0.00    +0.000 C 
ATOM     23  C   UNL     1      43.971   5.462  12.975  0.00  0.00    +0.000 C 
ATOM     24  C   UNL     1      45.332   5.105  13.574  0.00  0.00    +0.000 C 
BRANCH  22  25
ATOM     25  C   UNL     1      44.388   4.484  10.673  0.00  0.00    +0.000 C 
BRANCH  25  26
ATOM     26  N   UNL     1      44.572   4.775   9.263  0.00  0.00    +0.000 N 
ATOM     27  C   UNL     1      45.326   3.817   8.592  0.00  0.00    +0.000 A 
ATOM     28  N   UNL     1      45.277   2.531   8.972  0.00  0.00    +0.000 NA
ATOM     29  C   UNL     1      46.035   1.659   8.285  0.00  0.00    +0.000 A 
ATOM     30  C   UNL     1      46.845   2.023   7.239  0.00  0.00    +0.000 A 
ATOM     31  C   UNL     1      46.835   3.361   6.934  0.00  0.00    +0.000 A 
ATOM     32  N   UNL     1      46.096   4.272   7.597  0.00  0.00    +0.000 NA
ATOM     33  H   UNL     1      45.013   5.660   9.033  0.00  0.00    +0.000 HD
ENDBRANCH  25  26
ENDBRANCH  22  25
ENDBRANCH  18  19
ENDBRANCH   1  18
TORSDOF 7
ENDMDL
MODEL 4
REMARK VINA RESULT:    -7.575      2.393      2.522
REMARK INTER + INTRA:         -11.160
REMARK INTER:                 -10.252
REMARK INTRA:                  -0.908
REMARK UNBOUND:                -0.706
REMARK  Name = 
REMARK  7 active torsions:
REMARK  status: ('A' for Active; 'I' for Inactive)
REMARK    1  A    between atoms: N_1  and  C_2
REMARK    2  A    between atoms: C_2  and  C_3
REMARK    3  A    between atoms: C_2  and  C_18
REMARK    4  A    between atoms: C_3  and  N_4
REMARK    5  A    between atoms: C_7  and  C_8
REMARK    6  A    between atoms: C_8  and  N_9
REMARK    7  A    between atoms: C_18  and  C_20
REMARK                            x       y       z     vdW  Elec       q    Type
REMARK                         _______ _______ _______ _____ _____    ______ ____
ROOT
ATOM      1  C   UNL     1      48.090   6.952  13.420  0.00  0.00    +0.000 C 
ENDROOT
BRANCH   1   2
ATOM      2  N   UNL     1      49.358   6.562  12.766  0.00  0.00    +0.000 NA
ATOM      3  H   UNL     1      49.686   5.683  13.161  0.00  0.00    +0.000 HD
ATOM      4  H   UNL     1      50.066   7.268  12.983  0.00  0.00    +0.000 HD
ENDBRANCH   1   2
BRANCH   1   5
ATOM      5  C   UNL     1      48.429   7.470  14.828  0.00  0.00    +0.000 C 
ATOM      6  O   UNL     1      48.032   8.573  15.201  0.00  0.00    +0.000 OA
BRANCH   5   7
ATOM      7  C   UNL     1      49.117   6.594  15.783  0.00  0.00    +0.000 A 
ATOM      8  C   UNL     1      48.524   5.596  16.531  0.00  0.00    +0.000 A 
ATOM      9  S   UNL     1      49.543   5.033  17.792  0.00  0.00    +0.000 S 
ATOM     10  C   UNL     1      50.810   6.063  17.306  0.00  0.00    +0.000 A 
ATOM     11  N   UNL     1      51.966   6.177  18.013  0.00  0.00    +0.000 NA
ATOM     12  C   UNL     1      52.819   7.001  17.495  0.00  0.00    +0.000 A 
ATOM     13  N   UNL     1      52.647   7.680  16.314  0.00  0.00    +0.000 N 
ATOM     14  C   UNL     1      51.543   7.506  15.515  0.00  0.00    +0.000 A 
ATOM     15  O   UNL     1      51.525   7.894  14.352  0.00  0.00    +0.000 OA
ATOM     16  C   UNL     1      50.496   6.729  16.141  0.00  0.00    +0.000 A 
ATOM     17  H   UNL     1      53.398   8.215  15.905  0.00  0.00    +0.000 HD
ENDBRANCH   5   7
ENDBRANCH   1   5
BRANCH   1  18
ATOM     18  C   UNL     1      47.040   5.803  13.582  0.00  0.00    +0.000 C 
BRANCH  18  19
ATOM     19  N   UNL     1      45.717   5.917  12.946  0.00  0.00    +0.000 NA
ATOM     20  C   UNL     1      45.781   6.308  11.542  0.00  0.00    +0.000 C 
ATOM     21  C   UNL     1      44.383   6.542  10.967  0.00  0.00    +0.000 C 
ATOM     22  C   UNL     1      43.481   5.314  11.153  0.00  0.00    +0.000 C 
ATOM     23  C   UNL     1      43.410   5.012  12.659  0.00  0.00    +0.000 C 
ATOM     24  C   UNL     1      44.800   4.830  13.270  0.00  0.00    +0.000 C 
BRANCH  22  25
ATOM     25  C   UNL     1      43.964   4.078  10.367  0.00  0.00    +0.000 C 
BRANCH  25  26
ATOM     26  N   UNL     1      44.272   4.419   8.989  0.00  0.00    +0.000 N 
ATOM     27  C   UNL     1      45.208   3.571   8.405  0.00  0.00    +0.000 A 
ATOM     28  N   UNL     1      45.272   2.281   8.769  0.00  0.00    +0.000 NA
ATOM     29  C   UNL     1      46.204   1.521   8.168  0.00  0.00    +0.000 A 
ATOM     30  C   UNL     1      47.079   2.000   7.227  0.00  0.00    +0.000 A 
ATOM     31  C   UNL     1      46.942   3.333   6.931  0.00  0.00    +0.000 A 
ATOM     32  N   UNL     1      46.027   4.136   7.509  0.00  0.00    +0.000 NA
ATOM     33  H   UNL     1      44.627   5.354   8.819  0.00  0.00    +0.000 HD
ENDBRANCH  25  26
ENDBRANCH  22  25
ENDBRANCH  18  19
ENDBRANCH   1  18
TORSDOF 7
ENDMDL
MODEL 5
REMARK VINA RESULT:    -7.570      4.065      4.703
REMARK INTER + INTRA:         -11.153
REMARK INTER:                 -10.193
REMARK INTRA:                  -0.961
REMARK UNBOUND:                -0.706
REMARK  Name = 
REMARK  7 active torsions:
REMARK  status: ('A' for Active; 'I' for Inactive)
REMARK    1  A    between atoms: N_1  and  C_2
REMARK    2  A    between atoms: C_2  and  C_3
REMARK    3  A    between atoms: C_2  and  C_18
REMARK    4  A    between atoms: C_3  and  N_4
REMARK    5  A    between atoms: C_7  and  C_8
REMARK    6  A    between atoms: C_8  and  N_9
REMARK    7  A    between atoms: C_18  and  C_20
REMARK                            x       y       z     vdW  Elec       q    Type
REMARK                         _______ _______ _______ _____ _____    ______ ____
ROOT
ATOM      1  C   UNL     1      45.635   8.646  12.877  0.00  0.00    +0.000 C 
ENDROOT
BRANCH   1   2
ATOM      2  N   UNL     1      44.587   9.674  12.701  0.00  0.00    +0.000 NA
ATOM      3  H   UNL     1      44.585  10.297  13.507  0.00  0.00    +0.000 HD
ATOM      4  H   UNL     1      43.675   9.210  12.683  0.00  0.00    +0.000 HD
ENDBRANCH   1   2
BRANCH   1   5
ATOM      5  C   UNL     1      47.000   9.345  12.774  0.00  0.00    +0.000 C 
ATOM      6  O   UNL     1      47.178  10.257  11.967  0.00  0.00    +0.000 OA
BRANCH   5   7
ATOM      7  C   UNL     1      48.063   9.016  13.732  0.00  0.00    +0.000 A 
ATOM      8  C   UNL     1      47.997   9.196  15.100  0.00  0.00    +0.000 A 
ATOM      9  S   UNL     1      49.532   9.052  15.852  0.00  0.00    +0.000 S 
ATOM     10  C   UNL     1      50.286   8.677  14.370  0.00  0.00    +0.000 A 
ATOM     11  N   UNL     1      51.633   8.529  14.257  0.00  0.00    +0.000 NA
ATOM     12  C   UNL     1      52.031   8.240  13.060  0.00  0.00    +0.000 A 
ATOM     13  N   UNL     1      51.207   8.035  11.981  0.00  0.00    +0.000 N 
ATOM     14  C   UNL     1      49.837   8.064  12.079  0.00  0.00    +0.000 A 
ATOM     15  O   UNL     1      49.120   7.614  11.192  0.00  0.00    +0.000 OA
ATOM     16  C   UNL     1      49.362   8.552  13.356  0.00  0.00    +0.000 A 
ATOM     17  H   UNL     1      51.572   7.696  11.103  0.00  0.00    +0.000 HD
ENDBRANCH   5   7
ENDBRANCH   1   5
BRANCH   1  18
ATOM     18  C   UNL     1      45.619   7.487  11.826  0.00  0.00    +0.000 C 
BRANCH  18  19
ATOM     19  N   UNL     1      44.858   6.255  12.095  0.00  0.00    +0.000 NA
ATOM     20  C   UNL     1      43.593   6.185  11.371  0.00  0.00    +0.000 C 
ATOM     21  C   UNL     1      42.784   4.956  11.785  0.00  0.00    +0.000 C 
ATOM     22  C   UNL     1      43.589   3.662  11.608  0.00  0.00    +0.000 C 
ATOM     23  C   UNL     1      44.866   3.787  12.455  0.00  0.00    +0.000 C 
ATOM     24  C   UNL     1      45.666   5.040  12.098  0.00  0.00    +0.000 C 
BRANCH  22  25
ATOM     25  C   UNL     1      43.933   3.355  10.137  0.00  0.00    +0.000 C 
BRANCH  25  26
ATOM     26  N   UNL     1      44.945   2.319  10.038  0.00  0.00    +0.000 N 
ATOM     27  C   UNL     1      45.694   2.385   8.867  0.00  0.00    +0.000 A 
ATOM     28  N   UNL     1      45.942   3.570   8.290  0.00  0.00    +0.000 NA
ATOM     29  C   UNL     1      46.667   3.561   7.157  0.00  0.00    +0.000 A 
ATOM     30  C   UNL     1      47.145   2.414   6.576  0.00  0.00    +0.000 A 
ATOM     31  C   UNL     1      46.829   1.252   7.235  0.00  0.00    +0.000 A 
ATOM     32  N   UNL     1      46.102   1.212   8.369  0.00  0.00    +0.000 NA
ATOM     33  H   UNL     1      44.621   1.358  10.085  0.00  0.00    +0.000 HD
ENDBRANCH  25  26
ENDBRANCH  22  25
ENDBRANCH  18  19
ENDBRANCH   1  18
TORSDOF 7
ENDMDL
MODEL 6
REMARK VINA RESULT:    -7.263      2.482      3.015
REMARK INTER + INTRA:         -10.730
REMARK INTER:                  -9.854
REMARK INTRA:                  -0.876
REMARK UNBOUND:                -0.706
REMARK  Name = 
REMARK  7 active torsions:
REMARK  status: ('A' for Active; 'I' for Inactive)
REMARK    1  A    between atoms: N_1  and  C_2
REMARK    2  A    between atoms: C_2  and  C_3
REMARK    3  A    between atoms: C_2  and  C_18
REMARK    4  A    between atoms: C_3  and  N_4
REMARK    5  A    between atoms: C_7  and  C_8
REMARK    6  A    between atoms: C_8  and  N_9
REMARK    7  A    between atoms: C_18  and  C_20
REMARK                            x       y       z     vdW  Elec       q    Type
REMARK                         _______ _______ _______ _____ _____    ______ ____
ROOT
ATOM      1  C   UNL     1      47.870   7.297  14.060  0.00  0.00    +0.000 C 
ENDROOT
BRANCH   1   2
ATOM      2  N   UNL     1      48.321   8.349  13.124  0.00  0.00    +0.000 NA
ATOM      3  H   UNL     1      48.906   9.017  13.623  0.00  0.00    +0.000 HD
ATOM      4  H   UNL     1      47.500   8.863  12.793  0.00  0.00    +0.000 HD
ENDBRANCH   1   2
BRANCH   1   5
ATOM      5  C   UNL     1      49.067   6.910  14.944  0.00  0.00    +0.000 C 
ATOM      6  O   UNL     1      50.217   7.010  14.518  0.00  0.00    +0.000 OA
BRANCH   5   7
ATOM      7  C   UNL     1      48.850   6.544  16.348  0.00  0.00    +0.000 A 
ATOM      8  C   UNL     1      48.800   5.256  16.846  0.00  0.00    +0.000 A 
ATOM      9  S   UNL     1      48.171   5.197  18.441  0.00  0.00    +0.000 S 
ATOM     10  C   UNL     1      48.028   6.894  18.509  0.00  0.00    +0.000 A 
ATOM     11  N   UNL     1      47.455   7.533  19.563  0.00  0.00    +0.000 NA
ATOM     12  C   UNL     1      47.436   8.822  19.448  0.00  0.00    +0.000 A 
ATOM     13  N   UNL     1      47.980   9.532  18.406  0.00  0.00    +0.000 N 
ATOM     14  C   UNL     1      48.666   8.930  17.380  0.00  0.00    +0.000 A 
ATOM     15  O   UNL     1      49.375   9.575  16.616  0.00  0.00    +0.000 OA
ATOM     16  C   UNL     1      48.559   7.486  17.384  0.00  0.00    +0.000 A 
ATOM     17  H   UNL     1      48.038  10.538  18.435  0.00  0.00    +0.000 HD
ENDBRANCH   5   7
ENDBRANCH   1   5
BRANCH   1  18
ATOM     18  C   UNL     1      47.339   5.987  13.389  0.00  0.00    +0.000 C 
BRANCH  18  19
ATOM     19  N   UNL     1      45.952   5.919  12.898  0.00  0.00    +0.000 NA
ATOM     20  C   UNL     1      45.814   6.297  11.495  0.00  0.00    +0.000 C 
ATOM     21  C   UNL     1      44.345   6.338  11.073  0.00  0.00    +0.000 C 
ATOM     22  C   UNL     1      43.638   5.005  11.353  0.00  0.00    +0.000 C 
ATOM     23  C   UNL     1      43.767   4.715  12.857  0.00  0.00    +0.000 C 
ATOM     24  C   UNL     1      45.226   4.724  13.316  0.00  0.00    +0.000 C 
BRANCH  22  25
ATOM     25  C   UNL     1      44.193   3.834  10.518  0.00  0.00    +0.000 C 
BRANCH  25  26
ATOM     26  N   UNL     1      44.274   4.182   9.111  0.00  0.00    +0.000 N 
ATOM     27  C   UNL     1      45.199   3.420   8.403  0.00  0.00    +0.000 A 
ATOM     28  N   UNL     1      45.437   2.148   8.755  0.00  0.00    +0.000 NA
ATOM     29  C   UNL     1      46.347   1.472   8.032  0.00  0.00    +0.000 A 
ATOM     30  C   UNL     1      47.033   2.020   6.978  0.00  0.00    +0.000 A 
ATOM     31  C   UNL     1      46.728   3.329   6.703  0.00  0.00    +0.000 A 
ATOM     32  N   UNL     1      45.828   4.048   7.402  0.00  0.00    +0.000 NA
ATOM     33  H   UNL     1      44.509   5.145   8.892  0.00  0.00    +0.000 HD
ENDBRANCH  25  26
ENDBRANCH  22  25
ENDBRANCH  18  19
ENDBRANCH   1  18
TORSDOF 7
ENDMDL
MODEL 7
REMARK VINA RESULT:    -6.924      3.436      8.401
REMARK INTER + INTRA:         -10.261
REMARK INTER:                  -9.355
REMARK INTRA:                  -0.906
REMARK UNBOUND:                -0.706
REMARK  Name = 
REMARK  7 active torsions:
REMARK  status: ('A' for Active; 'I' for Inactive)
REMARK    1  A    between atoms: N_1  and  C_2
REMARK    2  A    between atoms: C_2  and  C_3
REMARK    3  A    between atoms: C_2  and  C_18
REMARK    4  A    between atoms: C_3  and  N_4
REMARK    5  A    between atoms: C_7  and  C_8
REMARK    6  A    between atoms: C_8  and  N_9
REMARK    7  A    between atoms: C_18  and  C_20
REMARK                            x       y       z     vdW  Elec       q    Type
REMARK                         _______ _______ _______ _____ _____    ______ ____
ROOT
ATOM      1  C   UNL     1      47.508   7.088  12.374  0.00  0.00    +0.000 C 
ENDROOT
BRANCH   1   2
ATOM      2  N   UNL     1      48.387   7.570  11.287  0.00  0.00    +0.000 NA
ATOM      3  H   UNL     1      49.086   8.203  11.672  0.00  0.00    +0.000 HD
ATOM      4  H   UNL     1      47.824   8.115  10.630  0.00  0.00    +0.000 HD
ENDBRANCH   1   2
BRANCH   1   5
ATOM      5  C   UNL     1      46.088   6.948  11.802  0.00  0.00    +0.000 C 
ATOM      6  O   UNL     1      45.271   7.861  11.922  0.00  0.00    +0.000 OA
BRANCH   5   7
ATOM      7  C   UNL     1      45.739   5.775  10.992  0.00  0.00    +0.000 A 
ATOM      8  C   UNL     1      45.917   5.658   9.627  0.00  0.00    +0.000 A 
ATOM      9  S   UNL     1      45.070   4.318   8.970  0.00  0.00    +0.000 S 
ATOM     10  C   UNL     1      44.518   3.839  10.511  0.00  0.00    +0.000 A 
ATOM     11  N   UNL     1      43.648   2.810  10.683  0.00  0.00    +0.000 NA
ATOM     12  C   UNL     1      43.341   2.584  11.920  0.00  0.00    +0.000 A 
ATOM     13  N   UNL     1      43.862   3.253  13.000  0.00  0.00    +0.000 N 
ATOM     14  C   UNL     1      44.828   4.221  12.874  0.00  0.00    +0.000 A 
ATOM     15  O   UNL     1      45.478   4.609  13.839  0.00  0.00    +0.000 OA
ATOM     16  C   UNL     1      45.069   4.620  11.504  0.00  0.00    +0.000 A 
ATOM     17  H   UNL     1      43.673   2.949  13.943  0.00  0.00    +0.000 HD
ENDBRANCH   5   7
ENDBRANCH   1   5
BRANCH   1  18
ATOM     18  C   UNL     1      47.420   8.021  13.627  0.00  0.00    +0.000 C 
BRANCH  18  19
ATOM     19  N   UNL     1      48.638   8.357  14.385  0.00  0.00    +0.000 NA
ATOM     20  C   UNL     1      48.363   8.932  15.697  0.00  0.00    +0.000 C 
ATOM     21  C   UNL     1      49.651   9.384  16.386  0.00  0.00    +0.000 C 
ATOM     22  C   UNL     1      50.669   8.240  16.490  0.00  0.00    +0.000 C 
ATOM     23  C   UNL     1      50.957   7.740  15.066  0.00  0.00    +0.000 C 
ATOM     24  C   UNL     1      49.677   7.333  14.335  0.00  0.00    +0.000 C 
BRANCH  22  25
ATOM     25  C   UNL     1      50.196   7.084  17.394  0.00  0.00    +0.000 C 
BRANCH  25  26
ATOM     26  N   UNL     1      50.869   5.842  17.057  0.00  0.00    +0.000 N 
ATOM     27  C   UNL     1      50.013   4.747  16.993  0.00  0.00    +0.000 A 
ATOM     28  N   UNL     1      48.741   4.905  16.597  0.00  0.00    +0.000 NA
ATOM     29  C   UNL     1      47.968   3.805  16.565  0.00  0.00    +0.000 A 
ATOM     30  C   UNL     1      48.415   2.558  16.919  0.00  0.00    +0.000 A 
ATOM     31  C   UNL     1      49.726   2.501  17.320  0.00  0.00    +0.000 A 
ATOM     32  N   UNL     1      50.537   3.576  17.373  0.00  0.00    +0.000 NA
ATOM     33  H   UNL     1      51.621   5.549  17.672  0.00  0.00    +0.000 HD
ENDBRANCH  25  26
ENDBRANCH  22  25
ENDBRANCH  18  19
ENDBRANCH   1  18
TORSDOF 7
ENDMDL
MODEL 8
REMARK VINA RESULT:    -6.915      3.849      4.558
REMARK INTER + INTRA:         -10.248
REMARK INTER:                  -9.340
REMARK INTRA:                  -0.909
REMARK UNBOUND:                -0.706
REMARK  Name = 
REMARK  7 active torsions:
REMARK  status: ('A' for Active; 'I' for Inactive)
REMARK    1  A    between atoms: N_1  and  C_2
REMARK    2  A    between atoms: C_2  and  C_3
REMARK    3  A    between atoms: C_2  and  C_18
REMARK    4  A    between atoms: C_3  and  N_4
REMARK    5  A    between atoms: C_7  and  C_8
REMARK    6  A    between atoms: C_8  and  N_9
REMARK    7  A    between atoms: C_18  and  C_20
REMARK                            x       y       z     vdW  Elec       q    Type
REMARK                         _______ _______ _______ _____ _____    ______ ____
ROOT
ATOM      1  C   UNL     1      48.569   6.720  13.915  0.00  0.00    +0.000 C 
ENDROOT
BRANCH   1   2
ATOM      2  N   UNL     1      47.919   6.923  15.228  0.00  0.00    +0.000 NA
ATOM      3  H   UNL     1      47.249   6.174  15.393  0.00  0.00    +0.000 HD
ATOM      4  H   UNL     1      47.388   7.796  15.197  0.00  0.00    +0.000 HD
ENDBRANCH   1   2
BRANCH   1   5
ATOM      5  C   UNL     1      48.722   8.098  13.249  0.00  0.00    +0.000 C 
ATOM      6  O   UNL     1      47.803   8.916  13.283  0.00  0.00    +0.000 OA
BRANCH   5   7
ATOM      7  C   UNL     1      50.016   8.495  12.682  0.00  0.00    +0.000 A 
ATOM      8  C   UNL     1      50.256   8.792  11.354  0.00  0.00    +0.000 A 
ATOM      9  S   UNL     1      51.932   8.853  10.991  0.00  0.00    +0.000 S 
ATOM     10  C   UNL     1      52.353   8.557  12.616  0.00  0.00    +0.000 A 
ATOM     11  N   UNL     1      53.641   8.378  13.012  0.00  0.00    +0.000 NA
ATOM     12  C   UNL     1      53.775   8.169  14.282  0.00  0.00    +0.000 A 
ATOM     13  N   UNL     1      52.752   8.174  15.198  0.00  0.00    +0.000 N 
ATOM     14  C   UNL     1      51.454   8.463  14.855  0.00  0.00    +0.000 A 
ATOM     15  O   UNL     1      50.611   8.735  15.703  0.00  0.00    +0.000 OA
ATOM     16  C   UNL     1      51.238   8.531  13.426  0.00  0.00    +0.000 A 
ATOM     17  H   UNL     1      52.938   8.124  16.188  0.00  0.00    +0.000 HD
ENDBRANCH   5   7
ENDBRANCH   1   5
BRANCH   1  18
ATOM     18  C   UNL     1      47.789   5.800  12.918  0.00  0.00    +0.000 C 
BRANCH  18  19
ATOM     19  N   UNL     1      46.337   5.967  12.740  0.00  0.00    +0.000 NA
ATOM     20  C   UNL     1      45.963   6.386  11.393  0.00  0.00    +0.000 C 
ATOM     21  C   UNL     1      44.464   6.673  11.297  0.00  0.00    +0.000 C 
ATOM     22  C   UNL     1      43.627   5.469  11.749  0.00  0.00    +0.000 C 
ATOM     23  C   UNL     1      44.029   5.137  13.195  0.00  0.00    +0.000 C 
ATOM     24  C   UNL     1      45.534   4.900  13.328  0.00  0.00    +0.000 C 
BRANCH  22  25
ATOM     25  C   UNL     1      43.790   4.237  10.836  0.00  0.00    +0.000 C 
BRANCH  25  26
ATOM     26  N   UNL     1      44.029   4.630   9.459  0.00  0.00    +0.000 N 
ATOM     27  C   UNL     1      44.920   3.796   8.791  0.00  0.00    +0.000 A 
ATOM     28  N   UNL     1      44.983   2.491   9.097  0.00  0.00    +0.000 NA
ATOM     29  C   UNL     1      45.870   1.744   8.417  0.00  0.00    +0.000 A 
ATOM     30  C   UNL     1      46.700   2.251   7.450  0.00  0.00    +0.000 A 
ATOM     31  C   UNL     1      46.569   3.597   7.217  0.00  0.00    +0.000 A 
ATOM     32  N   UNL     1      45.698   4.386   7.876  0.00  0.00    +0.000 NA
ATOM     33  H   UNL     1      44.388   5.567   9.308  0.00  0.00    +0.000 HD
ENDBRANCH  25  26
ENDBRANCH  22  25
ENDBRANCH  18  19
ENDBRANCH   1  18
TORSDOF 7
ENDMDL
MODEL 9
REMARK VINA RESULT:    -6.808      2.703      4.360
REMARK INTER + INTRA:         -10.101
REMARK INTER:                  -8.782
REMARK INTRA:                  -1.319
REMARK UNBOUND:                -0.706
REMARK  Name = 
REMARK  7 active torsions:
REMARK  status: ('A' for Active; 'I' for Inactive)
REMARK    1  A    between atoms: N_1  and  C_2
REMARK    2  A    between atoms: C_2  and  C_3
REMARK    3  A    between atoms: C_2  and  C_18
REMARK    4  A    between atoms: C_3  and  N_4
REMARK    5  A    between atoms: C_7  and  C_8
REMARK    6  A    between atoms: C_8  and  N_9
REMARK    7  A    between atoms: C_18  and  C_20
REMARK                            x       y       z     vdW  Elec       q    Type
REMARK                         _______ _______ _______ _____ _____    ______ ____
ROOT
ATOM      1  C   UNL     1      48.288   7.906  16.991  0.00  0.00    +0.000 C 
ENDROOT
BRANCH   1   2
ATOM      2  N   UNL     1      47.721   9.210  17.397  0.00  0.00    +0.000 NA
ATOM      3  H   UNL     1      48.052   9.935  16.762  0.00  0.00    +0.000 HD
ATOM      4  H   UNL     1      48.077   9.444  18.327  0.00  0.00    +0.000 HD
ENDBRANCH   1   2
BRANCH   1   5
ATOM      5  C   UNL     1      48.972   7.288  18.222  0.00  0.00    +0.000 C 
ATOM      6  O   UNL     1      48.885   7.828  19.324  0.00  0.00    +0.000 OA
BRANCH   5   7
ATOM      7  C   UNL     1      49.623   5.977  18.114  0.00  0.00    +0.000 A 
ATOM      8  C   UNL     1      50.977   5.738  18.249  0.00  0.00    +0.000 A 
ATOM      9  S   UNL     1      51.421   4.173  17.702  0.00  0.00    +0.000 S 
ATOM     10  C   UNL     1      49.802   3.774  17.350  0.00  0.00    +0.000 A 
ATOM     11  N   UNL     1      49.456   2.606  16.749  0.00  0.00    +0.000 NA
ATOM     12  C   UNL     1      48.182   2.468  16.563  0.00  0.00    +0.000 A 
ATOM     13  N   UNL     1      47.222   3.362  16.968  0.00  0.00    +0.000 N 
ATOM     14  C   UNL     1      47.522   4.499  17.678  0.00  0.00    +0.000 A 
ATOM     15  O   UNL     1      46.656   5.137  18.266  0.00  0.00    +0.000 OA
ATOM     16  C   UNL     1      48.942   4.773  17.753  0.00  0.00    +0.000 A 
ATOM     17  H   UNL     1      46.241   3.140  16.900  0.00  0.00    +0.000 HD
ENDBRANCH   5   7
ENDBRANCH   1   5
BRANCH   1  18
ATOM     18  C   UNL     1      49.350   7.965  15.844  0.00  0.00    +0.000 C 
BRANCH  18  19
ATOM     19  N   UNL     1      48.988   7.544  14.480  0.00  0.00    +0.000 NA
ATOM     20  C   UNL     1      48.084   6.399  14.447  0.00  0.00    +0.000 C 
ATOM     21  C   UNL     1      47.846   5.920  13.015  0.00  0.00    +0.000 C 
ATOM     22  C   UNL     1      47.329   7.052  12.118  0.00  0.00    +0.000 C 
ATOM     23  C   UNL     1      48.367   8.185  12.151  0.00  0.00    +0.000 C 
ATOM     24  C   UNL     1      48.665   8.645  13.578  0.00  0.00    +0.000 C 
BRANCH  22  25
ATOM     25  C   UNL     1      45.936   7.571  12.532  0.00  0.00    +0.000 C 
BRANCH  25  26
ATOM     26  N   UNL     1      44.930   7.224  11.545  0.00  0.00    +0.000 N 
ATOM     27  C   UNL     1      44.375   5.963  11.738  0.00  0.00    +0.000 A 
ATOM     28  N   UNL     1      44.245   5.464  12.976  0.00  0.00    +0.000 NA
ATOM     29  C   UNL     1      43.706   4.237  13.089  0.00  0.00    +0.000 A 
ATOM     30  C   UNL     1      43.300   3.489  12.014  0.00  0.00    +0.000 A 
ATOM     31  C   UNL     1      43.485   4.081  10.790  0.00  0.00    +0.000 A 
ATOM     32  N   UNL     1      44.024   5.305  10.626  0.00  0.00    +0.000 NA
ATOM     33  H   UNL     1      45.222   7.234  10.573  0.00  0.00    +0.000 HD
ENDBRANCH  25  26
ENDBRANCH  22  25
ENDBRANCH  18  19
ENDBRANCH   1  18
TORSDOF 7
ENDMDL
