MODEL 1
REMARK VINA RESULT:    -7.626      0.000      0.000
REMARK INTER + INTRA:         -11.179
REMARK INTER:                 -10.301
REMARK INTRA:                  -0.878
REMARK UNBOUND:                -0.878
REMARK  Name = 
REMARK  9 active torsions:
REMARK  status: ('A' for Active; 'I' for Inactive)
REMARK    1  A    between atoms: C_1  and  C_2
REMARK    2  A    between atoms: C_2  and  C_3
REMARK    3  A    between atoms: C_2  and  C_4
REMARK    4  A    between atoms: C_2  and  C_22
REMARK    5  A    between atoms: C_4  and  N_5
REMARK    6  A    between atoms: C_10  and  C_11
REMARK    7  A    between atoms: C_14  and  S_15
REMARK    8  A    between atoms: S_15  and  C_16
REMARK    9  A    between atoms: C_25  and  C_26
REMARK                            x       y       z     vdW  Elec       q    Type
REMARK                         _______ _______ _______ _____ _____    ______ ____
ROOT
ATOM      1  N   UNL     1      45.812   5.457  12.841  0.00  0.00    +0.000 N 
ATOM      2  C   UNL     1      47.012   6.081  13.153  0.00  0.00    +0.000 A 
ATOM      3  C   UNL     1      47.661   6.932  12.262  0.00  0.00    +0.000 A 
ATOM      4  C   UNL     1      48.859   7.532  12.620  0.00  0.00    +0.000 A 
ATOM      5  C   UNL     1      49.352   7.326  13.896  0.00  0.00    +0.000 A 
ATOM      6  C   UNL     1      48.643   6.512  14.778  0.00  0.00    +0.000 A 
ATOM      7  N   UNL     1      47.502   5.860  14.392  0.00  0.00    +0.000 NA
ATOM      8  H   UNL     1      45.720   4.573  13.331  0.00  0.00    +0.000 HD
ENDROOT
BRANCH   6   9
ATOM      9  C   UNL     1      49.073   6.367  16.194  0.00  0.00    +0.000 A 
ATOM     10  C   UNL     1      49.356   7.464  17.012  0.00  0.00    +0.000 A 
ATOM     11  C   UNL     1      49.830   7.251  18.308  0.00  0.00    +0.000 A 
ATOM     12  C   UNL     1      50.015   5.949  18.756  0.00  0.00    +0.000 A 
ATOM     13  C   UNL     1      49.725   4.903  17.901  0.00  0.00    +0.000 A 
ATOM     14  N   UNL     1      49.244   5.090  16.649  0.00  0.00    +0.000 NA
BRANCH  12  15
ATOM     15  S   UNL     1      50.707   5.615  20.339  0.00  0.00    +0.000 S 
ATOM     16  C   UNL     1      52.162   4.664  19.989  0.00  0.00    +0.000 C 
ATOM     17  O   UNL     1      51.128   6.881  20.911  0.00  0.00    +0.000 OA
ATOM     18  O   UNL     1      49.774   4.759  21.046  0.00  0.00    +0.000 OA
ENDBRANCH  12  15
ENDBRANCH   6   9
BRANCH   1  19
ATOM     19  C   UNL     1      45.192   5.640  11.540  0.00  0.00    +0.000 C 
BRANCH  19  21
ATOM     20  C   UNL     1      44.369   3.308  12.088  0.00  0.00    +0.000 C 
ATOM     21  C   UNL     1      44.479   4.379  10.976  0.00  0.00    +0.000 C 
ATOM     22  C   UNL     1      43.029   4.812  10.629  0.00  0.00    +0.000 C 
BRANCH  21  23
ATOM     23  C   UNL     1      45.156   3.846   9.705  0.00  0.00    +0.000 A 
ATOM     24  C   UNL     1      45.730   4.691   8.745  0.00  0.00    +0.000 A 
ATOM     25  C   UNL     1      46.398   4.167   7.643  0.00  0.00    +0.000 A 
ATOM     26  C   UNL     1      46.473   2.790   7.519  0.00  0.00    +0.000 A 
ATOM     27  N   UNL     1      45.912   1.921   8.402  0.00  0.00    +0.000 NA
ATOM     28  C   UNL     1      45.271   2.473   9.461  0.00  0.00    +0.000 A 
BRANCH  26  29
ATOM     29  C   UNL     1      47.234   2.201   6.370  0.00  0.00    +0.000 C 
ATOM     30  N   UNL     1      47.280   2.975   5.243  0.00  0.00    +0.000 N 
ATOM     31  O   UNL     1      47.769   1.108   6.424  0.00  0.00    +0.000 OA
ATOM     32  H   UNL     1      46.797   3.866   5.227  0.00  0.00    +0.000 HD
ATOM     33  H   UNL     1      47.742   2.622   4.420  0.00  0.00    +0.000 HD
ENDBRANCH  26  29
ENDBRANCH  21  23
ENDBRANCH  19  21
ENDBRANCH   1  19
TORSDOF 6
ENDMDL
MODEL 2
REMARK VINA RESULT:    -7.458      4.098      9.115
REMARK INTER + INTRA:         -10.952
REMARK INTER:                  -9.744
REMARK INTRA:                  -1.208
REMARK UNBOUND:                -0.878
REMARK  Name = 
REMARK  9 active torsions:
REMARK  status: ('A' for Active; 'I' for Inactive)
REMARK    1  A    between atoms: C_1  and  C_2
REMARK    2  A    between atoms: C_2  and  C_3
REMARK    3  A    between atoms: C_2  and  C_4
REMARK    4  A    between atoms: C_2  and  C_22
REMARK    5  A    between atoms: C_4  and  N_5
REMARK    6  A    between atoms: C_10  and  C_11
REMARK    7  A    between atoms: C_14  and  S_15
REMARK    8  A    between atoms: S_15  and  C_16
REMARK    9  A    between atoms: C_25  and  C_26
REMARK                            x       y       z     vdW  Elec       q    Type
REMARK                         _______ _______ _______ _____ _____    ______ ____
ROOT
ATOM      1  N   UNL     1      48.516   7.786  17.223  0.00  0.00    +0.000 N 
ATOM      2  C   UNL     1      48.833   7.661  15.877  0.00  0.00    +0.000 A 
ATOM      3  C   UNL     1      50.098   7.959  15.380  0.00  0.00    +0.000 A 
ATOM      4  C   UNL     1      50.366   7.819  14.027  0.00  0.00    +0.000 A 
ATOM      5  C   UNL     1      49.379   7.310  13.203  0.00  0.00    +0.000 A 
ATOM      6  C   UNL     1      48.142   6.970  13.748  0.00  0.00    +0.000 A 
ATOM      7  N   UNL     1      47.859   7.185  15.071  0.00  0.00    +0.000 NA
ATOM      8  H   UNL     1      47.531   7.993  17.350  0.00  0.00    +0.000 HD
ENDROOT
BRANCH   6   9
ATOM      9  C   UNL     1      47.101   6.305  12.920  0.00  0.00    +0.000 A 
ATOM     10  C   UNL     1      46.872   6.641  11.584  0.00  0.00    +0.000 A 
ATOM     11  C   UNL     1      45.826   6.030  10.891  0.00  0.00    +0.000 A 
ATOM     12  C   UNL     1      45.029   5.100  11.548  0.00  0.00    +0.000 A 
ATOM     13  C   UNL     1      45.298   4.812  12.872  0.00  0.00    +0.000 A 
ATOM     14  N   UNL     1      46.322   5.379  13.554  0.00  0.00    +0.000 NA
BRANCH  12  15
ATOM     15  S   UNL     1      43.633   4.372  10.764  0.00  0.00    +0.000 S 
ATOM     16  C   UNL     1      43.342   2.883  11.680  0.00  0.00    +0.000 C 
ATOM     17  O   UNL     1      42.500   5.255  10.975  0.00  0.00    +0.000 OA
ATOM     18  O   UNL     1      44.038   3.998   9.422  0.00  0.00    +0.000 OA
ENDBRANCH  12  15
ENDBRANCH   6   9
BRANCH   1  19
ATOM     19  C   UNL     1      49.495   8.274  18.178  0.00  0.00    +0.000 C 
BRANCH  19  21
ATOM     20  C   UNL     1      51.175   7.736  19.996  0.00  0.00    +0.000 C 
ATOM     21  C   UNL     1      49.883   7.259  19.289  0.00  0.00    +0.000 C 
ATOM     22  C   UNL     1      48.750   7.312  20.349  0.00  0.00    +0.000 C 
BRANCH  21  23
ATOM     23  C   UNL     1      49.996   5.824  18.753  0.00  0.00    +0.000 A 
ATOM     24  C   UNL     1      49.028   4.844  19.013  0.00  0.00    +0.000 A 
ATOM     25  C   UNL     1      49.130   3.575  18.450  0.00  0.00    +0.000 A 
ATOM     26  C   UNL     1      50.216   3.309  17.634  0.00  0.00    +0.000 A 
ATOM     27  N   UNL     1      51.200   4.209  17.369  0.00  0.00    +0.000 NA
ATOM     28  C   UNL     1      51.063   5.432  17.937  0.00  0.00    +0.000 A 
BRANCH  26  29
ATOM     29  C   UNL     1      50.319   1.968  16.972  0.00  0.00    +0.000 C 
ATOM     30  N   UNL     1      51.184   1.089  17.565  0.00  0.00    +0.000 N 
ATOM     31  O   UNL     1      49.690   1.677  15.970  0.00  0.00    +0.000 OA
ATOM     32  H   UNL     1      51.712   1.379  18.381  0.00  0.00    +0.000 HD
ATOM     33  H   UNL     1      51.330   0.184  17.149  0.00  0.00    +0.000 HD
ENDBRANCH  26  29
ENDBRANCH  21  23
ENDBRANCH  19  21
ENDBRANCH   1  19
TORSDOF 6
ENDMDL
MODEL 3
REMARK VINA RESULT:    -7.070      3.448      5.268
REMARK INTER + INTRA:         -10.427
REMARK INTER:                  -9.569
REMARK INTRA:                  -0.858
REMARK UNBOUND:                -0.878
REMARK  Name = 
REMARK  9 active torsions:
REMARK  status: ('A' for Active; 'I' for Inactive)
REMARK    1  A    between atoms: C_1  and  C_2
REMARK    2  A    between atoms: C_2  and  C_3
REMARK    3  A    between atoms: C_2  and  C_4
REMARK    4  A    between atoms: C_2  and  C_22
REMARK    5  A    between atoms: C_4  and  N_5
REMARK    6  A    between atoms: C_10  and  C_11
REMARK    7  A    between atoms: C_14  and  S_15
REMARK    8  A    between atoms: S_15  and  C_16
REMARK    9  A    between atoms: C_25  and  C_26
REMARK                            x       y       z     vdW  Elec       q    Type
REMARK                         _______ _______ _______ _____ _____    ______ ____
ROOT
ATOM      1  N   UNL     1      48.759   6.387  15.340  0.00  0.00    +0.000 N 
ATOM      2  C   UNL     1      48.609   5.278  16.161  0.00  0.00    +0.000 A 
ATOM      3  C   UNL     1      47.362   4.741  16.465  0.00  0.00    +0.000 A 
ATOM      4  C   UNL     1      47.263   3.632  17.292  0.00  0.00    +0.000 A 
ATOM      5  C   UNL     1      48.426   3.033  17.743  0.00  0.00    +0.000 A 
ATOM      6  C   UNL     1      49.658   3.568  17.370  0.00  0.00    +0.000 A 
ATOM      7  N   UNL     1      49.746   4.710  16.618  0.00  0.00    +0.000 NA
ATOM      8  H   UNL     1      49.592   6.914  15.582  0.00  0.00    +0.000 HD
ENDROOT
BRANCH   6   9
ATOM      9  C   UNL     1      50.927   2.881  17.731  0.00  0.00    +0.000 A 
ATOM     10  C   UNL     1      51.991   3.539  18.351  0.00  0.00    +0.000 A 
ATOM     11  C   UNL     1      53.182   2.850  18.589  0.00  0.00    +0.000 A 
ATOM     12  C   UNL     1      53.284   1.520  18.199  0.00  0.00    +0.000 A 
ATOM     13  C   UNL     1      52.201   0.922  17.583  0.00  0.00    +0.000 A 
ATOM     14  N   UNL     1      51.032   1.569  17.364  0.00  0.00    +0.000 NA
BRANCH  12  15
ATOM     15  S   UNL     1      54.789   0.627  18.376  0.00  0.00    +0.000 S 
ATOM     16  C   UNL     1      54.283  -1.069  18.473  0.00  0.00    +0.000 C 
ATOM     17  O   UNL     1      55.548   0.797  17.150  0.00  0.00    +0.000 OA
ATOM     18  O   UNL     1      55.362   0.995  19.656  0.00  0.00    +0.000 OA
ENDBRANCH  12  15
ENDBRANCH   6   9
BRANCH   1  19
ATOM     19  C   UNL     1      47.601   7.065  14.783  0.00  0.00    +0.000 C 
BRANCH  19  21
ATOM     20  C   UNL     1      47.255   8.568  12.773  0.00  0.00    +0.000 C 
ATOM     21  C   UNL     1      47.565   7.122  13.230  0.00  0.00    +0.000 C 
ATOM     22  C   UNL     1      49.005   6.800  12.745  0.00  0.00    +0.000 C 
BRANCH  21  23
ATOM     23  C   UNL     1      46.596   6.091  12.632  0.00  0.00    +0.000 A 
ATOM     24  C   UNL     1      45.988   6.265  11.381  0.00  0.00    +0.000 A 
ATOM     25  C   UNL     1      45.172   5.275  10.842  0.00  0.00    +0.000 A 
ATOM     26  C   UNL     1      44.976   4.119  11.578  0.00  0.00    +0.000 A 
ATOM     27  N   UNL     1      45.516   3.905  12.808  0.00  0.00    +0.000 NA
ATOM     28  C   UNL     1      46.303   4.895  13.296  0.00  0.00    +0.000 A 
BRANCH  26  29
ATOM     29  C   UNL     1      44.146   3.015  10.995  0.00  0.00    +0.000 C 
ATOM     30  N   UNL     1      44.749   2.296   9.999  0.00  0.00    +0.000 N 
ATOM     31  O   UNL     1      43.012   2.774  11.368  0.00  0.00    +0.000 OA
ATOM     32  H   UNL     1      45.684   2.546   9.696  0.00  0.00    +0.000 HD
ATOM     33  H   UNL     1      44.233   1.565   9.537  0.00  0.00    +0.000 HD
ENDBRANCH  26  29
ENDBRANCH  21  23
ENDBRANCH  19  21
ENDBRANCH   1  19
TORSDOF 6
ENDMDL
MODEL 4
REMARK VINA RESULT:    -6.750      3.595      5.183
REMARK INTER + INTRA:          -9.995
REMARK INTER:                  -9.113
REMARK INTRA:                  -0.883
REMARK UNBOUND:                -0.878
REMARK  Name = 
REMARK  9 active torsions:
REMARK  status: ('A' for Active; 'I' for Inactive)
REMARK    1  A    between atoms: C_1  and  C_2
REMARK    2  A    between atoms: C_2  and  C_3
REMARK    3  A    between atoms: C_2  and  C_4
REMARK    4  A    between atoms: C_2  and  C_22
REMARK    5  A    between atoms: C_4  and  N_5
REMARK    6  A    between atoms: C_10  and  C_11
REMARK    7  A    between atoms: C_14  and  S_15
REMARK    8  A    between atoms: S_15  and  C_16
REMARK    9  A    between atoms: C_25  and  C_26
REMARK                            x       y       z     vdW  Elec       q    Type
REMARK                         _______ _______ _______ _____ _____    ______ ____
ROOT
ATOM      1  N   UNL     1      48.824   7.277  14.293  0.00  0.00    +0.000 N 
ATOM      2  C   UNL     1      49.154   7.097  15.629  0.00  0.00    +0.000 A 
ATOM      3  C   UNL     1      48.587   7.861  16.645  0.00  0.00    +0.000 A 
ATOM      4  C   UNL     1      48.949   7.643  17.966  0.00  0.00    +0.000 A 
ATOM      5  C   UNL     1      49.824   6.611  18.254  0.00  0.00    +0.000 A 
ATOM      6  C   UNL     1      50.327   5.832  17.213  0.00  0.00    +0.000 A 
ATOM      7  N   UNL     1      50.025   6.103  15.905  0.00  0.00    +0.000 NA
ATOM      8  H   UNL     1      49.597   7.024  13.686  0.00  0.00    +0.000 HD
ENDROOT
BRANCH   6   9
ATOM      9  C   UNL     1      51.168   4.638  17.494  0.00  0.00    +0.000 A 
ATOM     10  C   UNL     1      52.498   4.733  17.909  0.00  0.00    +0.000 A 
ATOM     11  C   UNL     1      53.251   3.569  18.079  0.00  0.00    +0.000 A 
ATOM     12  C   UNL     1      52.660   2.338  17.825  0.00  0.00    +0.000 A 
ATOM     13  C   UNL     1      51.343   2.304  17.410  0.00  0.00    +0.000 A 
ATOM     14  N   UNL     1      50.591   3.421  17.261  0.00  0.00    +0.000 NA
BRANCH  12  15
ATOM     15  S   UNL     1      53.582   0.843  17.919  0.00  0.00    +0.000 S 
ATOM     16  C   UNL     1      54.837   1.177  19.126  0.00  0.00    +0.000 C 
ATOM     17  O   UNL     1      52.706  -0.181  18.459  0.00  0.00    +0.000 OA
ATOM     18  O   UNL     1      54.234   0.656  16.637  0.00  0.00    +0.000 OA
ENDBRANCH  12  15
ENDBRANCH   6   9
BRANCH   1  19
ATOM     19  C   UNL     1      47.885   8.309  13.889  0.00  0.00    +0.000 C 
BRANCH  19  21
ATOM     20  C   UNL     1      46.845   9.582  11.962  0.00  0.00    +0.000 C 
ATOM     21  C   UNL     1      47.407   8.213  12.413  0.00  0.00    +0.000 C 
ATOM     22  C   UNL     1      48.676   7.948  11.557  0.00  0.00    +0.000 C 
BRANCH  21  23
ATOM     23  C   UNL     1      46.412   7.063  12.196  0.00  0.00    +0.000 A 
ATOM     24  C   UNL     1      46.430   6.256  11.050  0.00  0.00    +0.000 A 
ATOM     25  C   UNL     1      45.558   5.179  10.924  0.00  0.00    +0.000 A 
ATOM     26  C   UNL     1      44.670   4.934  11.957  0.00  0.00    +0.000 A 
ATOM     27  N   UNL     1      44.586   5.698  13.079  0.00  0.00    +0.000 NA
ATOM     28  C   UNL     1      45.454   6.737  13.162  0.00  0.00    +0.000 A 
BRANCH  26  29
ATOM     29  C   UNL     1      43.758   3.747  11.869  0.00  0.00    +0.000 C 
ATOM     30  N   UNL     1      44.167   2.644  12.568  0.00  0.00    +0.000 N 
ATOM     31  O   UNL     1      42.729   3.753  11.217  0.00  0.00    +0.000 OA
ATOM     32  H   UNL     1      45.045   2.669  13.075  0.00  0.00    +0.000 HD
ATOM     33  H   UNL     1      43.621   1.799  12.520  0.00  0.00    +0.000 HD
ENDBRANCH  26  29
ENDBRANCH  21  23
ENDBRANCH  19  21
ENDBRANCH   1  19
TORSDOF 6
ENDMDL
MODEL 5
REMARK VINA RESULT:    -6.726      2.788      3.259
REMARK INTER + INTRA:          -9.963
REMARK INTER:                  -9.212
REMARK INTRA:                  -0.751
REMARK UNBOUND:                -0.878
REMARK  Name = 
REMARK  9 active torsions:
REMARK  status: ('A' for Active; 'I' for Inactive)
REMARK    1  A    between atoms: C_1  and  C_2
REMARK    2  A    between atoms: C_2  and  C_3
REMARK    3  A    between atoms: C_2  and  C_4
REMARK    4  A    between atoms: C_2  and  C_22
REMARK    5  A    between atoms: C_4  and  N_5
REMARK    6  A    between atoms: C_10  and  C_11
REMARK    7  A    between atoms: C_14  and  S_15
REMARK    8  A    between atoms: S_15  and  C_16
REMARK    9  A    between atoms: C_25  and  C_26
REMARK                            x       y       z     vdW  Elec       q    Type
REMARK                         _______ _______ _______ _____ _____    ______ ____
ROOT
ATOM      1  N   UNL     1      46.504   5.932  11.824  0.00  0.00    +0.000 N 
ATOM      2  C   UNL     1      47.110   7.110  12.236  0.00  0.00    +0.000 A 
ATOM      3  C   UNL     1      46.450   8.336  12.209  0.00  0.00    +0.000 A 
ATOM      4  C   UNL     1      47.099   9.486  12.631  0.00  0.00    +0.000 A 
ATOM      5  C   UNL     1      48.379   9.378  13.144  0.00  0.00    +0.000 A 
ATOM      6  C   UNL     1      48.986   8.124  13.206  0.00  0.00    +0.000 A 
ATOM      7  N   UNL     1      48.369   7.004  12.715  0.00  0.00    +0.000 NA
ATOM      8  H   UNL     1      47.187   5.273  11.464  0.00  0.00    +0.000 HD
ENDROOT
BRANCH   6   9
ATOM      9  C   UNL     1      50.308   7.950  13.864  0.00  0.00    +0.000 A 
ATOM     10  C   UNL     1      50.452   7.367  15.126  0.00  0.00    +0.000 A 
ATOM     11  C   UNL     1      51.716   7.308  15.716  0.00  0.00    +0.000 A 
ATOM     12  C   UNL     1      52.807   7.833  15.035  0.00  0.00    +0.000 A 
ATOM     13  C   UNL     1      52.604   8.403  13.792  0.00  0.00    +0.000 A 
ATOM     14  N   UNL     1      51.389   8.451  13.196  0.00  0.00    +0.000 NA
BRANCH  12  15
ATOM     15  S   UNL     1      54.406   7.883  15.765  0.00  0.00    +0.000 S 
ATOM     16  C   UNL     1      54.866   6.179  15.928  0.00  0.00    +0.000 C 
ATOM     17  O   UNL     1      55.308   8.499  14.809  0.00  0.00    +0.000 OA
ATOM     18  O   UNL     1      54.255   8.433  17.099  0.00  0.00    +0.000 OA
ENDBRANCH  12  15
ENDBRANCH   6   9
BRANCH   1  19
ATOM     19  C   UNL     1      45.147   5.932  11.306  0.00  0.00    +0.000 C 
BRANCH  19  21
ATOM     20  C   UNL     1      44.707   3.643  12.298  0.00  0.00    +0.000 C 
ATOM     21  C   UNL     1      44.554   4.521  11.033  0.00  0.00    +0.000 C 
ATOM     22  C   UNL     1      43.030   4.720  10.810  0.00  0.00    +0.000 C 
BRANCH  21  23
ATOM     23  C   UNL     1      45.158   3.868   9.781  0.00  0.00    +0.000 A 
ATOM     24  C   UNL     1      45.703   4.616   8.728  0.00  0.00    +0.000 A 
ATOM     25  C   UNL     1      46.306   3.986   7.643  0.00  0.00    +0.000 A 
ATOM     26  C   UNL     1      46.346   2.602   7.633  0.00  0.00    +0.000 A 
ATOM     27  N   UNL     1      45.811   1.823   8.611  0.00  0.00    +0.000 NA
ATOM     28  C   UNL     1      45.233   2.477   9.648  0.00  0.00    +0.000 A 
BRANCH  26  29
ATOM     29  C   UNL     1      47.039   1.901   6.503  0.00  0.00    +0.000 C 
ATOM     30  N   UNL     1      47.553   2.721   5.536  0.00  0.00    +0.000 N 
ATOM     31  O   UNL     1      47.133   0.688   6.438  0.00  0.00    +0.000 OA
ATOM     32  H   UNL     1      47.429   3.724   5.611  0.00  0.00    +0.000 HD
ATOM     33  H   UNL     1      47.998   2.313   4.729  0.00  0.00    +0.000 HD
ENDBRANCH  26  29
ENDBRANCH  21  23
ENDBRANCH  19  21
ENDBRANCH   1  19
TORSDOF 6
ENDMDL
MODEL 6
REMARK VINA RESULT:    -6.649      5.257      7.978
REMARK INTER + INTRA:          -9.859
REMARK INTER:                  -8.895
REMARK INTRA:                  -0.964
REMARK UNBOUND:                -0.878
REMARK  Name = 
REMARK  9 active torsions:
REMARK  status: ('A' for Active; 'I' for Inactive)
REMARK    1  A    between atoms: C_1  and  C_2
REMARK    2  A    between atoms: C_2  and  C_3
REMARK    3  A    between atoms: C_2  and  C_4
REMARK    4  A    between atoms: C_2  and  C_22
REMARK    5  A    between atoms: C_4  and  N_5
REMARK    6  A    between atoms: C_10  and  C_11
REMARK    7  A    between atoms: C_14  and  S_15
REMARK    8  A    between atoms: S_15  and  C_16
REMARK    9  A    between atoms: C_25  and  C_26
REMARK                            x       y       z     vdW  Elec       q    Type
REMARK                         _______ _______ _______ _____ _____    ______ ____
ROOT
ATOM      1  N   UNL     1      51.236   8.278  10.967  0.00  0.00    +0.000 N 
ATOM      2  C   UNL     1      50.516   7.999  12.121  0.00  0.00    +0.000 A 
ATOM      3  C   UNL     1      50.826   8.576  13.349  0.00  0.00    +0.000 A 
ATOM      4  C   UNL     1      50.078   8.264  14.474  0.00  0.00    +0.000 A 
ATOM      5  C   UNL     1      48.982   7.433  14.334  0.00  0.00    +0.000 A 
ATOM      6  C   UNL     1      48.670   6.919  13.076  0.00  0.00    +0.000 A 
ATOM      7  N   UNL     1      49.460   7.169  11.985  0.00  0.00    +0.000 NA
ATOM      8  H   UNL     1      51.218   7.494  10.324  0.00  0.00    +0.000 HD
ENDROOT
BRANCH   6   9
ATOM      9  C   UNL     1      47.431   6.125  12.863  0.00  0.00    +0.000 A 
ATOM     10  C   UNL     1      47.053   5.077  13.704  0.00  0.00    +0.000 A 
ATOM     11  C   UNL     1      45.917   4.324  13.398  0.00  0.00    +0.000 A 
ATOM     12  C   UNL     1      45.187   4.634  12.258  0.00  0.00    +0.000 A 
ATOM     13  C   UNL     1      45.611   5.678  11.459  0.00  0.00    +0.000 A 
ATOM     14  N   UNL     1      46.698   6.432  11.752  0.00  0.00    +0.000 NA
BRANCH  12  15
ATOM     15  S   UNL     1      43.808   3.661  11.761  0.00  0.00    +0.000 S 
ATOM     16  C   UNL     1      44.314   2.935  10.225  0.00  0.00    +0.000 C 
ATOM     17  O   UNL     1      43.652   2.592  12.730  0.00  0.00    +0.000 OA
ATOM     18  O   UNL     1      42.714   4.573  11.484  0.00  0.00    +0.000 OA
ENDBRANCH  12  15
ENDBRANCH   6   9
BRANCH   1  19
ATOM     19  C   UNL     1      52.382   9.171  11.000  0.00  0.00    +0.000 C 
BRANCH  19  21
ATOM     20  C   UNL     1      54.778   9.594  10.296  0.00  0.00    +0.000 C 
ATOM     21  C   UNL     1      53.738   8.501  10.643  0.00  0.00    +0.000 C 
ATOM     22  C   UNL     1      54.239   7.804  11.937  0.00  0.00    +0.000 C 
BRANCH  21  23
ATOM     23  C   UNL     1      53.594   7.448   9.534  0.00  0.00    +0.000 A 
ATOM     24  C   UNL     1      53.138   7.765   8.247  0.00  0.00    +0.000 A 
ATOM     25  C   UNL     1      53.089   6.796   7.249  0.00  0.00    +0.000 A 
ATOM     26  C   UNL     1      53.498   5.512   7.567  0.00  0.00    +0.000 A 
ATOM     27  N   UNL     1      53.922   5.138   8.804  0.00  0.00    +0.000 NA
ATOM     28  C   UNL     1      53.954   6.112   9.746  0.00  0.00    +0.000 A 
BRANCH  26  29
ATOM     29  C   UNL     1      53.507   4.463   6.496  0.00  0.00    +0.000 C 
ATOM     30  N   UNL     1      53.109   3.217   6.896  0.00  0.00    +0.000 N 
ATOM     31  O   UNL     1      53.853   4.694   5.350  0.00  0.00    +0.000 OA
ATOM     32  H   UNL     1      52.857   3.058   7.865  0.00  0.00    +0.000 HD
ATOM     33  H   UNL     1      53.129   2.457   6.234  0.00  0.00    +0.000 HD
ENDBRANCH  26  29
ENDBRANCH  21  23
ENDBRANCH  19  21
ENDBRANCH   1  19
TORSDOF 6
ENDMDL
MODEL 7
REMARK VINA RESULT:    -6.518      4.807      5.897
REMARK INTER + INTRA:          -9.682
REMARK INTER:                  -9.548
REMARK INTRA:                  -0.134
REMARK UNBOUND:                -0.878
REMARK  Name = 
REMARK  9 active torsions:
REMARK  status: ('A' for Active; 'I' for Inactive)
REMARK    1  A    between atoms: C_1  and  C_2
REMARK    2  A    between atoms: C_2  and  C_3
REMARK    3  A    between atoms: C_2  and  C_4
REMARK    4  A    between atoms: C_2  and  C_22
REMARK    5  A    between atoms: C_4  and  N_5
REMARK    6  A    between atoms: C_10  and  C_11
REMARK    7  A    between atoms: C_14  and  S_15
REMARK    8  A    between atoms: S_15  and  C_16
REMARK    9  A    between atoms: C_25  and  C_26
REMARK                            x       y       z     vdW  Elec       q    Type
REMARK                         _______ _______ _______ _____ _____    ______ ____
ROOT
ATOM      1  N   UNL     1      45.932   6.420  10.980  0.00  0.00    +0.000 N 
ATOM      2  C   UNL     1      46.944   6.794  11.852  0.00  0.00    +0.000 A 
ATOM      3  C   UNL     1      46.855   6.593  13.226  0.00  0.00    +0.000 A 
ATOM      4  C   UNL     1      47.893   6.985  14.058  0.00  0.00    +0.000 A 
ATOM      5  C   UNL     1      49.040   7.509  13.487  0.00  0.00    +0.000 A 
ATOM      6  C   UNL     1      49.113   7.643  12.102  0.00  0.00    +0.000 A 
ATOM      7  N   UNL     1      48.053   7.326  11.294  0.00  0.00    +0.000 NA
ATOM      8  H   UNL     1      45.916   7.015  10.158  0.00  0.00    +0.000 HD
ENDROOT
BRANCH   6   9
ATOM      9  C   UNL     1      50.373   8.083  11.445  0.00  0.00    +0.000 A 
ATOM     10  C   UNL     1      50.800   9.413  11.447  0.00  0.00    +0.000 A 
ATOM     11  C   UNL     1      51.952   9.766  10.743  0.00  0.00    +0.000 A 
ATOM     12  C   UNL     1      52.651   8.785  10.051  0.00  0.00    +0.000 A 
ATOM     13  C   UNL     1      52.179   7.487  10.079  0.00  0.00    +0.000 A 
ATOM     14  N   UNL     1      51.075   7.122  10.774  0.00  0.00    +0.000 NA
BRANCH  12  15
ATOM     15  S   UNL     1      54.050   9.182   9.062  0.00  0.00    +0.000 S 
ATOM     16  C   UNL     1      53.398   9.334   7.420  0.00  0.00    +0.000 C 
ATOM     17  O   UNL     1      54.525  10.490   9.476  0.00  0.00    +0.000 OA
ATOM     18  O   UNL     1      54.936   8.033   9.085  0.00  0.00    +0.000 OA
ENDBRANCH  12  15
ENDBRANCH   6   9
BRANCH   1  19
ATOM     19  C   UNL     1      44.702   5.825  11.475  0.00  0.00    +0.000 C 
BRANCH  19  21
ATOM     20  C   UNL     1      45.291   3.584  12.499  0.00  0.00    +0.000 C 
ATOM     21  C   UNL     1      44.609   4.284  11.298  0.00  0.00    +0.000 C 
ATOM     22  C   UNL     1      43.100   3.924  11.372  0.00  0.00    +0.000 C 
BRANCH  21  23
ATOM     23  C   UNL     1      45.166   3.817   9.945  0.00  0.00    +0.000 A 
ATOM     24  C   UNL     1      45.607   4.713   8.962  0.00  0.00    +0.000 A 
ATOM     25  C   UNL     1      46.172   4.250   7.778  0.00  0.00    +0.000 A 
ATOM     26  C   UNL     1      46.280   2.881   7.598  0.00  0.00    +0.000 A 
ATOM     27  N   UNL     1      45.845   1.964   8.503  0.00  0.00    +0.000 NA
ATOM     28  C   UNL     1      45.300   2.457   9.642  0.00  0.00    +0.000 A 
BRANCH  26  29
ATOM     29  C   UNL     1      46.935   2.358   6.356  0.00  0.00    +0.000 C 
ATOM     30  N   UNL     1      47.074   3.267   5.342  0.00  0.00    +0.000 N 
ATOM     31  O   UNL     1      47.312   1.205   6.244  0.00  0.00    +0.000 OA
ATOM     32  H   UNL     1      46.720   4.209   5.463  0.00  0.00    +0.000 HD
ATOM     33  H   UNL     1      47.471   2.970   4.465  0.00  0.00    +0.000 HD
ENDBRANCH  26  29
ENDBRANCH  21  23
ENDBRANCH  19  21
ENDBRANCH   1  19
TORSDOF 6
ENDMDL
MODEL 8
REMARK VINA RESULT:    -6.466      3.909     10.343
REMARK INTER + INTRA:          -9.611
REMARK INTER:                  -8.382
REMARK INTRA:                  -1.229
REMARK UNBOUND:                -0.878
REMARK  Name = 
REMARK  9 active torsions:
REMARK  status: ('A' for Active; 'I' for Inactive)
REMARK    1  A    between atoms: C_1  and  C_2
REMARK    2  A    between atoms: C_2  and  C_3
REMARK    3  A    between atoms: C_2  and  C_4
REMARK    4  A    between atoms: C_2  and  C_22
REMARK    5  A    between atoms: C_4  and  N_5
REMARK    6  A    between atoms: C_10  and  C_11
REMARK    7  A    between atoms: C_14  and  S_15
REMARK    8  A    between atoms: S_15  and  C_16
REMARK    9  A    between atoms: C_25  and  C_26
REMARK                            x       y       z     vdW  Elec       q    Type
REMARK                         _______ _______ _______ _____ _____    ______ ____
ROOT
ATOM      1  N   UNL     1      49.451   6.802  17.310  0.00  0.00    +0.000 N 
ATOM      2  C   UNL     1      48.864   5.595  16.956  0.00  0.00    +0.000 A 
ATOM      3  C   UNL     1      48.877   4.486  17.798  0.00  0.00    +0.000 A 
ATOM      4  C   UNL     1      48.278   3.301  17.399  0.00  0.00    +0.000 A 
ATOM      5  C   UNL     1      47.610   3.268  16.188  0.00  0.00    +0.000 A 
ATOM      6  C   UNL     1      47.571   4.417  15.399  0.00  0.00    +0.000 A 
ATOM      7  N   UNL     1      48.232   5.560  15.763  0.00  0.00    +0.000 NA
ATOM      8  H   UNL     1      49.769   7.310  16.491  0.00  0.00    +0.000 HD
ENDROOT
BRANCH   6   9
ATOM      9  C   UNL     1      46.758   4.458  14.153  0.00  0.00    +0.000 A 
ATOM     10  C   UNL     1      46.260   5.647  13.617  0.00  0.00    +0.000 A 
ATOM     11  C   UNL     1      45.439   5.602  12.489  0.00  0.00    +0.000 A 
ATOM     12  C   UNL     1      45.131   4.370  11.924  0.00  0.00    +0.000 A 
ATOM     13  C   UNL     1      45.647   3.226  12.501  0.00  0.00    +0.000 A 
ATOM     14  N   UNL     1      46.462   3.252  13.582  0.00  0.00    +0.000 NA
BRANCH  12  15
ATOM     15  S   UNL     1      44.021   4.237  10.566  0.00  0.00    +0.000 S 
ATOM     16  C   UNL     1      45.054   4.403   9.136  0.00  0.00    +0.000 C 
ATOM     17  O   UNL     1      43.479   2.890  10.572  0.00  0.00    +0.000 OA
ATOM     18  O   UNL     1      43.139   5.387  10.615  0.00  0.00    +0.000 OA
ENDBRANCH  12  15
ENDBRANCH   6   9
BRANCH   1  19
ATOM     19  C   UNL     1      50.144   6.951  18.578  0.00  0.00    +0.000 C 
BRANCH  19  21
ATOM     20  C   UNL     1      52.102   7.585  17.101  0.00  0.00    +0.000 C 
ATOM     21  C   UNL     1      51.694   6.991  18.471  0.00  0.00    +0.000 C 
ATOM     22  C   UNL     1      52.184   7.992  19.553  0.00  0.00    +0.000 C 
BRANCH  21  23
ATOM     23  C   UNL     1      52.333   5.620  18.736  0.00  0.00    +0.000 A 
ATOM     24  C   UNL     1      52.473   4.647  17.736  0.00  0.00    +0.000 A 
ATOM     25  C   UNL     1      53.121   3.444  17.998  0.00  0.00    +0.000 A 
ATOM     26  C   UNL     1      53.616   3.235  19.275  0.00  0.00    +0.000 A 
ATOM     27  N   UNL     1      53.485   4.128  20.292  0.00  0.00    +0.000 NA
ATOM     28  C   UNL     1      52.847   5.286  19.994  0.00  0.00    +0.000 A 
BRANCH  26  29
ATOM     29  C   UNL     1      54.367   1.971  19.567  0.00  0.00    +0.000 C 
ATOM     30  N   UNL     1      53.994   0.885  18.822  0.00  0.00    +0.000 N 
ATOM     31  O   UNL     1      55.241   1.903  20.413  0.00  0.00    +0.000 OA
ATOM     32  H   UNL     1      53.242   0.974  18.149  0.00  0.00    +0.000 HD
ATOM     33  H   UNL     1      54.432  -0.006  18.995  0.00  0.00    +0.000 HD
ENDBRANCH  26  29
ENDBRANCH  21  23
ENDBRANCH  19  21
ENDBRANCH   1  19
TORSDOF 6
ENDMDL
MODEL 9
REMARK VINA RESULT:    -6.091      4.530     10.303
REMARK INTER + INTRA:          -9.105
REMARK INTER:                  -8.257
REMARK INTRA:                  -0.849
REMARK UNBOUND:                -0.878
REMARK  Name = 
REMARK  9 active torsions:
REMARK  status: ('A' for Active; 'I' for Inactive)
REMARK    1  A    between atoms: C_1  and  C_2
REMARK    2  A    between atoms: C_2  and  C_3
REMARK    3  A    between atoms: C_2  and  C_4
REMARK    4  A    between atoms: C_2  and  C_22
REMARK    5  A    between atoms: C_4  and  N_5
REMARK    6  A    between atoms: C_10  and  C_11
REMARK    7  A    between atoms: C_14  and  S_15
REMARK    8  A    between atoms: S_15  and  C_16
REMARK    9  A    between atoms: C_25  and  C_26
REMARK                            x       y       z     vdW  Elec       q    Type
REMARK                         _______ _______ _______ _____ _____    ______ ____
ROOT
ATOM      1  N   UNL     1      50.964   4.924  17.558  0.00  0.00    +0.000 N 
ATOM      2  C   UNL     1      49.694   4.393  17.382  0.00  0.00    +0.000 A 
ATOM      3  C   UNL     1      49.024   3.713  18.395  0.00  0.00    +0.000 A 
ATOM      4  C   UNL     1      47.755   3.200  18.170  0.00  0.00    +0.000 A 
ATOM      5  C   UNL     1      47.148   3.440  16.951  0.00  0.00    +0.000 A 
ATOM      6  C   UNL     1      47.829   4.174  15.981  0.00  0.00    +0.000 A 
ATOM      7  N   UNL     1      49.112   4.610  16.183  0.00  0.00    +0.000 NA
ATOM      8  H   UNL     1      51.476   4.950  16.683  0.00  0.00    +0.000 HD
ENDROOT
BRANCH   6   9
ATOM      9  C   UNL     1      47.161   4.559  14.709  0.00  0.00    +0.000 A 
ATOM     10  C   UNL     1      47.168   5.867  14.220  0.00  0.00    +0.000 A 
ATOM     11  C   UNL     1      46.454   6.171  13.060  0.00  0.00    +0.000 A 
ATOM     12  C   UNL     1      45.747   5.164  12.416  0.00  0.00    +0.000 A 
ATOM     13  C   UNL     1      45.771   3.889  12.948  0.00  0.00    +0.000 A 
ATOM     14  N   UNL     1      46.475   3.571  14.061  0.00  0.00    +0.000 NA
BRANCH  12  15
ATOM     15  S   UNL     1      44.745   5.502  11.010  0.00  0.00    +0.000 S 
ATOM     16  C   UNL     1      43.685   4.087  10.877  0.00  0.00    +0.000 C 
ATOM     17  O   UNL     1      43.918   6.652  11.326  0.00  0.00    +0.000 OA
ATOM     18  O   UNL     1      45.618   5.516   9.851  0.00  0.00    +0.000 OA
ENDBRANCH  12  15
ENDBRANCH   6   9
BRANCH   1  19
ATOM     19  C   UNL     1      51.673   4.760  18.815  0.00  0.00    +0.000 C 
BRANCH  19  21
ATOM     20  C   UNL     1      53.752   5.300  17.472  0.00  0.00    +0.000 C 
ATOM     21  C   UNL     1      53.198   4.494  18.672  0.00  0.00    +0.000 C 
ATOM     22  C   UNL     1      53.867   5.076  19.947  0.00  0.00    +0.000 C 
BRANCH  21  23
ATOM     23  C   UNL     1      53.522   2.995  18.580  0.00  0.00    +0.000 A 
ATOM     24  C   UNL     1      54.750   2.463  18.996  0.00  0.00    +0.000 A 
ATOM     25  C   UNL     1      54.979   1.090  18.963  0.00  0.00    +0.000 A 
ATOM     26  C   UNL     1      53.963   0.270  18.503  0.00  0.00    +0.000 A 
ATOM     27  N   UNL     1      52.763   0.731  18.060  0.00  0.00    +0.000 NA
ATOM     28  C   UNL     1      52.581   2.074  18.109  0.00  0.00    +0.000 A 
BRANCH  26  29
ATOM     29  C   UNL     1      54.165  -1.215  18.510  0.00  0.00    +0.000 C 
ATOM     30  N   UNL     1      53.156  -1.938  19.085  0.00  0.00    +0.000 N 
ATOM     31  O   UNL     1      55.158  -1.748  18.047  0.00  0.00    +0.000 OA
ATOM     32  H   UNL     1      52.359  -1.456  19.487  0.00  0.00    +0.000 HD
ATOM     33  H   UNL     1      53.246  -2.939  19.158  0.00  0.00    +0.000 HD
ENDBRANCH  26  29
ENDBRANCH  21  23
ENDBRANCH  19  21
ENDBRANCH   1  19
TORSDOF 6
ENDMDL
