MODEL 1
REMARK VINA RESULT:    -8.003      0.000      0.000
REMARK INTER + INTRA:         -11.150
REMARK INTER:                 -10.576
REMARK INTRA:                  -0.574
REMARK UNBOUND:                -0.574
REMARK  Name = 
REMARK  6 active torsions:
REMARK  status: ('A' for Active; 'I' for Inactive)
REMARK    1  A    between atoms: C_2  and  C_4
REMARK    2  A    between atoms: C_7  and  O_8
REMARK    3  A    between atoms: O_8  and  C_9
REMARK    4  A    between atoms: C_9  and  C_10
REMARK    5  A    between atoms: C_9  and  C_12
REMARK    6  A    between atoms: C_10  and  O_11
REMARK                            x       y       z     vdW  Elec       q    Type
REMARK                         _______ _______ _______ _____ _____    ______ ____
ROOT
ATOM      1  C   UNL     1      46.464   2.634   7.432  0.00  0.00    +0.000 A 
ATOM      2  C   UNL     1      45.994   1.695   8.351  0.00  0.00    +0.000 A 
ATOM      3  C   UNL     1      45.073   2.094   9.319  0.00  0.00    +0.000 A 
ATOM      4  C   UNL     1      44.639   3.412   9.323  0.00  0.00    +0.000 A 
ATOM      5  N   UNL     1      45.067   4.345   8.449  0.00  0.00    +0.000 NA
ATOM      6  C   UNL     1      45.986   3.937   7.532  0.00  0.00    +0.000 A 
ENDROOT
BRANCH   1   8
ATOM      7  N   UNL     1      47.480   3.094   5.269  0.00  0.00    +0.000 N 
ATOM      8  C   UNL     1      47.466   2.318   6.394  0.00  0.00    +0.000 C 
ATOM      9  O   UNL     1      48.275   1.413   6.546  0.00  0.00    +0.000 OA
ATOM     10  H   UNL     1      48.229   2.916   4.610  0.00  0.00    +0.000 HD
ATOM     11  H   UNL     1      47.004   3.983   5.202  0.00  0.00    +0.000 HD
ENDBRANCH   1   8
BRANCH   4  12
ATOM     12  O   UNL     1      43.716   3.738  10.293  0.00  0.00    +0.000 OA
BRANCH  12  13
ATOM     13  C   UNL     1      43.826   5.069  10.824  0.00  0.00    +0.000 C 
BRANCH  13  14
ATOM     14  C   UNL     1      45.067   5.155  11.716  0.00  0.00    +0.000 A 
ATOM     15  C   UNL     1      45.986   6.210  11.542  0.00  0.00    +0.000 A 
ATOM     16  C   UNL     1      47.112   6.318  12.361  0.00  0.00    +0.000 A 
ATOM     17  C   UNL     1      47.338   5.382  13.366  0.00  0.00    +0.000 A 
ATOM     18  C   UNL     1      46.439   4.336  13.555  0.00  0.00    +0.000 A 
ATOM     19  C   UNL     1      45.310   4.225  12.738  0.00  0.00    +0.000 A 
ENDBRANCH  13  14
BRANCH  13  20
ATOM     20  C   UNL     1      42.551   5.424  11.629  0.00  0.00    +0.000 C 
BRANCH  20  21
ATOM     21  O   UNL     1      42.191   6.806  11.505  0.00  0.00    +0.000 OA
ATOM     22  H   UNL     1      41.790   7.062  12.353  0.00  0.00    +0.000 HD
ENDBRANCH  20  21
ENDBRANCH  13  20
ENDBRANCH  12  13
ENDBRANCH   4  12
TORSDOF 6
ENDMDL
MODEL 2
REMARK VINA RESULT:    -6.823      1.666      2.268
REMARK INTER + INTRA:          -9.591
REMARK INTER:                  -9.840
REMARK INTRA:                   0.249
REMARK UNBOUND:                -0.574
REMARK  Name = 
REMARK  6 active torsions:
REMARK  status: ('A' for Active; 'I' for Inactive)
REMARK    1  A    between atoms: C_2  and  C_4
REMARK    2  A    between atoms: C_7  and  O_8
REMARK    3  A    between atoms: O_8  and  C_9
REMARK    4  A    between atoms: C_9  and  C_10
REMARK    5  A    between atoms: C_9  and  C_12
REMARK    6  A    between atoms: C_10  and  O_11
REMARK                            x       y       z     vdW  Elec       q    Type
REMARK                         _______ _______ _______ _____ _____    ______ ____
ROOT
ATOM      1  C   UNL     1      46.231   2.068   8.022  0.00  0.00    +0.000 A 
ATOM      2  C   UNL     1      46.350   3.442   7.812  0.00  0.00    +0.000 A 
ATOM      3  C   UNL     1      45.432   4.303   8.412  0.00  0.00    +0.000 A 
ATOM      4  C   UNL     1      44.440   3.762   9.218  0.00  0.00    +0.000 A 
ATOM      5  N   UNL     1      44.297   2.441   9.446  0.00  0.00    +0.000 NA
ATOM      6  C   UNL     1      45.188   1.621   8.827  0.00  0.00    +0.000 A 
ENDROOT
BRANCH   1   8
ATOM      7  N   UNL     1      46.868  -0.248   7.629  0.00  0.00    +0.000 N 
ATOM      8  C   UNL     1      47.130   1.074   7.399  0.00  0.00    +0.000 C 
ATOM      9  O   UNL     1      48.058   1.418   6.681  0.00  0.00    +0.000 OA
ATOM     10  H   UNL     1      47.443  -0.913   7.124  0.00  0.00    +0.000 HD
ATOM     11  H   UNL     1      45.994  -0.584   8.007  0.00  0.00    +0.000 HD
ENDBRANCH   1   8
BRANCH   4  12
ATOM     12  O   UNL     1      43.576   4.667   9.797  0.00  0.00    +0.000 OA
BRANCH  12  13
ATOM     13  C   UNL     1      43.703   4.812  11.222  0.00  0.00    +0.000 C 
BRANCH  13  14
ATOM     14  C   UNL     1      44.745   5.890  11.529  0.00  0.00    +0.000 A 
ATOM     15  C   UNL     1      44.395   7.252  11.441  0.00  0.00    +0.000 A 
ATOM     16  C   UNL     1      45.327   8.250  11.740  0.00  0.00    +0.000 A 
ATOM     17  C   UNL     1      46.617   7.907  12.133  0.00  0.00    +0.000 A 
ATOM     18  C   UNL     1      46.979   6.566  12.229  0.00  0.00    +0.000 A 
ATOM     19  C   UNL     1      46.050   5.564  11.933  0.00  0.00    +0.000 A 
ENDBRANCH  13  14
BRANCH  13  20
ATOM     20  C   UNL     1      44.113   3.461  11.856  0.00  0.00    +0.000 C 
BRANCH  20  21
ATOM     21  O   UNL     1      43.584   3.292  13.178  0.00  0.00    +0.000 OA
ATOM     22  H   UNL     1      44.069   3.913  13.748  0.00  0.00    +0.000 HD
ENDBRANCH  20  21
ENDBRANCH  13  20
ENDBRANCH  12  13
ENDBRANCH   4  12
TORSDOF 6
ENDMDL
MODEL 3
REMARK VINA RESULT:    -6.362      3.121      6.337
REMARK INTER + INTRA:          -8.982
REMARK INTER:                  -8.556
REMARK INTRA:                  -0.426
REMARK UNBOUND:                -0.574
REMARK  Name = 
REMARK  6 active torsions:
REMARK  status: ('A' for Active; 'I' for Inactive)
REMARK    1  A    between atoms: C_2  and  C_4
REMARK    2  A    between atoms: C_7  and  O_8
REMARK    3  A    between atoms: O_8  and  C_9
REMARK    4  A    between atoms: C_9  and  C_10
REMARK    5  A    between atoms: C_9  and  C_12
REMARK    6  A    between atoms: C_10  and  O_11
REMARK                            x       y       z     vdW  Elec       q    Type
REMARK                         _______ _______ _______ _____ _____    ______ ____
ROOT
ATOM      1  C   UNL     1      46.695   7.885  13.132  0.00  0.00    +0.000 A 
ATOM      2  C   UNL     1      45.629   8.377  12.377  0.00  0.00    +0.000 A 
ATOM      3  C   UNL     1      44.806   7.479  11.700  0.00  0.00    +0.000 A 
ATOM      4  C   UNL     1      45.063   6.120  11.816  0.00  0.00    +0.000 A 
ATOM      5  N   UNL     1      46.080   5.610  12.540  0.00  0.00    +0.000 NA
ATOM      6  C   UNL     1      46.885   6.508  13.169  0.00  0.00    +0.000 A 
ENDROOT
BRANCH   1   8
ATOM      7  N   UNL     1      47.407   8.991  15.181  0.00  0.00    +0.000 N 
ATOM      8  C   UNL     1      47.644   8.758  13.855  0.00  0.00    +0.000 C 
ATOM      9  O   UNL     1      48.624   9.231  13.296  0.00  0.00    +0.000 OA
ATOM     10  H   UNL     1      48.115   9.520  15.677  0.00  0.00    +0.000 HD
ATOM     11  H   UNL     1      46.763   8.444  15.734  0.00  0.00    +0.000 HD
ENDBRANCH   1   8
BRANCH   4  12
ATOM     12  O   UNL     1      44.203   5.285  11.138  0.00  0.00    +0.000 OA
BRANCH  12  13
ATOM     13  C   UNL     1      44.567   3.894  11.139  0.00  0.00    +0.000 C 
BRANCH  13  14
ATOM     14  C   UNL     1      45.188   3.534   9.787  0.00  0.00    +0.000 A 
ATOM     15  C   UNL     1      45.334   2.182   9.418  0.00  0.00    +0.000 A 
ATOM     16  C   UNL     1      45.877   1.835   8.178  0.00  0.00    +0.000 A 
ATOM     17  C   UNL     1      46.278   2.827   7.288  0.00  0.00    +0.000 A 
ATOM     18  C   UNL     1      46.137   4.168   7.634  0.00  0.00    +0.000 A 
ATOM     19  C   UNL     1      45.592   4.520   8.873  0.00  0.00    +0.000 A 
ENDBRANCH  13  14
BRANCH  13  20
ATOM     20  C   UNL     1      43.318   3.021  11.414  0.00  0.00    +0.000 C 
BRANCH  20  21
ATOM     21  O   UNL     1      43.497   2.144  12.534  0.00  0.00    +0.000 OA
ATOM     22  H   UNL     1      43.616   2.715  13.313  0.00  0.00    +0.000 HD
ENDBRANCH  20  21
ENDBRANCH  13  20
ENDBRANCH  12  13
ENDBRANCH   4  12
TORSDOF 6
ENDMDL
MODEL 4
REMARK VINA RESULT:    -6.293      3.357      6.220
REMARK INTER + INTRA:          -8.890
REMARK INTER:                  -8.316
REMARK INTRA:                  -0.574
REMARK UNBOUND:                -0.574
REMARK  Name = 
REMARK  6 active torsions:
REMARK  status: ('A' for Active; 'I' for Inactive)
REMARK    1  A    between atoms: C_2  and  C_4
REMARK    2  A    between atoms: C_7  and  O_8
REMARK    3  A    between atoms: O_8  and  C_9
REMARK    4  A    between atoms: C_9  and  C_10
REMARK    5  A    between atoms: C_9  and  C_12
REMARK    6  A    between atoms: C_10  and  O_11
REMARK                            x       y       z     vdW  Elec       q    Type
REMARK                         _______ _______ _______ _____ _____    ______ ____
ROOT
ATOM      1  C   UNL     1      47.892   6.449  14.262  0.00  0.00    +0.000 A 
ATOM      2  C   UNL     1      47.048   5.342  14.151  0.00  0.00    +0.000 A 
ATOM      3  C   UNL     1      46.126   5.295  13.107  0.00  0.00    +0.000 A 
ATOM      4  C   UNL     1      46.092   6.344  12.199  0.00  0.00    +0.000 A 
ATOM      5  N   UNL     1      46.893   7.425  12.273  0.00  0.00    +0.000 NA
ATOM      6  C   UNL     1      47.766   7.460  13.316  0.00  0.00    +0.000 A 
ENDROOT
BRANCH   1   8
ATOM      7  N   UNL     1      48.410   6.567  16.638  0.00  0.00    +0.000 N 
ATOM      8  C   UNL     1      48.876   6.609  15.354  0.00  0.00    +0.000 C 
ATOM      9  O   UNL     1      50.068   6.745  15.119  0.00  0.00    +0.000 OA
ATOM     10  H   UNL     1      49.110   6.591  17.370  0.00  0.00    +0.000 HD
ATOM     11  H   UNL     1      47.492   6.223  16.884  0.00  0.00    +0.000 HD
ENDBRANCH   1   8
BRANCH   4  12
ATOM     12  O   UNL     1      45.170   6.227  11.181  0.00  0.00    +0.000 OA
BRANCH  12  13
ATOM     13  C   UNL     1      44.461   4.977  11.133  0.00  0.00    +0.000 C 
BRANCH  13  14
ATOM     14  C   UNL     1      44.988   4.142   9.964  0.00  0.00    +0.000 A 
ATOM     15  C   UNL     1      44.837   2.741   9.976  0.00  0.00    +0.000 A 
ATOM     16  C   UNL     1      45.291   1.965   8.907  0.00  0.00    +0.000 A 
ATOM     17  C   UNL     1      45.897   2.571   7.810  0.00  0.00    +0.000 A 
ATOM     18  C   UNL     1      46.051   3.954   7.779  0.00  0.00    +0.000 A 
ATOM     19  C   UNL     1      45.597   4.735   8.846  0.00  0.00    +0.000 A 
ENDBRANCH  13  14
BRANCH  13  20
ATOM     20  C   UNL     1      42.943   5.237  10.977  0.00  0.00    +0.000 C 
BRANCH  20  21
ATOM     21  O   UNL     1      42.561   6.544  11.426  0.00  0.00    +0.000 OA
ATOM     22  H   UNL     1      43.189   6.786  12.129  0.00  0.00    +0.000 HD
ENDBRANCH  20  21
ENDBRANCH  13  20
ENDBRANCH  12  13
ENDBRANCH   4  12
TORSDOF 6
ENDMDL
MODEL 5
REMARK VINA RESULT:    -6.038      3.919      6.278
REMARK INTER + INTRA:          -8.553
REMARK INTER:                  -7.934
REMARK INTRA:                  -0.620
REMARK UNBOUND:                -0.574
REMARK  Name = 
REMARK  6 active torsions:
REMARK  status: ('A' for Active; 'I' for Inactive)
REMARK    1  A    between atoms: C_2  and  C_4
REMARK    2  A    between atoms: C_7  and  O_8
REMARK    3  A    between atoms: O_8  and  C_9
REMARK    4  A    between atoms: C_9  and  C_10
REMARK    5  A    between atoms: C_9  and  C_12
REMARK    6  A    between atoms: C_10  and  O_11
REMARK                            x       y       z     vdW  Elec       q    Type
REMARK                         _______ _______ _______ _____ _____    ______ ____
ROOT
ATOM      1  C   UNL     1      44.896   4.800  11.992  0.00  0.00    +0.000 A 
ATOM      2  C   UNL     1      45.600   5.851  12.582  0.00  0.00    +0.000 A 
ATOM      3  C   UNL     1      46.592   5.561  13.518  0.00  0.00    +0.000 A 
ATOM      4  C   UNL     1      46.861   4.233  13.816  0.00  0.00    +0.000 A 
ATOM      5  N   UNL     1      46.204   3.193  13.263  0.00  0.00    +0.000 NA
ATOM      6  C   UNL     1      45.222   3.503  12.374  0.00  0.00    +0.000 A 
ENDROOT
BRANCH   1   8
ATOM      7  N   UNL     1      44.071   4.757   9.702  0.00  0.00    +0.000 N 
ATOM      8  C   UNL     1      43.802   5.005  11.019  0.00  0.00    +0.000 C 
ATOM      9  O   UNL     1      42.688   5.357  11.381  0.00  0.00    +0.000 OA
ATOM     10  H   UNL     1      43.286   4.820   9.065  0.00  0.00    +0.000 HD
ATOM     11  H   UNL     1      44.884   4.246   9.389  0.00  0.00    +0.000 HD
ENDBRANCH   1   8
BRANCH   4  12
ATOM     12  O   UNL     1      47.865   4.014  14.734  0.00  0.00    +0.000 OA
BRANCH  12  13
ATOM     13  C   UNL     1      47.423   3.716  16.070  0.00  0.00    +0.000 C 
BRANCH  13  14
ATOM     14  C   UNL     1      47.775   4.887  16.990  0.00  0.00    +0.000 A 
ATOM     15  C   UNL     1      48.731   5.839  16.583  0.00  0.00    +0.000 A 
ATOM     16  C   UNL     1      49.048   6.927  17.399  0.00  0.00    +0.000 A 
ATOM     17  C   UNL     1      48.416   7.087  18.629  0.00  0.00    +0.000 A 
ATOM     18  C   UNL     1      47.466   6.159  19.046  0.00  0.00    +0.000 A 
ATOM     19  C   UNL     1      47.144   5.069  18.231  0.00  0.00    +0.000 A 
ENDBRANCH  13  14
BRANCH  13  20
ATOM     20  C   UNL     1      48.091   2.411  16.568  0.00  0.00    +0.000 C 
BRANCH  20  21
ATOM     21  O   UNL     1      49.178   1.998  15.731  0.00  0.00    +0.000 OA
ATOM     22  H   UNL     1      49.414   1.097  16.013  0.00  0.00    +0.000 HD
ENDBRANCH  20  21
ENDBRANCH  13  20
ENDBRANCH  12  13
ENDBRANCH   4  12
TORSDOF 6
ENDMDL
MODEL 6
REMARK VINA RESULT:    -5.746      3.440      5.417
REMARK INTER + INTRA:          -8.168
REMARK INTER:                  -7.582
REMARK INTRA:                  -0.586
REMARK UNBOUND:                -0.574
REMARK  Name = 
REMARK  6 active torsions:
REMARK  status: ('A' for Active; 'I' for Inactive)
REMARK    1  A    between atoms: C_2  and  C_4
REMARK    2  A    between atoms: C_7  and  O_8
REMARK    3  A    between atoms: O_8  and  C_9
REMARK    4  A    between atoms: C_9  and  C_10
REMARK    5  A    between atoms: C_9  and  C_12
REMARK    6  A    between atoms: C_10  and  O_11
REMARK                            x       y       z     vdW  Elec       q    Type
REMARK                         _______ _______ _______ _____ _____    ______ ____
ROOT
ATOM      1  C   UNL     1      44.900   3.904  11.312  0.00  0.00    +0.000 A 
ATOM      2  C   UNL     1      45.137   5.079  10.597  0.00  0.00    +0.000 A 
ATOM      3  C   UNL     1      45.956   6.059  11.155  0.00  0.00    +0.000 A 
ATOM      4  C   UNL     1      46.527   5.824  12.398  0.00  0.00    +0.000 A 
ATOM      5  N   UNL     1      46.324   4.700  13.114  0.00  0.00    +0.000 NA
ATOM      6  C   UNL     1      45.498   3.771  12.560  0.00  0.00    +0.000 A 
ENDROOT
BRANCH   1   8
ATOM      7  N   UNL     1      44.469   2.060   9.782  0.00  0.00    +0.000 N 
ATOM      8  C   UNL     1      44.018   2.824  10.822  0.00  0.00    +0.000 C 
ATOM      9  O   UNL     1      42.936   2.600  11.347  0.00  0.00    +0.000 OA
ATOM     10  H   UNL     1      43.888   1.272   9.520  0.00  0.00    +0.000 HD
ATOM     11  H   UNL     1      45.433   2.048   9.479  0.00  0.00    +0.000 HD
ENDBRANCH   1   8
BRANCH   4  12
ATOM     12  O   UNL     1      47.340   6.823  12.885  0.00  0.00    +0.000 OA
BRANCH  12  13
ATOM     13  C   UNL     1      47.209   8.097  12.230  0.00  0.00    +0.000 C 
BRANCH  13  14
ATOM     14  C   UNL     1      48.597   8.598  11.821  0.00  0.00    +0.000 A 
ATOM     15  C   UNL     1      49.673   7.693  11.732  0.00  0.00    +0.000 A 
ATOM     16  C   UNL     1      50.941   8.129  11.338  0.00  0.00    +0.000 A 
ATOM     17  C   UNL     1      51.154   9.467  11.023  0.00  0.00    +0.000 A 
ATOM     18  C   UNL     1      50.102  10.375  11.101  0.00  0.00    +0.000 A 
ATOM     19  C   UNL     1      48.830   9.943  11.494  0.00  0.00    +0.000 A 
ENDBRANCH  13  14
BRANCH  13  20
ATOM     20  C   UNL     1      46.521   9.110  13.177  0.00  0.00    +0.000 C 
BRANCH  20  21
ATOM     21  O   UNL     1      46.922   8.943  14.543  0.00  0.00    +0.000 OA
ATOM     22  H   UNL     1      47.435   9.736  14.776  0.00  0.00    +0.000 HD
ENDBRANCH  20  21
ENDBRANCH  13  20
ENDBRANCH  12  13
ENDBRANCH   4  12
TORSDOF 6
ENDMDL
MODEL 7
REMARK VINA RESULT:    -5.617      5.230      8.202
REMARK INTER + INTRA:          -7.997
REMARK INTER:                  -7.302
REMARK INTRA:                  -0.696
REMARK UNBOUND:                -0.574
REMARK  Name = 
REMARK  6 active torsions:
REMARK  status: ('A' for Active; 'I' for Inactive)
REMARK    1  A    between atoms: C_2  and  C_4
REMARK    2  A    between atoms: C_7  and  O_8
REMARK    3  A    between atoms: O_8  and  C_9
REMARK    4  A    between atoms: C_9  and  C_10
REMARK    5  A    between atoms: C_9  and  C_12
REMARK    6  A    between atoms: C_10  and  O_11
REMARK                            x       y       z     vdW  Elec       q    Type
REMARK                         _______ _______ _______ _____ _____    ______ ____
ROOT
ATOM      1  C   UNL     1      48.159   4.746  18.031  0.00  0.00    +0.000 A 
ATOM      2  C   UNL     1      47.303   3.799  17.466  0.00  0.00    +0.000 A 
ATOM      3  C   UNL     1      47.092   3.812  16.089  0.00  0.00    +0.000 A 
ATOM      4  C   UNL     1      47.758   4.756  15.320  0.00  0.00    +0.000 A 
ATOM      5  N   UNL     1      48.594   5.682  15.830  0.00  0.00    +0.000 NA
ATOM      6  C   UNL     1      48.762   5.666  17.180  0.00  0.00    +0.000 A 
ENDROOT
BRANCH   1   8
ATOM      7  N   UNL     1      48.540   3.668  20.180  0.00  0.00    +0.000 N 
ATOM      8  C   UNL     1      48.418   4.838  19.483  0.00  0.00    +0.000 C 
ATOM      9  O   UNL     1      48.548   5.920  20.038  0.00  0.00    +0.000 OA
ATOM     10  H   UNL     1      48.803   3.753  21.155  0.00  0.00    +0.000 HD
ATOM     11  H   UNL     1      48.678   2.770  19.738  0.00  0.00    +0.000 HD
ENDBRANCH   1   8
BRANCH   4  12
ATOM     12  O   UNL     1      47.520   4.703  13.964  0.00  0.00    +0.000 OA
BRANCH  12  13
ATOM     13  C   UNL     1      46.868   5.859  13.408  0.00  0.00    +0.000 C 
BRANCH  13  14
ATOM     14  C   UNL     1      45.625   5.412  12.635  0.00  0.00    +0.000 A 
ATOM     15  C   UNL     1      44.491   4.951  13.333  0.00  0.00    +0.000 A 
ATOM     16  C   UNL     1      43.339   4.561  12.646  0.00  0.00    +0.000 A 
ATOM     17  C   UNL     1      43.297   4.629  11.256  0.00  0.00    +0.000 A 
ATOM     18  C   UNL     1      44.406   5.087  10.550  0.00  0.00    +0.000 A 
ATOM     19  C   UNL     1      45.561   5.479  11.234  0.00  0.00    +0.000 A 
ENDBRANCH  13  14
BRANCH  13  20
ATOM     20  C   UNL     1      47.844   6.620  12.478  0.00  0.00    +0.000 C 
BRANCH  20  21
ATOM     21  O   UNL     1      49.217   6.401  12.828  0.00  0.00    +0.000 OA
ATOM     22  H   UNL     1      49.557   5.739  12.201  0.00  0.00    +0.000 HD
ENDBRANCH  20  21
ENDBRANCH  13  20
ENDBRANCH  12  13
ENDBRANCH   4  12
TORSDOF 6
ENDMDL
MODEL 8
REMARK VINA RESULT:    -5.231      3.547      5.305
REMARK INTER + INTRA:          -7.488
REMARK INTER:                  -6.818
REMARK INTRA:                  -0.669
REMARK UNBOUND:                -0.574
REMARK  Name = 
REMARK  6 active torsions:
REMARK  status: ('A' for Active; 'I' for Inactive)
REMARK    1  A    between atoms: C_2  and  C_4
REMARK    2  A    between atoms: C_7  and  O_8
REMARK    3  A    between atoms: O_8  and  C_9
REMARK    4  A    between atoms: C_9  and  C_10
REMARK    5  A    between atoms: C_9  and  C_12
REMARK    6  A    between atoms: C_10  and  O_11
REMARK                            x       y       z     vdW  Elec       q    Type
REMARK                         _______ _______ _______ _____ _____    ______ ____
ROOT
ATOM      1  C   UNL     1      44.593   4.278  11.703  0.00  0.00    +0.000 A 
ATOM      2  C   UNL     1      45.709   4.257  12.542  0.00  0.00    +0.000 A 
ATOM      3  C   UNL     1      46.272   5.465  12.951  0.00  0.00    +0.000 A 
ATOM      4  C   UNL     1      45.690   6.651  12.527  0.00  0.00    +0.000 A 
ATOM      5  N   UNL     1      44.611   6.709  11.721  0.00  0.00    +0.000 NA
ATOM      6  C   UNL     1      44.096   5.518  11.313  0.00  0.00    +0.000 A 
ENDROOT
BRANCH   1   8
ATOM      7  N   UNL     1      43.460   2.161  12.098  0.00  0.00    +0.000 N 
ATOM      8  C   UNL     1      43.948   3.054  11.185  0.00  0.00    +0.000 C 
ATOM      9  O   UNL     1      43.827   2.859   9.984  0.00  0.00    +0.000 OA
ATOM     10  H   UNL     1      42.945   1.372  11.722  0.00  0.00    +0.000 HD
ATOM     11  H   UNL     1      43.322   2.383  13.074  0.00  0.00    +0.000 HD
ENDBRANCH   1   8
BRANCH   4  12
ATOM     12  O   UNL     1      46.283   7.808  12.982  0.00  0.00    +0.000 OA
BRANCH  12  13
ATOM     13  C   UNL     1      46.559   8.796  11.973  0.00  0.00    +0.000 C 
BRANCH  13  14
ATOM     14  C   UNL     1      48.072   9.006  11.874  0.00  0.00    +0.000 A 
ATOM     15  C   UNL     1      48.582  10.250  11.452  0.00  0.00    +0.000 A 
ATOM     16  C   UNL     1      49.960  10.468  11.377  0.00  0.00    +0.000 A 
ATOM     17  C   UNL     1      50.848   9.455  11.725  0.00  0.00    +0.000 A 
ATOM     18  C   UNL     1      50.362   8.221  12.148  0.00  0.00    +0.000 A 
ATOM     19  C   UNL     1      48.984   7.999  12.226  0.00  0.00    +0.000 A 
ENDBRANCH  13  14
BRANCH  13  20
ATOM     20  C   UNL     1      45.846  10.124  12.326  0.00  0.00    +0.000 C 
BRANCH  20  21
ATOM     21  O   UNL     1      44.465   9.933  12.660  0.00  0.00    +0.000 OA
ATOM     22  H   UNL     1      44.021  10.780  12.483  0.00  0.00    +0.000 HD
ENDBRANCH  20  21
ENDBRANCH  13  20
ENDBRANCH  12  13
ENDBRANCH   4  12
TORSDOF 6
ENDMDL
MODEL 9
REMARK VINA RESULT:    -5.046      4.671      6.837
REMARK INTER + INTRA:          -7.243
REMARK INTER:                  -6.763
REMARK INTRA:                  -0.480
REMARK UNBOUND:                -0.574
REMARK  Name = 
REMARK  6 active torsions:
REMARK  status: ('A' for Active; 'I' for Inactive)
REMARK    1  A    between atoms: C_2  and  C_4
REMARK    2  A    between atoms: C_7  and  O_8
REMARK    3  A    between atoms: O_8  and  C_9
REMARK    4  A    between atoms: C_9  and  C_10
REMARK    5  A    between atoms: C_9  and  C_12
REMARK    6  A    between atoms: C_10  and  O_11
REMARK                            x       y       z     vdW  Elec       q    Type
REMARK                         _______ _______ _______ _____ _____    ______ ____
ROOT
ATOM      1  C   UNL     1      50.591   8.102  13.003  0.00  0.00    +0.000 A 
ATOM      2  C   UNL     1      49.739   7.867  11.923  0.00  0.00    +0.000 A 
ATOM      3  C   UNL     1      48.487   7.300  12.157  0.00  0.00    +0.000 A 
ATOM      4  C   UNL     1      48.121   7.007  13.463  0.00  0.00    +0.000 A 
ATOM      5  N   UNL     1      48.915   7.224  14.530  0.00  0.00    +0.000 NA
ATOM      6  C   UNL     1      50.142   7.752  14.273  0.00  0.00    +0.000 A 
ENDROOT
BRANCH   1   8
ATOM      7  N   UNL     1      52.891   7.889  12.235  0.00  0.00    +0.000 N 
ATOM      8  C   UNL     1      51.950   8.663  12.854  0.00  0.00    +0.000 C 
ATOM      9  O   UNL     1      52.218   9.791  13.245  0.00  0.00    +0.000 OA
ATOM     10  H   UNL     1      53.790   8.325  12.066  0.00  0.00    +0.000 HD
ATOM     11  H   UNL     1      52.664   7.067  11.693  0.00  0.00    +0.000 HD
ENDBRANCH   1   8
BRANCH   4  12
ATOM     12  O   UNL     1      46.864   6.467  13.628  0.00  0.00    +0.000 OA
BRANCH  12  13
ATOM     13  C   UNL     1      46.774   5.046  13.421  0.00  0.00    +0.000 C 
BRANCH  13  14
ATOM     14  C   UNL     1      45.426   4.716  12.777  0.00  0.00    +0.000 A 
ATOM     15  C   UNL     1      44.431   5.709  12.678  0.00  0.00    +0.000 A 
ATOM     16  C   UNL     1      43.203   5.432  12.072  0.00  0.00    +0.000 A 
ATOM     17  C   UNL     1      42.949   4.166  11.553  0.00  0.00    +0.000 A 
ATOM     18  C   UNL     1      43.921   3.174  11.637  0.00  0.00    +0.000 A 
ATOM     19  C   UNL     1      45.152   3.447  12.242  0.00  0.00    +0.000 A 
ENDBRANCH  13  14
BRANCH  13  20
ATOM     20  C   UNL     1      46.929   4.305  14.772  0.00  0.00    +0.000 C 
BRANCH  20  21
ATOM     21  O   UNL     1      47.612   3.052  14.635  0.00  0.00    +0.000 OA
ATOM     22  H   UNL     1      47.863   2.778  15.533  0.00  0.00    +0.000 HD
ENDBRANCH  20  21
ENDBRANCH  13  20
ENDBRANCH  12  13
ENDBRANCH   4  12
TORSDOF 6
ENDMDL
