MODEL 1
REMARK VINA RESULT:    -7.830      0.000      0.000
REMARK INTER + INTRA:         -10.930
REMARK INTER:                 -10.119
REMARK INTRA:                  -0.811
REMARK UNBOUND:                -0.811
REMARK  Name = 
REMARK  5 active torsions:
REMARK  status: ('A' for Active; 'I' for Inactive)
REMARK    1  A    between atoms: C_2  and  C_5
REMARK    2  A    between atoms: C_7  and  N_8
REMARK    3  A    between atoms: N_8  and  C_9
REMARK    4  A    between atoms: C_9  and  C_10
REMARK    5  A    between atoms: C_17  and  C_18
REMARK                            x       y       z     vdW  Elec       q    Type
REMARK                         _______ _______ _______ _____ _____    ______ ____
ROOT
ATOM      1  C   UNL     1      46.043   4.967  13.024  0.00  0.00    +0.000 A 
ATOM      2  C   UNL     1      45.587   4.054  12.095  0.00  0.00    +0.000 A 
ATOM      3  C   UNL     1      44.954   4.546  10.973  0.00  0.00    +0.000 A 
ATOM      4  N   UNL     1      44.739   5.857  10.801  0.00  0.00    +0.000 NA
ATOM      5  C   UNL     1      45.160   6.691  11.771  0.00  0.00    +0.000 A 
ATOM      6  N   UNL     1      45.817   6.296  12.877  0.00  0.00    +0.000 NA
ENDROOT
BRANCH   5   7
ATOM      7  C   UNL     1      44.879   8.125  11.623  0.00  0.00    +0.000 A 
ATOM      8  C   UNL     1      45.736   9.098  12.144  0.00  0.00    +0.000 A 
ATOM      9  N   UNL     1      45.550  10.441  12.041  0.00  0.00    +0.000 NA
ATOM     10  C   UNL     1      44.442  10.849  11.382  0.00  0.00    +0.000 A 
ATOM     11  C   UNL     1      43.524   9.977  10.823  0.00  0.00    +0.000 A 
ATOM     12 CL   UNL     1      42.140  10.569   9.997  0.00  0.00    +0.000 Cl
ATOM     13  C   UNL     1      43.746   8.607  10.944  0.00  0.00    +0.000 A 
ENDBRANCH   5   7
BRANCH   1  15
ATOM     14  F   UNL     1      46.117   4.389  15.365  0.00  0.00    +0.000 F 
ATOM     15  C   UNL     1      46.850   4.480  14.215  0.00  0.00    +0.000 C 
ATOM     16  F   UNL     1      47.899   5.297  14.516  0.00  0.00    +0.000 F 
ATOM     17  F   UNL     1      47.380   3.238  14.024  0.00  0.00    +0.000 F 
ENDBRANCH   1  15
BRANCH   3  18
ATOM     18  N   UNL     1      44.598   3.625   9.991  0.00  0.00    +0.000 N 
ATOM     19  H   UNL     1      43.676   3.231  10.162  0.00  0.00    +0.000 HD
BRANCH  18  20
ATOM     20  C   UNL     1      44.803   3.998   8.601  0.00  0.00    +0.000 C 
BRANCH  20  21
ATOM     21  C   UNL     1      45.835   3.062   8.018  0.00  0.00    +0.000 A 
ATOM     22  C   UNL     1      46.838   3.515   7.159  0.00  0.00    +0.000 A 
ATOM     23  C   UNL     1      47.756   2.597   6.665  0.00  0.00    +0.000 A 
ATOM     24  N   UNL     1      47.742   1.280   6.961  0.00  0.00    +0.000 NA
ATOM     25  C   UNL     1      46.771   0.858   7.797  0.00  0.00    +0.000 A 
ATOM     26  C   UNL     1      45.816   1.697   8.347  0.00  0.00    +0.000 A 
ENDBRANCH  20  21
ENDBRANCH  18  20
ENDBRANCH   3  18
TORSDOF 5
ENDMDL
MODEL 2
REMARK VINA RESULT:    -7.729      3.455      5.366
REMARK INTER + INTRA:         -10.799
REMARK INTER:                 -10.020
REMARK INTRA:                  -0.779
REMARK UNBOUND:                -0.811
REMARK  Name = 
REMARK  5 active torsions:
REMARK  status: ('A' for Active; 'I' for Inactive)
REMARK    1  A    between atoms: C_2  and  C_5
REMARK    2  A    between atoms: C_7  and  N_8
REMARK    3  A    between atoms: N_8  and  C_9
REMARK    4  A    between atoms: C_9  and  C_10
REMARK    5  A    between atoms: C_17  and  C_18
REMARK                            x       y       z     vdW  Elec       q    Type
REMARK                         _______ _______ _______ _____ _____    ______ ____
ROOT
ATOM      1  C   UNL     1      45.863   6.111  12.552  0.00  0.00    +0.000 A 
ATOM      2  C   UNL     1      45.341   5.147  11.714  0.00  0.00    +0.000 A 
ATOM      3  C   UNL     1      45.403   3.835  12.133  0.00  0.00    +0.000 A 
ATOM      4  N   UNL     1      45.991   3.489  13.286  0.00  0.00    +0.000 NA
ATOM      5  C   UNL     1      46.530   4.472  14.031  0.00  0.00    +0.000 A 
ATOM      6  N   UNL     1      46.479   5.778  13.713  0.00  0.00    +0.000 NA
ENDROOT
BRANCH   5   7
ATOM      7  C   UNL     1      47.227   4.101  15.269  0.00  0.00    +0.000 A 
ATOM      8  C   UNL     1      47.959   2.914  15.372  0.00  0.00    +0.000 A 
ATOM      9  N   UNL     1      48.636   2.505  16.477  0.00  0.00    +0.000 NA
ATOM     10  C   UNL     1      48.586   3.322  17.554  0.00  0.00    +0.000 A 
ATOM     11  C   UNL     1      47.896   4.522  17.568  0.00  0.00    +0.000 A 
ATOM     12 CL   UNL     1      47.879   5.510  18.973  0.00  0.00    +0.000 Cl
ATOM     13  C   UNL     1      47.214   4.912  16.418  0.00  0.00    +0.000 A 
ENDBRANCH   5   7
BRANCH   1  15
ATOM     14  F   UNL     1      45.312   8.357  13.239  0.00  0.00    +0.000 F 
ATOM     15  C   UNL     1      45.710   7.578  12.188  0.00  0.00    +0.000 C 
ATOM     16  F   UNL     1      44.786   7.790  11.209  0.00  0.00    +0.000 F 
ATOM     17  F   UNL     1      46.870   8.138  11.743  0.00  0.00    +0.000 F 
ENDBRANCH   1  15
BRANCH   3  18
ATOM     18  N   UNL     1      44.775   2.884  11.333  0.00  0.00    +0.000 N 
ATOM     19  H   UNL     1      44.142   2.299  11.871  0.00  0.00    +0.000 HD
BRANCH  18  20
ATOM     20  C   UNL     1      44.200   3.326  10.073  0.00  0.00    +0.000 C 
BRANCH  20  21
ATOM     21  C   UNL     1      45.191   3.015   8.977  0.00  0.00    +0.000 A 
ATOM     22  C   UNL     1      45.708   4.010   8.146  0.00  0.00    +0.000 A 
ATOM     23  C   UNL     1      46.619   3.650   7.162  0.00  0.00    +0.000 A 
ATOM     24  N   UNL     1      47.042   2.386   6.950  0.00  0.00    +0.000 NA
ATOM     25  C   UNL     1      46.539   1.435   7.764  0.00  0.00    +0.000 A 
ATOM     26  C   UNL     1      45.633   1.697   8.778  0.00  0.00    +0.000 A 
ENDBRANCH  20  21
ENDBRANCH  18  20
ENDBRANCH   3  18
TORSDOF 5
ENDMDL
MODEL 3
REMARK VINA RESULT:    -7.631      3.203      3.874
REMARK INTER + INTRA:         -10.673
REMARK INTER:                  -9.975
REMARK INTRA:                  -0.698
REMARK UNBOUND:                -0.811
REMARK  Name = 
REMARK  5 active torsions:
REMARK  status: ('A' for Active; 'I' for Inactive)
REMARK    1  A    between atoms: C_2  and  C_5
REMARK    2  A    between atoms: C_7  and  N_8
REMARK    3  A    between atoms: N_8  and  C_9
REMARK    4  A    between atoms: C_9  and  C_10
REMARK    5  A    between atoms: C_17  and  C_18
REMARK                            x       y       z     vdW  Elec       q    Type
REMARK                         _______ _______ _______ _____ _____    ______ ____
ROOT
ATOM      1  C   UNL     1      44.240   5.380  11.914  0.00  0.00    +0.000 A 
ATOM      2  C   UNL     1      44.470   5.094  10.583  0.00  0.00    +0.000 A 
ATOM      3  C   UNL     1      45.657   5.528  10.032  0.00  0.00    +0.000 A 
ATOM      4  N   UNL     1      46.543   6.244  10.737  0.00  0.00    +0.000 NA
ATOM      5  C   UNL     1      46.234   6.536  12.014  0.00  0.00    +0.000 A 
ATOM      6  N   UNL     1      45.116   6.120  12.637  0.00  0.00    +0.000 NA
ENDROOT
BRANCH   5   7
ATOM      7  C   UNL     1      47.169   7.370  12.781  0.00  0.00    +0.000 A 
ATOM      8  C   UNL     1      47.141   8.765  12.706  0.00  0.00    +0.000 A 
ATOM      9  N   UNL     1      47.965   9.603  13.388  0.00  0.00    +0.000 NA
ATOM     10  C   UNL     1      48.881   9.024  14.197  0.00  0.00    +0.000 A 
ATOM     11  C   UNL     1      49.001   7.654  14.353  0.00  0.00    +0.000 A 
ATOM     12 CL   UNL     1      50.187   6.990  15.402  0.00  0.00    +0.000 Cl
ATOM     13  C   UNL     1      48.139   6.823  13.641  0.00  0.00    +0.000 A 
ENDBRANCH   5   7
BRANCH   1  15
ATOM     14  F   UNL     1      41.892   4.842  11.801  0.00  0.00    +0.000 F 
ATOM     15  C   UNL     1      43.004   4.819  12.595  0.00  0.00    +0.000 C 
ATOM     16  F   UNL     1      42.660   5.506  13.721  0.00  0.00    +0.000 F 
ATOM     17  F   UNL     1      43.151   3.518  12.974  0.00  0.00    +0.000 F 
ENDBRANCH   1  15
BRANCH   3  18
ATOM     18  N   UNL     1      45.927   5.139   8.723  0.00  0.00    +0.000 N 
ATOM     19  H   UNL     1      46.924   5.029   8.561  0.00  0.00    +0.000 HD
BRANCH  18  20
ATOM     20  C   UNL     1      45.141   4.053   8.159  0.00  0.00    +0.000 C 
BRANCH  20  21
ATOM     21  C   UNL     1      46.099   3.054   7.554  0.00  0.00    +0.000 A 
ATOM     22  C   UNL     1      46.256   1.771   8.082  0.00  0.00    +0.000 A 
ATOM     23  C   UNL     1      47.152   0.905   7.470  0.00  0.00    +0.000 A 
ATOM     24  N   UNL     1      47.893   1.224   6.388  0.00  0.00    +0.000 NA
ATOM     25  C   UNL     1      47.728   2.465   5.886  0.00  0.00    +0.000 A 
ATOM     26  C   UNL     1      46.853   3.397   6.421  0.00  0.00    +0.000 A 
ENDBRANCH  20  21
ENDBRANCH  18  20
ENDBRANCH   3  18
TORSDOF 5
ENDMDL
MODEL 4
REMARK VINA RESULT:    -7.516      1.385      1.780
REMARK INTER + INTRA:         -10.524
REMARK INTER:                  -9.729
REMARK INTRA:                  -0.795
REMARK UNBOUND:                -0.811
REMARK  Name = 
REMARK  5 active torsions:
REMARK  status: ('A' for Active; 'I' for Inactive)
REMARK    1  A    between atoms: C_2  and  C_5
REMARK    2  A    between atoms: C_7  and  N_8
REMARK    3  A    between atoms: N_8  and  C_9
REMARK    4  A    between atoms: C_9  and  C_10
REMARK    5  A    between atoms: C_17  and  C_18
REMARK                            x       y       z     vdW  Elec       q    Type
REMARK                         _______ _______ _______ _____ _____    ______ ____
ROOT
ATOM      1  C   UNL     1      46.307   4.593  13.616  0.00  0.00    +0.000 A 
ATOM      2  C   UNL     1      45.831   3.592  12.794  0.00  0.00    +0.000 A 
ATOM      3  C   UNL     1      45.227   3.967  11.613  0.00  0.00    +0.000 A 
ATOM      4  N   UNL     1      45.056   5.255  11.285  0.00  0.00    +0.000 NA
ATOM      5  C   UNL     1      45.493   6.183  12.157  0.00  0.00    +0.000 A 
ATOM      6  N   UNL     1      46.125   5.902  13.310  0.00  0.00    +0.000 NA
ENDROOT
BRANCH   5   7
ATOM      7  C   UNL     1      45.261   7.598  11.837  0.00  0.00    +0.000 A 
ATOM      8  C   UNL     1      44.085   8.026  11.214  0.00  0.00    +0.000 A 
ATOM      9  N   UNL     1      43.793   9.314  10.893  0.00  0.00    +0.000 NA
ATOM     10  C   UNL     1      44.726  10.242  11.208  0.00  0.00    +0.000 A 
ATOM     11  C   UNL     1      45.925   9.936  11.827  0.00  0.00    +0.000 A 
ATOM     12 CL   UNL     1      47.062  11.169  12.198  0.00  0.00    +0.000 Cl
ATOM     13  C   UNL     1      46.192   8.606  12.143  0.00  0.00    +0.000 A 
ENDBRANCH   5   7
BRANCH   1  15
ATOM     14  F   UNL     1      48.140   5.059  15.113  0.00  0.00    +0.000 F 
ATOM     15  C   UNL     1      47.085   4.225  14.867  0.00  0.00    +0.000 C 
ATOM     16  F   UNL     1      47.618   2.972  14.813  0.00  0.00    +0.000 F 
ATOM     17  F   UNL     1      46.323   4.265  15.997  0.00  0.00    +0.000 F 
ENDBRANCH   1  15
BRANCH   3  18
ATOM     18  N   UNL     1      44.852   2.948  10.741  0.00  0.00    +0.000 N 
ATOM     19  H   UNL     1      44.155   2.336  11.157  0.00  0.00    +0.000 HD
BRANCH  18  20
ATOM     20  C   UNL     1      44.540   3.308   9.367  0.00  0.00    +0.000 C 
BRANCH  20  21
ATOM     21  C   UNL     1      45.588   2.684   8.476  0.00  0.00    +0.000 A 
ATOM     22  C   UNL     1      46.376   3.451   7.617  0.00  0.00    +0.000 A 
ATOM     23  C   UNL     1      47.323   2.809   6.830  0.00  0.00    +0.000 A 
ATOM     24  N   UNL     1      47.534   1.476   6.838  0.00  0.00    +0.000 NA
ATOM     25  C   UNL     1      46.769   0.747   7.678  0.00  0.00    +0.000 A 
ATOM     26  C   UNL     1      45.805   1.297   8.507  0.00  0.00    +0.000 A 
ENDBRANCH  20  21
ENDBRANCH  18  20
ENDBRANCH   3  18
TORSDOF 5
ENDMDL
MODEL 5
REMARK VINA RESULT:    -7.174      2.256      2.693
REMARK INTER + INTRA:         -10.082
REMARK INTER:                  -9.267
REMARK INTRA:                  -0.815
REMARK UNBOUND:                -0.811
REMARK  Name = 
REMARK  5 active torsions:
REMARK  status: ('A' for Active; 'I' for Inactive)
REMARK    1  A    between atoms: C_2  and  C_5
REMARK    2  A    between atoms: C_7  and  N_8
REMARK    3  A    between atoms: N_8  and  C_9
REMARK    4  A    between atoms: C_9  and  C_10
REMARK    5  A    between atoms: C_17  and  C_18
REMARK                            x       y       z     vdW  Elec       q    Type
REMARK                         _______ _______ _______ _____ _____    ______ ____
ROOT
ATOM      1  C   UNL     1      46.838   4.721  14.356  0.00  0.00    +0.000 A 
ATOM      2  C   UNL     1      45.975   3.965  13.590  0.00  0.00    +0.000 A 
ATOM      3  C   UNL     1      45.554   4.496  12.389  0.00  0.00    +0.000 A 
ATOM      4  N   UNL     1      45.923   5.721  11.991  0.00  0.00    +0.000 NA
ATOM      5  C   UNL     1      46.722   6.429  12.810  0.00  0.00    +0.000 A 
ATOM      6  N   UNL     1      47.206   5.970  13.978  0.00  0.00    +0.000 NA
ENDROOT
BRANCH   5   7
ATOM      7  C   UNL     1      47.086   7.795  12.413  0.00  0.00    +0.000 A 
ATOM      8  C   UNL     1      46.152   8.834  12.414  0.00  0.00    +0.000 A 
ATOM      9  N   UNL     1      46.412  10.123  12.068  0.00  0.00    +0.000 NA
ATOM     10  C   UNL     1      47.681  10.403  11.694  0.00  0.00    +0.000 A 
ATOM     11  C   UNL     1      48.691   9.457  11.656  0.00  0.00    +0.000 A 
ATOM     12 CL   UNL     1      50.281   9.888  11.172  0.00  0.00    +0.000 Cl
ATOM     13  C   UNL     1      48.390   8.146  12.018  0.00  0.00    +0.000 A 
ENDBRANCH   5   7
BRANCH   1  15
ATOM     14  F   UNL     1      46.518   4.043  16.649  0.00  0.00    +0.000 F 
ATOM     15  C   UNL     1      47.422   4.129  15.627  0.00  0.00    +0.000 C 
ATOM     16  F   UNL     1      48.463   4.855  16.123  0.00  0.00    +0.000 F 
ATOM     17  F   UNL     1      47.893   2.861  15.454  0.00  0.00    +0.000 F 
ENDBRANCH   1  15
BRANCH   3  18
ATOM     18  N   UNL     1      44.774   3.680  11.574  0.00  0.00    +0.000 N 
ATOM     19  H   UNL     1      44.023   3.236  12.095  0.00  0.00    +0.000 HD
BRANCH  18  20
ATOM     20  C   UNL     1      44.333   4.215  10.296  0.00  0.00    +0.000 C 
BRANCH  20  21
ATOM     21  C   UNL     1      45.163   3.569   9.212  0.00  0.00    +0.000 A 
ATOM     22  C   UNL     1      45.807   4.324   8.230  0.00  0.00    +0.000 A 
ATOM     23  C   UNL     1      46.558   3.661   7.267  0.00  0.00    +0.000 A 
ATOM     24  N   UNL     1      46.706   2.321   7.215  0.00  0.00    +0.000 NA
ATOM     25  C   UNL     1      46.083   1.605   8.174  0.00  0.00    +0.000 A 
ATOM     26  C   UNL     1      45.320   2.175   9.180  0.00  0.00    +0.000 A 
ENDBRANCH  20  21
ENDBRANCH  18  20
ENDBRANCH   3  18
TORSDOF 5
ENDMDL
MODEL 6
REMARK VINA RESULT:    -7.011      4.040      5.924
REMARK INTER + INTRA:          -9.872
REMARK INTER:                  -9.108
REMARK INTRA:                  -0.763
REMARK UNBOUND:                -0.811
REMARK  Name = 
REMARK  5 active torsions:
REMARK  status: ('A' for Active; 'I' for Inactive)
REMARK    1  A    between atoms: C_2  and  C_5
REMARK    2  A    between atoms: C_7  and  N_8
REMARK    3  A    between atoms: N_8  and  C_9
REMARK    4  A    between atoms: C_9  and  C_10
REMARK    5  A    between atoms: C_17  and  C_18
REMARK                            x       y       z     vdW  Elec       q    Type
REMARK                         _______ _______ _______ _____ _____    ______ ____
ROOT
ATOM      1  C   UNL     1      47.851   6.431  13.052  0.00  0.00    +0.000 A 
ATOM      2  C   UNL     1      46.772   5.881  12.390  0.00  0.00    +0.000 A 
ATOM      3  C   UNL     1      46.017   4.945  13.065  0.00  0.00    +0.000 A 
ATOM      4  N   UNL     1      46.335   4.539  14.301  0.00  0.00    +0.000 NA
ATOM      5  C   UNL     1      47.431   5.075  14.870  0.00  0.00    +0.000 A 
ATOM      6  N   UNL     1      48.199   6.018  14.296  0.00  0.00    +0.000 NA
ENDROOT
BRANCH   5   7
ATOM      7  C   UNL     1      47.825   4.596  16.202  0.00  0.00    +0.000 A 
ATOM      8  C   UNL     1      47.411   3.353  16.687  0.00  0.00    +0.000 A 
ATOM      9  N   UNL     1      47.738   2.837  17.902  0.00  0.00    +0.000 NA
ATOM     10  C   UNL     1      48.526   3.603  18.691  0.00  0.00    +0.000 A 
ATOM     11  C   UNL     1      48.998   4.848  18.316  0.00  0.00    +0.000 A 
ATOM     12 CL   UNL     1      49.998   5.763  19.371  0.00  0.00    +0.000 Cl
ATOM     13  C   UNL     1      48.645   5.346  17.064  0.00  0.00    +0.000 A 
ENDBRANCH   5   7
BRANCH   1  15
ATOM     14  F   UNL     1      49.953   7.579  12.769  0.00  0.00    +0.000 F 
ATOM     15  C   UNL     1      48.639   7.550  12.394  0.00  0.00    +0.000 C 
ATOM     16  F   UNL     1      48.151   8.788  12.689  0.00  0.00    +0.000 F 
ATOM     17  F   UNL     1      48.652   7.462  11.034  0.00  0.00    +0.000 F 
ENDBRANCH   1  15
BRANCH   3  18
ATOM     18  N   UNL     1      44.869   4.480  12.429  0.00  0.00    +0.000 N 
ATOM     19  H   UNL     1      44.096   4.370  13.081  0.00  0.00    +0.000 HD
BRANCH  18  20
ATOM     20  C   UNL     1      44.470   5.122  11.187  0.00  0.00    +0.000 C 
BRANCH  20  21
ATOM     21  C   UNL     1      44.876   4.217  10.047  0.00  0.00    +0.000 A 
ATOM     22  C   UNL     1      45.545   4.704   8.923  0.00  0.00    +0.000 A 
ATOM     23  C   UNL     1      45.891   3.812   7.916  0.00  0.00    +0.000 A 
ATOM     24  N   UNL     1      45.619   2.490   7.951  0.00  0.00    +0.000 NA
ATOM     25  C   UNL     1      44.977   2.034   9.046  0.00  0.00    +0.000 A 
ATOM     26  C   UNL     1      44.598   2.843  10.104  0.00  0.00    +0.000 A 
ENDBRANCH  20  21
ENDBRANCH  18  20
ENDBRANCH   3  18
TORSDOF 5
ENDMDL
MODEL 7
REMARK VINA RESULT:    -6.949      2.629      3.052
REMARK INTER + INTRA:          -9.791
REMARK INTER:                  -8.985
REMARK INTRA:                  -0.806
REMARK UNBOUND:                -0.811
REMARK  Name = 
REMARK  5 active torsions:
REMARK  status: ('A' for Active; 'I' for Inactive)
REMARK    1  A    between atoms: C_2  and  C_5
REMARK    2  A    between atoms: C_7  and  N_8
REMARK    3  A    between atoms: N_8  and  C_9
REMARK    4  A    between atoms: C_9  and  C_10
REMARK    5  A    between atoms: C_17  and  C_18
REMARK                            x       y       z     vdW  Elec       q    Type
REMARK                         _______ _______ _______ _____ _____    ______ ____
ROOT
ATOM      1  C   UNL     1      45.824   4.938  12.349  0.00  0.00    +0.000 A 
ATOM      2  C   UNL     1      45.351   4.654  11.084  0.00  0.00    +0.000 A 
ATOM      3  C   UNL     1      45.740   5.485  10.054  0.00  0.00    +0.000 A 
ATOM      4  N   UNL     1      46.509   6.561  10.268  0.00  0.00    +0.000 NA
ATOM      5  C   UNL     1      46.892   6.813  11.534  0.00  0.00    +0.000 A 
ATOM      6  N   UNL     1      46.587   6.033  12.586  0.00  0.00    +0.000 NA
ENDROOT
BRANCH   5   7
ATOM      7  C   UNL     1      47.686   8.021  11.790  0.00  0.00    +0.000 A 
ATOM      8  C   UNL     1      47.098   9.204  12.245  0.00  0.00    +0.000 A 
ATOM      9  N   UNL     1      47.765  10.359  12.512  0.00  0.00    +0.000 NA
ATOM     10  C   UNL     1      49.102  10.343  12.314  0.00  0.00    +0.000 A 
ATOM     11  C   UNL     1      49.794   9.230  11.868  0.00  0.00    +0.000 A 
ATOM     12 CL   UNL     1      51.495   9.285  11.642  0.00  0.00    +0.000 Cl
ATOM     13  C   UNL     1      49.080   8.063  11.606  0.00  0.00    +0.000 A 
ENDBRANCH   5   7
BRANCH   1  15
ATOM     14  F   UNL     1      44.184   3.770  13.677  0.00  0.00    +0.000 F 
ATOM     15  C   UNL     1      45.521   3.983  13.490  0.00  0.00    +0.000 C 
ATOM     16  F   UNL     1      45.989   4.425  14.691  0.00  0.00    +0.000 F 
ATOM     17  F   UNL     1      46.062   2.745  13.305  0.00  0.00    +0.000 F 
ENDBRANCH   1  15
BRANCH   3  18
ATOM     18  N   UNL     1      45.348   5.126   8.767  0.00  0.00    +0.000 N 
ATOM     19  H   UNL     1      46.059   5.359   8.079  0.00  0.00    +0.000 HD
BRANCH  18  20
ATOM     20  C   UNL     1      44.788   3.798   8.572  0.00  0.00    +0.000 C 
BRANCH  20  21
ATOM     21  C   UNL     1      45.846   2.940   7.920  0.00  0.00    +0.000 A 
ATOM     22  C   UNL     1      46.741   3.459   6.983  0.00  0.00    +0.000 A 
ATOM     23  C   UNL     1      47.691   2.610   6.429  0.00  0.00    +0.000 A 
ATOM     24  N   UNL     1      47.807   1.301   6.738  0.00  0.00    +0.000 NA
ATOM     25  C   UNL     1      46.940   0.816   7.650  0.00  0.00    +0.000 A 
ATOM     26  C   UNL     1      45.964   1.584   8.263  0.00  0.00    +0.000 A 
ENDBRANCH  20  21
ENDBRANCH  18  20
ENDBRANCH   3  18
TORSDOF 5
ENDMDL
MODEL 8
REMARK VINA RESULT:    -6.728      3.754      6.369
REMARK INTER + INTRA:          -9.505
REMARK INTER:                  -8.787
REMARK INTRA:                  -0.719
REMARK UNBOUND:                -0.811
REMARK  Name = 
REMARK  5 active torsions:
REMARK  status: ('A' for Active; 'I' for Inactive)
REMARK    1  A    between atoms: C_2  and  C_5
REMARK    2  A    between atoms: C_7  and  N_8
REMARK    3  A    between atoms: N_8  and  C_9
REMARK    4  A    between atoms: C_9  and  C_10
REMARK    5  A    between atoms: C_17  and  C_18
REMARK                            x       y       z     vdW  Elec       q    Type
REMARK                         _______ _______ _______ _____ _____    ______ ____
ROOT
ATOM      1  C   UNL     1      45.203   4.150  11.861  0.00  0.00    +0.000 A 
ATOM      2  C   UNL     1      45.778   3.397  12.865  0.00  0.00    +0.000 A 
ATOM      3  C   UNL     1      46.667   4.030  13.707  0.00  0.00    +0.000 A 
ATOM      4  N   UNL     1      47.008   5.314  13.540  0.00  0.00    +0.000 NA
ATOM      5  C   UNL     1      46.453   5.977  12.508  0.00  0.00    +0.000 A 
ATOM      6  N   UNL     1      45.550   5.446  11.664  0.00  0.00    +0.000 NA
ENDROOT
BRANCH   5   7
ATOM      7  C   UNL     1      46.861   7.369  12.279  0.00  0.00    +0.000 A 
ATOM      8  C   UNL     1      45.952   8.426  12.372  0.00  0.00    +0.000 A 
ATOM      9  N   UNL     1      46.254   9.738  12.182  0.00  0.00    +0.000 NA
ATOM     10  C   UNL     1      47.540  10.024  11.877  0.00  0.00    +0.000 A 
ATOM     11  C   UNL     1      48.528   9.062  11.760  0.00  0.00    +0.000 A 
ATOM     12 CL   UNL     1      50.142   9.501  11.373  0.00  0.00    +0.000 Cl
ATOM     13  C   UNL     1      48.185   7.727  11.963  0.00  0.00    +0.000 A 
ENDBRANCH   5   7
BRANCH   1  15
ATOM     14  F   UNL     1      43.499   4.435  10.177  0.00  0.00    +0.000 F 
ATOM     15  C   UNL     1      44.129   3.529  10.985  0.00  0.00    +0.000 C 
ATOM     16  F   UNL     1      43.136   2.932  11.703  0.00  0.00    +0.000 F 
ATOM     17  F   UNL     1      44.617   2.573  10.144  0.00  0.00    +0.000 F 
ENDBRANCH   1  15
BRANCH   3  18
ATOM     18  N   UNL     1      47.156   3.291  14.782  0.00  0.00    +0.000 N 
ATOM     19  H   UNL     1      48.044   2.848  14.561  0.00  0.00    +0.000 HD
BRANCH  18  20
ATOM     20  C   UNL     1      47.148   3.914  16.096  0.00  0.00    +0.000 C 
BRANCH  20  21
ATOM     21  C   UNL     1      48.529   3.761  16.689  0.00  0.00    +0.000 A 
ATOM     22  C   UNL     1      49.279   4.863  17.102  0.00  0.00    +0.000 A 
ATOM     23  C   UNL     1      50.540   4.645  17.642  0.00  0.00    +0.000 A 
ATOM     24  N   UNL     1      51.097   3.425  17.795  0.00  0.00    +0.000 NA
ATOM     25  C   UNL     1      50.358   2.369  17.397  0.00  0.00    +0.000 A 
ATOM     26  C   UNL     1      49.088   2.484  16.854  0.00  0.00    +0.000 A 
ENDBRANCH  20  21
ENDBRANCH  18  20
ENDBRANCH   3  18
TORSDOF 5
ENDMDL
MODEL 9
REMARK VINA RESULT:    -6.682      3.690      7.155
REMARK INTER + INTRA:          -9.447
REMARK INTER:                  -8.715
REMARK INTRA:                  -0.731
REMARK UNBOUND:                -0.811
REMARK  Name = 
REMARK  5 active torsions:
REMARK  status: ('A' for Active; 'I' for Inactive)
REMARK    1  A    between atoms: C_2  and  C_5
REMARK    2  A    between atoms: C_7  and  N_8
REMARK    3  A    between atoms: N_8  and  C_9
REMARK    4  A    between atoms: C_9  and  C_10
REMARK    5  A    between atoms: C_17  and  C_18
REMARK                            x       y       z     vdW  Elec       q    Type
REMARK                         _______ _______ _______ _____ _____    ______ ____
ROOT
ATOM      1  C   UNL     1      44.824   8.503  11.600  0.00  0.00    +0.000 A 
ATOM      2  C   UNL     1      45.655   8.498  12.702  0.00  0.00    +0.000 A 
ATOM      3  C   UNL     1      46.318   7.326  12.998  0.00  0.00    +0.000 A 
ATOM      4  N   UNL     1      46.134   6.210  12.279  0.00  0.00    +0.000 NA
ATOM      5  C   UNL     1      45.268   6.267  11.250  0.00  0.00    +0.000 A 
ATOM      6  N   UNL     1      44.611   7.378  10.873  0.00  0.00    +0.000 NA
ENDROOT
BRANCH   5   7
ATOM      7  C   UNL     1      45.013   5.036  10.491  0.00  0.00    +0.000 A 
ATOM      8  C   UNL     1      44.208   4.013  10.999  0.00  0.00    +0.000 A 
ATOM      9  N   UNL     1      43.919   2.850  10.356  0.00  0.00    +0.000 NA
ATOM     10  C   UNL     1      44.464   2.687   9.129  0.00  0.00    +0.000 A 
ATOM     11  C   UNL     1      45.275   3.632   8.523  0.00  0.00    +0.000 A 
ATOM     12 CL   UNL     1      45.929   3.356   6.960  0.00  0.00    +0.000 Cl
ATOM     13  C   UNL     1      45.549   4.813   9.209  0.00  0.00    +0.000 A 
ENDBRANCH   5   7
BRANCH   1  15
ATOM     14  F   UNL     1      43.643  10.517  12.205  0.00  0.00    +0.000 F 
ATOM     15  C   UNL     1      44.168   9.802  11.166  0.00  0.00    +0.000 C 
ATOM     16  F   UNL     1      43.134   9.611  10.299  0.00  0.00    +0.000 F 
ATOM     17  F   UNL     1      45.033  10.651  10.543  0.00  0.00    +0.000 F 
ENDBRANCH   1  15
BRANCH   3  18
ATOM     18  N   UNL     1      47.237   7.364  14.043  0.00  0.00    +0.000 N 
ATOM     19  H   UNL     1      46.784   7.544  14.935  0.00  0.00    +0.000 HD
BRANCH  18  20
ATOM     20  C   UNL     1      48.228   6.303  14.118  0.00  0.00    +0.000 C 
BRANCH  20  21
ATOM     21  C   UNL     1      48.087   5.632  15.464  0.00  0.00    +0.000 A 
ATOM     22  C   UNL     1      48.714   6.134  16.606  0.00  0.00    +0.000 A 
ATOM     23  C   UNL     1      48.536   5.467  17.811  0.00  0.00    +0.000 A 
ATOM     24  N   UNL     1      47.790   4.350  17.953  0.00  0.00    +0.000 NA
ATOM     25  C   UNL     1      47.186   3.881  16.843  0.00  0.00    +0.000 A 
ATOM     26  C   UNL     1      47.297   4.480  15.599  0.00  0.00    +0.000 A 
ENDBRANCH  20  21
ENDBRANCH  18  20
ENDBRANCH   3  18
TORSDOF 5
ENDMDL
