MODEL 1
REMARK VINA RESULT:    -8.835      0.000      0.000
REMARK INTER + INTRA:         -11.562
REMARK INTER:                 -10.901
REMARK INTRA:                  -0.661
REMARK UNBOUND:                -0.661
REMARK  Name = 
REMARK  4 active torsions:
REMARK  status: ('A' for Active; 'I' for Inactive)
REMARK    1  A    between atoms: C_2  and  C_4
REMARK    2  A    between atoms: C_7  and  N_8
REMARK    3  A    between atoms: N_8  and  C_9
REMARK    4  A    between atoms: C_9  and  C_10
REMARK                            x       y       z     vdW  Elec       q    Type
REMARK                         _______ _______ _______ _____ _____    ______ ____
ROOT
ATOM      1  C   UNL     1      43.808   4.817  11.525  0.00  0.00    +0.000 C 
ATOM      2  C   UNL     1      42.599   5.483  12.185  0.00  0.00    +0.000 C 
ATOM      3  C   UNL     1      43.243   6.139  11.012  0.00  0.00    +0.000 C 
ENDROOT
BRANCH   1   4
ATOM      4  C   UNL     1      45.112   4.874  12.329  0.00  0.00    +0.000 A 
ATOM      5  C   UNL     1      45.566   3.813  13.082  0.00  0.00    +0.000 A 
ATOM      6  C   UNL     1      46.839   3.933  13.584  0.00  0.00    +0.000 A 
ATOM      7  N   UNL     1      47.632   5.001  13.371  0.00  0.00    +0.000 NA
ATOM      8  C   UNL     1      47.113   6.014  12.670  0.00  0.00    +0.000 A 
ATOM      9  N   UNL     1      47.872   7.104  12.344  0.00  0.00    +0.000 N 
ATOM     10  C   UNL     1      49.309   7.144  12.573  0.00  0.00    +0.000 C 
ATOM     11  C   UNL     1      49.652   8.201  13.629  0.00  0.00    +0.000 C 
ATOM     12  O   UNL     1      49.072   9.481  13.319  0.00  0.00    +0.000 OA
ATOM     13  C   UNL     1      47.640   9.372  13.233  0.00  0.00    +0.000 C 
ATOM     14  C   UNL     1      47.222   8.396  12.124  0.00  0.00    +0.000 C 
ATOM     15  N   UNL     1      45.871   5.980  12.176  0.00  0.00    +0.000 NA
ENDBRANCH   1   4
BRANCH   1  16
ATOM     16  N   UNL     1      43.627   3.615  10.667  0.00  0.00    +0.000 N 
ATOM     17  H   UNL     1      43.381   2.772  11.178  0.00  0.00    +0.000 HD
BRANCH  16  21
ATOM     18  C   UNL     1      46.403   2.677   7.601  0.00  0.00    +0.000 A 
ATOM     19  C   UNL     1      45.853   1.671   8.402  0.00  0.00    +0.000 A 
ATOM     20  C   UNL     1      44.914   1.996   9.391  0.00  0.00    +0.000 A 
ATOM     21  C   UNL     1      44.536   3.327   9.620  0.00  0.00    +0.000 A 
ATOM     22  C   UNL     1      45.031   4.310   8.756  0.00  0.00    +0.000 A 
ATOM     23  C   UNL     1      45.974   3.996   7.772  0.00  0.00    +0.000 A 
BRANCH  18  25
ATOM     24  N   UNL     1      47.520   3.195   5.493  0.00  0.00    +0.000 N 
ATOM     25  C   UNL     1      47.476   2.408   6.612  0.00  0.00    +0.000 C 
ATOM     26  O   UNL     1      48.304   1.522   6.785  0.00  0.00    +0.000 OA
ATOM     27  H   UNL     1      48.303   3.038   4.872  0.00  0.00    +0.000 HD
ATOM     28  H   UNL     1      47.034   4.078   5.434  0.00  0.00    +0.000 HD
ENDBRANCH  18  25
ENDBRANCH  16  21
ENDBRANCH   1  16
TORSDOF 4
ENDMDL
MODEL 2
REMARK VINA RESULT:    -7.885      1.296      2.483
REMARK INTER + INTRA:         -10.389
REMARK INTER:                 -10.422
REMARK INTRA:                   0.032
REMARK UNBOUND:                -0.661
REMARK  Name = 
REMARK  4 active torsions:
REMARK  status: ('A' for Active; 'I' for Inactive)
REMARK    1  A    between atoms: C_2  and  C_4
REMARK    2  A    between atoms: C_7  and  N_8
REMARK    3  A    between atoms: N_8  and  C_9
REMARK    4  A    between atoms: C_9  and  C_10
REMARK                            x       y       z     vdW  Elec       q    Type
REMARK                         _______ _______ _______ _____ _____    ______ ____
ROOT
ATOM      1  C   UNL     1      44.024   5.223  11.366  0.00  0.00    +0.000 C 
ATOM      2  C   UNL     1      44.432   4.230  12.456  0.00  0.00    +0.000 C 
ATOM      3  C   UNL     1      43.059   4.807  12.472  0.00  0.00    +0.000 C 
ENDROOT
BRANCH   1   4
ATOM      4  C   UNL     1      44.658   6.614  11.471  0.00  0.00    +0.000 A 
ATOM      5  C   UNL     1      43.982   7.766  11.131  0.00  0.00    +0.000 A 
ATOM      6  C   UNL     1      44.601   8.946  11.463  0.00  0.00    +0.000 A 
ATOM      7  N   UNL     1      45.792   9.021  12.088  0.00  0.00    +0.000 NA
ATOM      8  C   UNL     1      46.414   7.866  12.348  0.00  0.00    +0.000 A 
ATOM      9  N   UNL     1      47.591   7.845  13.046  0.00  0.00    +0.000 N 
ATOM     10  C   UNL     1      48.128   9.031  13.696  0.00  0.00    +0.000 C 
ATOM     11  C   UNL     1      49.441   9.457  13.028  0.00  0.00    +0.000 C 
ATOM     12  O   UNL     1      50.376   8.368  12.932  0.00  0.00    +0.000 OA
ATOM     13  C   UNL     1      49.807   7.288  12.170  0.00  0.00    +0.000 C 
ATOM     14  C   UNL     1      48.533   6.746  12.836  0.00  0.00    +0.000 C 
ATOM     15  N   UNL     1      45.887   6.680  12.027  0.00  0.00    +0.000 NA
ENDBRANCH   1   4
BRANCH   1  16
ATOM     16  N   UNL     1      43.733   4.746   9.987  0.00  0.00    +0.000 N 
ATOM     17  H   UNL     1      42.795   4.371   9.865  0.00  0.00    +0.000 HD
BRANCH  16  21
ATOM     18  C   UNL     1      46.561   2.526   7.738  0.00  0.00    +0.000 A 
ATOM     19  C   UNL     1      46.529   3.922   7.670  0.00  0.00    +0.000 A 
ATOM     20  C   UNL     1      45.607   4.642   8.443  0.00  0.00    +0.000 A 
ATOM     21  C   UNL     1      44.683   3.981   9.268  0.00  0.00    +0.000 A 
ATOM     22  C   UNL     1      44.785   2.591   9.387  0.00  0.00    +0.000 A 
ATOM     23  C   UNL     1      45.696   1.865   8.614  0.00  0.00    +0.000 A 
BRANCH  18  25
ATOM     24  N   UNL     1      48.587   2.290   6.396  0.00  0.00    +0.000 N 
ATOM     25  C   UNL     1      47.440   1.708   6.866  0.00  0.00    +0.000 C 
ATOM     26  O   UNL     1      47.165   0.549   6.579  0.00  0.00    +0.000 OA
ATOM     27  H   UNL     1      49.202   1.688   5.865  0.00  0.00    +0.000 HD
ATOM     28  H   UNL     1      48.974   3.127   6.805  0.00  0.00    +0.000 HD
ENDBRANCH  18  25
ENDBRANCH  16  21
ENDBRANCH   1  16
TORSDOF 4
ENDMDL
MODEL 3
REMARK VINA RESULT:    -7.732      2.306      3.128
REMARK INTER + INTRA:         -10.201
REMARK INTER:                 -10.077
REMARK INTRA:                  -0.124
REMARK UNBOUND:                -0.661
REMARK  Name = 
REMARK  4 active torsions:
REMARK  status: ('A' for Active; 'I' for Inactive)
REMARK    1  A    between atoms: C_2  and  C_4
REMARK    2  A    between atoms: C_7  and  N_8
REMARK    3  A    between atoms: N_8  and  C_9
REMARK    4  A    between atoms: C_9  and  C_10
REMARK                            x       y       z     vdW  Elec       q    Type
REMARK                         _______ _______ _______ _____ _____    ______ ____
ROOT
ATOM      1  C   UNL     1      44.500   4.952  11.943  0.00  0.00    +0.000 C 
ATOM      2  C   UNL     1      43.309   5.467  12.753  0.00  0.00    +0.000 C 
ATOM      3  C   UNL     1      43.604   6.073  11.424  0.00  0.00    +0.000 C 
ENDROOT
BRANCH   1   4
ATOM      4  C   UNL     1      45.881   5.345  12.479  0.00  0.00    +0.000 A 
ATOM      5  C   UNL     1      46.722   6.204  11.806  0.00  0.00    +0.000 A 
ATOM      6  C   UNL     1      47.835   6.620  12.494  0.00  0.00    +0.000 A 
ATOM      7  N   UNL     1      48.122   6.243  13.755  0.00  0.00    +0.000 NA
ATOM      8  C   UNL     1      47.288   5.372  14.333  0.00  0.00    +0.000 A 
ATOM      9  N   UNL     1      47.463   4.992  15.636  0.00  0.00    +0.000 N 
ATOM     10  C   UNL     1      48.432   5.639  16.509  0.00  0.00    +0.000 C 
ATOM     11  C   UNL     1      49.543   4.656  16.894  0.00  0.00    +0.000 C 
ATOM     12  O   UNL     1      49.016   3.423  17.416  0.00  0.00    +0.000 OA
ATOM     13  C   UNL     1      48.167   2.792  16.441  0.00  0.00    +0.000 C 
ATOM     14  C   UNL     1      46.973   3.687  16.078  0.00  0.00    +0.000 C 
ATOM     15  N   UNL     1      46.202   4.900  13.713  0.00  0.00    +0.000 NA
ENDBRANCH   1   4
BRANCH   1  16
ATOM     16  N   UNL     1      44.424   3.638  11.250  0.00  0.00    +0.000 N 
ATOM     17  H   UNL     1      44.566   2.836  11.860  0.00  0.00    +0.000 HD
BRANCH  16  21
ATOM     18  C   UNL     1      46.370   2.959   7.544  0.00  0.00    +0.000 A 
ATOM     19  C   UNL     1      45.936   1.888   8.332  0.00  0.00    +0.000 A 
ATOM     20  C   UNL     1      45.268   2.131   9.540  0.00  0.00    +0.000 A 
ATOM     21  C   UNL     1      45.053   3.440   9.997  0.00  0.00    +0.000 A 
ATOM     22  C   UNL     1      45.417   4.498   9.157  0.00  0.00    +0.000 A 
ATOM     23  C   UNL     1      46.092   4.265   7.954  0.00  0.00    +0.000 A 
BRANCH  18  25
ATOM     24  N   UNL     1      48.384   2.136   6.435  0.00  0.00    +0.000 N 
ATOM     25  C   UNL     1      47.173   2.764   6.312  0.00  0.00    +0.000 C 
ATOM     26  O   UNL     1      46.775   3.140   5.216  0.00  0.00    +0.000 OA
ATOM     27  H   UNL     1      48.876   1.952   5.571  0.00  0.00    +0.000 HD
ATOM     28  H   UNL     1      48.629   1.593   7.250  0.00  0.00    +0.000 HD
ENDBRANCH  18  25
ENDBRANCH  16  21
ENDBRANCH   1  16
TORSDOF 4
ENDMDL
MODEL 4
REMARK VINA RESULT:    -6.775      3.446      5.650
REMARK INTER + INTRA:          -9.020
REMARK INTER:                  -8.877
REMARK INTRA:                  -0.143
REMARK UNBOUND:                -0.661
REMARK  Name = 
REMARK  4 active torsions:
REMARK  status: ('A' for Active; 'I' for Inactive)
REMARK    1  A    between atoms: C_2  and  C_4
REMARK    2  A    between atoms: C_7  and  N_8
REMARK    3  A    between atoms: N_8  and  C_9
REMARK    4  A    between atoms: C_9  and  C_10
REMARK                            x       y       z     vdW  Elec       q    Type
REMARK                         _______ _______ _______ _____ _____    ______ ____
ROOT
ATOM      1  C   UNL     1      48.065   7.624  13.017  0.00  0.00    +0.000 C 
ATOM      2  C   UNL     1      48.526   8.852  12.230  0.00  0.00    +0.000 C 
ATOM      3  C   UNL     1      48.629   7.504  11.605  0.00  0.00    +0.000 C 
ENDROOT
BRANCH   1   4
ATOM      4  C   UNL     1      48.976   7.204  14.177  0.00  0.00    +0.000 A 
ATOM      5  C   UNL     1      50.241   7.720  14.351  0.00  0.00    +0.000 A 
ATOM      6  C   UNL     1      50.861   7.405  15.536  0.00  0.00    +0.000 A 
ATOM      7  N   UNL     1      50.301   6.649  16.499  0.00  0.00    +0.000 NA
ATOM      8  C   UNL     1      49.089   6.143  16.246  0.00  0.00    +0.000 A 
ATOM      9  N   UNL     1      48.415   5.426  17.197  0.00  0.00    +0.000 N 
ATOM     10  C   UNL     1      48.883   5.332  18.572  0.00  0.00    +0.000 C 
ATOM     11  C   UNL     1      49.291   3.890  18.899  0.00  0.00    +0.000 C 
ATOM     12  O   UNL     1      48.255   2.948  18.566  0.00  0.00    +0.000 OA
ATOM     13  C   UNL     1      47.943   3.026  17.164  0.00  0.00    +0.000 C 
ATOM     14  C   UNL     1      47.434   4.424  16.783  0.00  0.00    +0.000 C 
ATOM     15  N   UNL     1      48.438   6.381  15.103  0.00  0.00    +0.000 NA
ENDBRANCH   1   4
BRANCH   1  16
ATOM     16  N   UNL     1      46.614   7.352  13.202  0.00  0.00    +0.000 N 
ATOM     17  H   UNL     1      46.280   7.501  14.151  0.00  0.00    +0.000 HD
BRANCH  16  21
ATOM     18  C   UNL     1      44.710   3.993  11.448  0.00  0.00    +0.000 A 
ATOM     19  C   UNL     1      44.621   5.257  10.856  0.00  0.00    +0.000 A 
ATOM     20  C   UNL     1      45.282   6.350  11.433  0.00  0.00    +0.000 A 
ATOM     21  C   UNL     1      46.010   6.209  12.624  0.00  0.00    +0.000 A 
ATOM     22  C   UNL     1      46.157   4.924  13.156  0.00  0.00    +0.000 A 
ATOM     23  C   UNL     1      45.496   3.829  12.592  0.00  0.00    +0.000 A 
BRANCH  18  25
ATOM     24  N   UNL     1      44.444   2.168   9.848  0.00  0.00    +0.000 N 
ATOM     25  C   UNL     1      43.948   2.824  10.943  0.00  0.00    +0.000 C 
ATOM     26  O   UNL     1      42.917   2.444  11.484  0.00  0.00    +0.000 OA
ATOM     27  H   UNL     1      43.945   1.334   9.569  0.00  0.00    +0.000 HD
ATOM     28  H   UNL     1      45.397   2.281   9.537  0.00  0.00    +0.000 HD
ENDBRANCH  18  25
ENDBRANCH  16  21
ENDBRANCH   1  16
TORSDOF 4
ENDMDL
MODEL 5
REMARK VINA RESULT:    -6.273      1.829      2.767
REMARK INTER + INTRA:          -8.401
REMARK INTER:                  -8.589
REMARK INTRA:                   0.188
REMARK UNBOUND:                -0.661
REMARK  Name = 
REMARK  4 active torsions:
REMARK  status: ('A' for Active; 'I' for Inactive)
REMARK    1  A    between atoms: C_2  and  C_4
REMARK    2  A    between atoms: C_7  and  N_8
REMARK    3  A    between atoms: N_8  and  C_9
REMARK    4  A    between atoms: C_9  and  C_10
REMARK                            x       y       z     vdW  Elec       q    Type
REMARK                         _______ _______ _______ _____ _____    ______ ____
ROOT
ATOM      1  C   UNL     1      45.577   4.907  12.230  0.00  0.00    +0.000 C 
ATOM      2  C   UNL     1      45.910   3.578  12.910  0.00  0.00    +0.000 C 
ATOM      3  C   UNL     1      44.854   4.452  13.494  0.00  0.00    +0.000 C 
ENDROOT
BRANCH   1   4
ATOM      4  C   UNL     1      46.634   6.008  12.381  0.00  0.00    +0.000 A 
ATOM      5  C   UNL     1      46.932   6.894  11.369  0.00  0.00    +0.000 A 
ATOM      6  C   UNL     1      47.749   7.944  11.711  0.00  0.00    +0.000 A 
ATOM      7  N   UNL     1      48.245   8.138  12.948  0.00  0.00    +0.000 NA
ATOM      8  C   UNL     1      47.952   7.216  13.871  0.00  0.00    +0.000 A 
ATOM      9  N   UNL     1      48.352   7.372  15.170  0.00  0.00    +0.000 N 
ATOM     10  C   UNL     1      48.943   8.611  15.655  0.00  0.00    +0.000 C 
ATOM     11  C   UNL     1      50.405   8.384  16.056  0.00  0.00    +0.000 C 
ATOM     12  O   UNL     1      50.551   7.272  16.958  0.00  0.00    +0.000 OA
ATOM     13  C   UNL     1      50.054   6.068  16.349  0.00  0.00    +0.000 C 
ATOM     14  C   UNL     1      48.562   6.191  16.007  0.00  0.00    +0.000 C 
ATOM     15  N   UNL     1      47.189   6.152  13.604  0.00  0.00    +0.000 NA
ENDBRANCH   1   4
BRANCH   1  16
ATOM     16  N   UNL     1      44.797   4.927  10.964  0.00  0.00    +0.000 N 
ATOM     17  H   UNL     1      43.800   4.768  11.086  0.00  0.00    +0.000 HD
BRANCH  16  21
ATOM     18  C   UNL     1      46.267   2.873   7.557  0.00  0.00    +0.000 A 
ATOM     19  C   UNL     1      45.509   2.205   8.525  0.00  0.00    +0.000 A 
ATOM     20  C   UNL     1      45.005   2.907   9.629  0.00  0.00    +0.000 A 
ATOM     21  C   UNL     1      45.278   4.272   9.804  0.00  0.00    +0.000 A 
ATOM     22  C   UNL     1      45.966   4.941   8.786  0.00  0.00    +0.000 A 
ATOM     23  C   UNL     1      46.478   4.248   7.685  0.00  0.00    +0.000 A 
BRANCH  18  25
ATOM     24  N   UNL     1      47.196   2.889   5.300  0.00  0.00    +0.000 N 
ATOM     25  C   UNL     1      46.913   2.163   6.425  0.00  0.00    +0.000 C 
ATOM     26  O   UNL     1      47.196   0.973   6.488  0.00  0.00    +0.000 OA
ATOM     27  H   UNL     1      47.700   2.399   4.573  0.00  0.00    +0.000 HD
ATOM     28  H   UNL     1      47.218   3.898   5.299  0.00  0.00    +0.000 HD
ENDBRANCH  18  25
ENDBRANCH  16  21
ENDBRANCH   1  16
TORSDOF 4
ENDMDL
MODEL 6
REMARK VINA RESULT:    -6.024      2.301      3.003
REMARK INTER + INTRA:          -8.094
REMARK INTER:                  -7.509
REMARK INTRA:                  -0.586
REMARK UNBOUND:                -0.661
REMARK  Name = 
REMARK  4 active torsions:
REMARK  status: ('A' for Active; 'I' for Inactive)
REMARK    1  A    between atoms: C_2  and  C_4
REMARK    2  A    between atoms: C_7  and  N_8
REMARK    3  A    between atoms: N_8  and  C_9
REMARK    4  A    between atoms: C_9  and  C_10
REMARK                            x       y       z     vdW  Elec       q    Type
REMARK                         _______ _______ _______ _____ _____    ______ ____
ROOT
ATOM      1  C   UNL     1      45.264   6.175  10.960  0.00  0.00    +0.000 C 
ATOM      2  C   UNL     1      45.431   7.695  10.976  0.00  0.00    +0.000 C 
ATOM      3  C   UNL     1      46.607   6.836  10.662  0.00  0.00    +0.000 C 
ENDROOT
BRANCH   1   4
ATOM      4  C   UNL     1      45.093   5.516  12.333  0.00  0.00    +0.000 A 
ATOM      5  C   UNL     1      43.949   4.837  12.693  0.00  0.00    +0.000 A 
ATOM      6  C   UNL     1      44.014   4.132  13.870  0.00  0.00    +0.000 A 
ATOM      7  N   UNL     1      45.109   4.075  14.652  0.00  0.00    +0.000 NA
ATOM      8  C   UNL     1      46.169   4.793  14.267  0.00  0.00    +0.000 A 
ATOM      9  N   UNL     1      47.346   4.734  14.961  0.00  0.00    +0.000 N 
ATOM     10  C   UNL     1      47.571   3.767  16.025  0.00  0.00    +0.000 C 
ATOM     11  C   UNL     1      47.720   4.481  17.373  0.00  0.00    +0.000 C 
ATOM     12  O   UNL     1      48.700   5.533  17.321  0.00  0.00    +0.000 OA
ATOM     13  C   UNL     1      48.334   6.507  16.328  0.00  0.00    +0.000 C 
ATOM     14  C   UNL     1      48.259   5.877  14.930  0.00  0.00    +0.000 C 
ATOM     15  N   UNL     1      46.169   5.527  13.150  0.00  0.00    +0.000 NA
ENDBRANCH   1   4
BRANCH   1  16
ATOM     16  N   UNL     1      44.563   5.509   9.830  0.00  0.00    +0.000 N 
ATOM     17  H   UNL     1      43.571   5.351   9.990  0.00  0.00    +0.000 HD
BRANCH  16  21
ATOM     18  C   UNL     1      46.338   2.165   7.918  0.00  0.00    +0.000 A 
ATOM     19  C   UNL     1      45.433   1.992   8.971  0.00  0.00    +0.000 A 
ATOM     20  C   UNL     1      44.833   3.107   9.572  0.00  0.00    +0.000 A 
ATOM     21  C   UNL     1      45.150   4.410   9.157  0.00  0.00    +0.000 A 
ATOM     22  C   UNL     1      45.990   4.561   8.049  0.00  0.00    +0.000 A 
ATOM     23  C   UNL     1      46.599   3.455   7.449  0.00  0.00    +0.000 A 
BRANCH  18  25
ATOM     24  N   UNL     1      46.713  -0.235   7.680  0.00  0.00    +0.000 N 
ATOM     25  C   UNL     1      47.082   1.032   7.316  0.00  0.00    +0.000 C 
ATOM     26  O   UNL     1      47.990   1.211   6.513  0.00  0.00    +0.000 OA
ATOM     27  H   UNL     1      47.188  -0.989   7.201  0.00  0.00    +0.000 HD
ATOM     28  H   UNL     1      45.829  -0.434   8.123  0.00  0.00    +0.000 HD
ENDBRANCH  18  25
ENDBRANCH  16  21
ENDBRANCH   1  16
TORSDOF 4
ENDMDL
