MODEL 1
REMARK VINA RESULT:    -7.135      0.000      0.000
REMARK INTER + INTRA:         -10.403
REMARK INTER:                  -9.429
REMARK INTRA:                  -0.974
REMARK UNBOUND:                -0.974
REMARK  Name = 
REMARK  7 active torsions:
REMARK  status: ('A' for Active; 'I' for Inactive)
REMARK    1  A    between atoms: C_1  and  C_2
REMARK    2  A    between atoms: C_4  and  C_5
REMARK    3  A    between atoms: C_5  and  N_6
REMARK    4  A    between atoms: C_9  and  O_10
REMARK    5  A    between atoms: C_15  and  C_16
REMARK    6  A    between atoms: C_16  and  N_17
REMARK    7  A    between atoms: C_18  and  C_20
REMARK                            x       y       z     vdW  Elec       q    Type
REMARK                         _______ _______ _______ _____ _____    ______ ____
ROOT
ATOM      1  C   UNL     1      47.147   3.464  17.153  0.00  0.00    +0.000 C 
ATOM      2  C   UNL     1      47.597   4.576  16.248  0.00  0.00    +0.000 A 
ATOM      3  C   UNL     1      47.182   4.509  14.903  0.00  0.00    +0.000 A 
ATOM      4  C   UNL     1      47.440   5.531  13.989  0.00  0.00    +0.000 A 
ATOM      5  C   UNL     1      48.191   6.628  14.432  0.00  0.00    +0.000 A 
ATOM      6  C   UNL     1      48.667   6.682  15.750  0.00  0.00    +0.000 A 
ATOM      7  C   UNL     1      48.404   5.653  16.673  0.00  0.00    +0.000 A 
ENDROOT
BRANCH   4   8
ATOM      8  C   UNL     1      46.900   5.435  12.572  0.00  0.00    +0.000 C 
BRANCH   8   9
ATOM      9  N   UNL     1      45.505   4.964  12.418  0.00  0.00    +0.000 NA
ATOM     10  C   UNL     1      45.171   4.660  11.026  0.00  0.00    +0.000 C 
ATOM     11  C   UNL     1      43.746   4.140  10.849  0.00  0.00    +0.000 C 
ATOM     12  C   UNL     1      42.718   5.056  11.501  0.00  0.00    +0.000 C 
ATOM     13  C   UNL     1      43.083   5.312  12.957  0.00  0.00    +0.000 C 
ATOM     14  C   UNL     1      44.526   5.800  13.118  0.00  0.00    +0.000 C 
BRANCH  12  15
ATOM     15  O   UNL     1      42.604   6.286  10.783  0.00  0.00    +0.000 OA
ATOM     16  H   UNL     1      41.658   6.485  10.668  0.00  0.00    +0.000 HD
ENDBRANCH  12  15
ENDBRANCH   8   9
ENDBRANCH   4   8
BRANCH   7  17
ATOM     17  C   UNL     1      48.979   5.757  18.072  0.00  0.00    +0.000 C 
BRANCH  17  18
ATOM     18  N   UNL     1      50.112   4.885  18.251  0.00  0.00    +0.000 N 
ATOM     19  C   UNL     1      51.395   5.251  17.918  0.00  0.00    +0.000 C 
ATOM     20  O   UNL     1      51.668   6.355  17.474  0.00  0.00    +0.000 OA
ATOM     21  H   UNL     1      49.893   3.901  18.375  0.00  0.00    +0.000 HD
BRANCH  19  22
ATOM     22  C   UNL     1      52.438   4.249  18.215  0.00  0.00    +0.000 A 
ATOM     23  C   UNL     1      53.629   4.642  18.818  0.00  0.00    +0.000 A 
ATOM     24  S   UNL     1      54.655   3.338  19.220  0.00  0.00    +0.000 S 
ATOM     25  C   UNL     1      53.573   2.207  18.552  0.00  0.00    +0.000 A 
ATOM     26  N   UNL     1      53.840   0.873  18.586  0.00  0.00    +0.000 NA
ATOM     27  C   UNL     1      52.932   0.130  18.046  0.00  0.00    +0.000 A 
ATOM     28  N   UNL     1      51.790   0.602  17.455  0.00  0.00    +0.000 N 
ATOM     29  C   UNL     1      51.492   1.941  17.375  0.00  0.00    +0.000 A 
ATOM     30  O   UNL     1      50.474   2.331  16.808  0.00  0.00    +0.000 OA
ATOM     31  C   UNL     1      52.454   2.817  18.015  0.00  0.00    +0.000 A 
ATOM     32  H   UNL     1      51.122  -0.031  17.037  0.00  0.00    +0.000 HD
ENDBRANCH  19  22
ENDBRANCH  17  18
ENDBRANCH   7  17
TORSDOF 6
ENDMDL
MODEL 2
REMARK VINA RESULT:    -6.824      3.525      8.686
REMARK INTER + INTRA:          -9.992
REMARK INTER:                  -9.462
REMARK INTRA:                  -0.531
REMARK UNBOUND:                -0.974
REMARK  Name = 
REMARK  7 active torsions:
REMARK  status: ('A' for Active; 'I' for Inactive)
REMARK    1  A    between atoms: C_1  and  C_2
REMARK    2  A    between atoms: C_4  and  C_5
REMARK    3  A    between atoms: C_5  and  N_6
REMARK    4  A    between atoms: C_9  and  O_10
REMARK    5  A    between atoms: C_15  and  C_16
REMARK    6  A    between atoms: C_16  and  N_17
REMARK    7  A    between atoms: C_18  and  C_20
REMARK                            x       y       z     vdW  Elec       q    Type
REMARK                         _______ _______ _______ _____ _____    ______ ____
ROOT
ATOM      1  C   UNL     1      51.319   8.516  13.151  0.00  0.00    +0.000 C 
ATOM      2  C   UNL     1      50.273   7.771  13.932  0.00  0.00    +0.000 A 
ATOM      3  C   UNL     1      50.622   7.359  15.233  0.00  0.00    +0.000 A 
ATOM      4  C   UNL     1      49.708   6.758  16.098  0.00  0.00    +0.000 A 
ATOM      5  C   UNL     1      48.417   6.510  15.614  0.00  0.00    +0.000 A 
ATOM      6  C   UNL     1      48.070   6.855  14.299  0.00  0.00    +0.000 A 
ATOM      7  C   UNL     1      48.990   7.466  13.428  0.00  0.00    +0.000 A 
ENDROOT
BRANCH   4   8
ATOM      8  C   UNL     1      50.125   6.405  17.517  0.00  0.00    +0.000 C 
BRANCH   8   9
ATOM      9  N   UNL     1      50.137   4.969  17.873  0.00  0.00    +0.000 NA
ATOM     10  C   UNL     1      51.293   4.267  17.314  0.00  0.00    +0.000 C 
ATOM     11  C   UNL     1      51.343   2.789  17.698  0.00  0.00    +0.000 C 
ATOM     12  C   UNL     1      50.032   2.075  17.392  0.00  0.00    +0.000 C 
ATOM     13  C   UNL     1      48.863   2.817  18.025  0.00  0.00    +0.000 C 
ATOM     14  C   UNL     1      48.849   4.303  17.657  0.00  0.00    +0.000 C 
BRANCH  12  15
ATOM     15  O   UNL     1      49.844   1.940  15.982  0.00  0.00    +0.000 OA
ATOM     16  H   UNL     1      49.030   1.428  15.831  0.00  0.00    +0.000 HD
ENDBRANCH  12  15
ENDBRANCH   8   9
ENDBRANCH   4   8
BRANCH   7  17
ATOM     17  C   UNL     1      48.561   7.780  12.008  0.00  0.00    +0.000 C 
BRANCH  17  18
ATOM     18  N   UNL     1      47.723   6.743  11.461  0.00  0.00    +0.000 N 
ATOM     19  C   UNL     1      46.354   6.851  11.385  0.00  0.00    +0.000 C 
ATOM     20  O   UNL     1      45.755   7.851  11.750  0.00  0.00    +0.000 OA
ATOM     21  H   UNL     1      48.153   5.825  11.385  0.00  0.00    +0.000 HD
BRANCH  19  22
ATOM     22  C   UNL     1      45.661   5.713  10.750  0.00  0.00    +0.000 A 
ATOM     23  C   UNL     1      45.808   5.481   9.386  0.00  0.00    +0.000 A 
ATOM     24  S   UNL     1      45.056   4.043   8.853  0.00  0.00    +0.000 S 
ATOM     25  C   UNL     1      44.461   3.709  10.411  0.00  0.00    +0.000 A 
ATOM     26  N   UNL     1      43.734   2.585  10.660  0.00  0.00    +0.000 NA
ATOM     27  C   UNL     1      43.349   2.457  11.885  0.00  0.00    +0.000 A 
ATOM     28  N   UNL     1      43.605   3.362  12.881  0.00  0.00    +0.000 N 
ATOM     29  C   UNL     1      44.310   4.521  12.671  0.00  0.00    +0.000 A 
ATOM     30  O   UNL     1      44.493   5.327  13.580  0.00  0.00    +0.000 OA
ATOM     31  C   UNL     1      44.814   4.689  11.321  0.00  0.00    +0.000 A 
ATOM     32  H   UNL     1      43.263   3.210  13.821  0.00  0.00    +0.000 HD
ENDBRANCH  19  22
ENDBRANCH  17  18
ENDBRANCH   7  17
TORSDOF 6
ENDMDL
MODEL 3
REMARK VINA RESULT:    -6.547      3.408      9.026
REMARK INTER + INTRA:          -9.626
REMARK INTER:                  -8.695
REMARK INTRA:                  -0.932
REMARK UNBOUND:                -0.974
REMARK  Name = 
REMARK  7 active torsions:
REMARK  status: ('A' for Active; 'I' for Inactive)
REMARK    1  A    between atoms: C_1  and  C_2
REMARK    2  A    between atoms: C_4  and  C_5
REMARK    3  A    between atoms: C_5  and  N_6
REMARK    4  A    between atoms: C_9  and  O_10
REMARK    5  A    between atoms: C_15  and  C_16
REMARK    6  A    between atoms: C_16  and  N_17
REMARK    7  A    between atoms: C_18  and  C_20
REMARK                            x       y       z     vdW  Elec       q    Type
REMARK                         _______ _______ _______ _____ _____    ______ ____
ROOT
ATOM      1  C   UNL     1      52.070   7.455  15.656  0.00  0.00    +0.000 C 
ATOM      2  C   UNL     1      50.997   6.603  16.274  0.00  0.00    +0.000 A 
ATOM      3  C   UNL     1      51.420   5.471  16.997  0.00  0.00    +0.000 A 
ATOM      4  C   UNL     1      50.533   4.662  17.708  0.00  0.00    +0.000 A 
ATOM      5  C   UNL     1      49.168   4.973  17.638  0.00  0.00    +0.000 A 
ATOM      6  C   UNL     1      48.722   6.060  16.871  0.00  0.00    +0.000 A 
ATOM      7  C   UNL     1      49.617   6.877  16.157  0.00  0.00    +0.000 A 
ENDROOT
BRANCH   4   8
ATOM      8  C   UNL     1      51.061   3.499  18.531  0.00  0.00    +0.000 C 
BRANCH   8   9
ATOM      9  N   UNL     1      52.433   3.034  18.229  0.00  0.00    +0.000 NA
ATOM     10  C   UNL     1      52.456   1.659  17.729  0.00  0.00    +0.000 C 
ATOM     11  C   UNL     1      53.861   1.170  17.379  0.00  0.00    +0.000 C 
ATOM     12  C   UNL     1      54.842   1.383  18.525  0.00  0.00    +0.000 C 
ATOM     13  C   UNL     1      54.813   2.834  18.986  0.00  0.00    +0.000 C 
ATOM     14  C   UNL     1      53.394   3.316  19.299  0.00  0.00    +0.000 C 
BRANCH  12  15
ATOM     15  O   UNL     1      54.556   0.500  19.611  0.00  0.00    +0.000 OA
ATOM     16  H   UNL     1      53.592   0.374  19.656  0.00  0.00    +0.000 HD
ENDBRANCH  12  15
ENDBRANCH   8   9
ENDBRANCH   4   8
BRANCH   7  17
ATOM     17  C   UNL     1      49.064   8.013  15.319  0.00  0.00    +0.000 C 
BRANCH  17  18
ATOM     18  N   UNL     1      47.892   7.614  14.584  0.00  0.00    +0.000 N 
ATOM     19  C   UNL     1      47.951   6.871  13.428  0.00  0.00    +0.000 C 
ATOM     20  O   UNL     1      49.005   6.471  12.960  0.00  0.00    +0.000 OA
ATOM     21  H   UNL     1      47.042   8.128  14.799  0.00  0.00    +0.000 HD
BRANCH  19  22
ATOM     22  C   UNL     1      46.648   6.511  12.836  0.00  0.00    +0.000 A 
ATOM     23  C   UNL     1      45.850   7.493  12.257  0.00  0.00    +0.000 A 
ATOM     24  S   UNL     1      44.452   6.877  11.495  0.00  0.00    +0.000 S 
ATOM     25  C   UNL     1      44.831   5.284  11.959  0.00  0.00    +0.000 A 
ATOM     26  N   UNL     1      44.036   4.240  11.600  0.00  0.00    +0.000 NA
ATOM     27  C   UNL     1      44.444   3.088  12.017  0.00  0.00    +0.000 A 
ATOM     28  N   UNL     1      45.564   2.888  12.780  0.00  0.00    +0.000 N 
ATOM     29  C   UNL     1      46.381   3.915  13.187  0.00  0.00    +0.000 A 
ATOM     30  O   UNL     1      47.360   3.704  13.899  0.00  0.00    +0.000 OA
ATOM     31  C   UNL     1      45.998   5.226  12.700  0.00  0.00    +0.000 A 
ATOM     32  H   UNL     1      45.824   1.961  13.088  0.00  0.00    +0.000 HD
ENDBRANCH  19  22
ENDBRANCH  17  18
ENDBRANCH   7  17
TORSDOF 6
ENDMDL
MODEL 4
REMARK VINA RESULT:    -6.533      3.000      4.314
REMARK INTER + INTRA:          -9.608
REMARK INTER:                  -8.833
REMARK INTRA:                  -0.775
REMARK UNBOUND:                -0.974
REMARK  Name = 
REMARK  7 active torsions:
REMARK  status: ('A' for Active; 'I' for Inactive)
REMARK    1  A    between atoms: C_1  and  C_2
REMARK    2  A    between atoms: C_4  and  C_5
REMARK    3  A    between atoms: C_5  and  N_6
REMARK    4  A    between atoms: C_9  and  O_10
REMARK    5  A    between atoms: C_15  and  C_16
REMARK    6  A    between atoms: C_16  and  N_17
REMARK    7  A    between atoms: C_18  and  C_20
REMARK                            x       y       z     vdW  Elec       q    Type
REMARK                         _______ _______ _______ _____ _____    ______ ____
ROOT
ATOM      1  C   UNL     1      48.082  10.387  12.735  0.00  0.00    +0.000 C 
ATOM      2  C   UNL     1      47.683   8.954  12.519  0.00  0.00    +0.000 A 
ATOM      3  C   UNL     1      46.349   8.716  12.134  0.00  0.00    +0.000 A 
ATOM      4  C   UNL     1      45.883   7.445  11.797  0.00  0.00    +0.000 A 
ATOM      5  C   UNL     1      46.777   6.371  11.908  0.00  0.00    +0.000 A 
ATOM      6  C   UNL     1      48.092   6.581  12.351  0.00  0.00    +0.000 A 
ATOM      7  C   UNL     1      48.563   7.863  12.687  0.00  0.00    +0.000 A 
ENDROOT
BRANCH   4   8
ATOM      8  C   UNL     1      44.453   7.264  11.316  0.00  0.00    +0.000 C 
BRANCH   8   9
ATOM      9  N   UNL     1      43.835   5.938  11.539  0.00  0.00    +0.000 NA
ATOM     10  C   UNL     1      43.894   5.525  12.942  0.00  0.00    +0.000 C 
ATOM     11  C   UNL     1      43.232   4.172  13.199  0.00  0.00    +0.000 C 
ATOM     12  C   UNL     1      43.753   3.093  12.258  0.00  0.00    +0.000 C 
ATOM     13  C   UNL     1      43.635   3.548  10.810  0.00  0.00    +0.000 C 
ATOM     14  C   UNL     1      44.274   4.921  10.578  0.00  0.00    +0.000 C 
BRANCH  12  15
ATOM     15  O   UNL     1      45.104   2.750  12.574  0.00  0.00    +0.000 OA
ATOM     16  H   UNL     1      45.589   2.625  11.740  0.00  0.00    +0.000 HD
ENDBRANCH  12  15
ENDBRANCH   8   9
ENDBRANCH   4   8
BRANCH   7  17
ATOM     17  C   UNL     1      49.984   8.014  13.193  0.00  0.00    +0.000 C 
BRANCH  17  18
ATOM     18  N   UNL     1      50.197   7.280  14.414  0.00  0.00    +0.000 N 
ATOM     19  C   UNL     1      49.799   7.746  15.645  0.00  0.00    +0.000 C 
ATOM     20  O   UNL     1      49.208   8.805  15.785  0.00  0.00    +0.000 OA
ATOM     21  H   UNL     1      50.890   6.538  14.365  0.00  0.00    +0.000 HD
BRANCH  19  22
ATOM     22  C   UNL     1      50.055   6.839  16.781  0.00  0.00    +0.000 A 
ATOM     23  C   UNL     1      51.050   7.142  17.705  0.00  0.00    +0.000 A 
ATOM     24  S   UNL     1      51.108   6.064  19.027  0.00  0.00    +0.000 S 
ATOM     25  C   UNL     1      49.845   5.121  18.387  0.00  0.00    +0.000 A 
ATOM     26  N   UNL     1      49.377   4.029  19.051  0.00  0.00    +0.000 NA
ATOM     27  C   UNL     1      48.416   3.409  18.451  0.00  0.00    +0.000 A 
ATOM     28  N   UNL     1      47.895   3.768  17.236  0.00  0.00    +0.000 N 
ATOM     29  C   UNL     1      48.355   4.846  16.519  0.00  0.00    +0.000 A 
ATOM     30  O   UNL     1      47.887   5.120  15.416  0.00  0.00    +0.000 OA
ATOM     31  C   UNL     1      49.398   5.611  17.173  0.00  0.00    +0.000 A 
ATOM     32  H   UNL     1      47.151   3.233  16.811  0.00  0.00    +0.000 HD
ENDBRANCH  19  22
ENDBRANCH  17  18
ENDBRANCH   7  17
TORSDOF 6
ENDMDL
MODEL 5
REMARK VINA RESULT:    -6.496      6.665      9.681
REMARK INTER + INTRA:          -9.559
REMARK INTER:                  -8.680
REMARK INTRA:                  -0.880
REMARK UNBOUND:                -0.974
REMARK  Name = 
REMARK  7 active torsions:
REMARK  status: ('A' for Active; 'I' for Inactive)
REMARK    1  A    between atoms: C_1  and  C_2
REMARK    2  A    between atoms: C_4  and  C_5
REMARK    3  A    between atoms: C_5  and  N_6
REMARK    4  A    between atoms: C_9  and  O_10
REMARK    5  A    between atoms: C_15  and  C_16
REMARK    6  A    between atoms: C_16  and  N_17
REMARK    7  A    between atoms: C_18  and  C_20
REMARK                            x       y       z     vdW  Elec       q    Type
REMARK                         _______ _______ _______ _____ _____    ______ ____
ROOT
ATOM      1  C   UNL     1      47.290  10.905  11.828  0.00  0.00    +0.000 C 
ATOM      2  C   UNL     1      48.138   9.668  11.929  0.00  0.00    +0.000 A 
ATOM      3  C   UNL     1      49.459   9.760  11.447  0.00  0.00    +0.000 A 
ATOM      4  C   UNL     1      50.379   8.720  11.582  0.00  0.00    +0.000 A 
ATOM      5  C   UNL     1      49.934   7.528  12.169  0.00  0.00    +0.000 A 
ATOM      6  C   UNL     1      48.605   7.396  12.598  0.00  0.00    +0.000 A 
ATOM      7  C   UNL     1      47.678   8.447  12.465  0.00  0.00    +0.000 A 
ENDROOT
BRANCH   4   8
ATOM      8  C   UNL     1      51.811   8.909  11.109  0.00  0.00    +0.000 C 
BRANCH   8   9
ATOM      9  N   UNL     1      52.218   8.164   9.896  0.00  0.00    +0.000 NA
ATOM     10  C   UNL     1      52.991   6.963  10.215  0.00  0.00    +0.000 C 
ATOM     11  C   UNL     1      53.393   6.161   8.978  0.00  0.00    +0.000 C 
ATOM     12  C   UNL     1      54.082   7.030   7.933  0.00  0.00    +0.000 C 
ATOM     13  C   UNL     1      53.226   8.245   7.604  0.00  0.00    +0.000 C 
ATOM     14  C   UNL     1      52.804   9.016   8.858  0.00  0.00    +0.000 C 
BRANCH  12  15
ATOM     15  O   UNL     1      55.380   7.430   8.379  0.00  0.00    +0.000 OA
ATOM     16  H   UNL     1      56.042   7.015   7.799  0.00  0.00    +0.000 HD
ENDBRANCH  12  15
ENDBRANCH   8   9
ENDBRANCH   4   8
BRANCH   7  17
ATOM     17  C   UNL     1      46.247   8.225  12.916  0.00  0.00    +0.000 C 
BRANCH  17  18
ATOM     18  N   UNL     1      45.792   6.892  12.612  0.00  0.00    +0.000 N 
ATOM     19  C   UNL     1      44.806   6.632  11.689  0.00  0.00    +0.000 C 
ATOM     20  O   UNL     1      44.268   7.515  11.039  0.00  0.00    +0.000 OA
ATOM     21  H   UNL     1      46.031   6.179  13.295  0.00  0.00    +0.000 HD
BRANCH  19  22
ATOM     22  C   UNL     1      44.501   5.205  11.470  0.00  0.00    +0.000 A 
ATOM     23  C   UNL     1      43.814   4.482  12.440  0.00  0.00    +0.000 A 
ATOM     24  S   UNL     1      43.421   2.892  11.958  0.00  0.00    +0.000 S 
ATOM     25  C   UNL     1      44.202   3.092  10.459  0.00  0.00    +0.000 A 
ATOM     26  N   UNL     1      44.218   2.092   9.537  0.00  0.00    +0.000 NA
ATOM     27  C   UNL     1      44.844   2.382   8.445  0.00  0.00    +0.000 A 
ATOM     28  N   UNL     1      45.473   3.573   8.200  0.00  0.00    +0.000 N 
ATOM     29  C   UNL     1      45.504   4.600   9.112  0.00  0.00    +0.000 A 
ATOM     30  O   UNL     1      46.107   5.643   8.873  0.00  0.00    +0.000 OA
ATOM     31  C   UNL     1      44.770   4.347  10.337  0.00  0.00    +0.000 A 
ATOM     32  H   UNL     1      45.959   3.735   7.328  0.00  0.00    +0.000 HD
ENDBRANCH  19  22
ENDBRANCH  17  18
ENDBRANCH   7  17
TORSDOF 6
ENDMDL
MODEL 6
REMARK VINA RESULT:    -6.479      4.309      8.720
REMARK INTER + INTRA:          -9.537
REMARK INTER:                  -8.950
REMARK INTRA:                  -0.587
REMARK UNBOUND:                -0.974
REMARK  Name = 
REMARK  7 active torsions:
REMARK  status: ('A' for Active; 'I' for Inactive)
REMARK    1  A    between atoms: C_1  and  C_2
REMARK    2  A    between atoms: C_4  and  C_5
REMARK    3  A    between atoms: C_5  and  N_6
REMARK    4  A    between atoms: C_9  and  O_10
REMARK    5  A    between atoms: C_15  and  C_16
REMARK    6  A    between atoms: C_16  and  N_17
REMARK    7  A    between atoms: C_18  and  C_20
REMARK                            x       y       z     vdW  Elec       q    Type
REMARK                         _______ _______ _______ _____ _____    ______ ____
ROOT
ATOM      1  C   UNL     1      50.646   9.602  13.104  0.00  0.00    +0.000 C 
ATOM      2  C   UNL     1      50.007   8.420  13.778  0.00  0.00    +0.000 A 
ATOM      3  C   UNL     1      50.578   7.995  14.994  0.00  0.00    +0.000 A 
ATOM      4  C   UNL     1      50.015   6.983  15.771  0.00  0.00    +0.000 A 
ATOM      5  C   UNL     1      48.872   6.340  15.277  0.00  0.00    +0.000 A 
ATOM      6  C   UNL     1      48.326   6.707  14.038  0.00  0.00    +0.000 A 
ATOM      7  C   UNL     1      48.891   7.731  13.256  0.00  0.00    +0.000 A 
ENDROOT
BRANCH   4   8
ATOM      8  C   UNL     1      50.635   6.621  17.110  0.00  0.00    +0.000 C 
BRANCH   8   9
ATOM      9  N   UNL     1      49.725   6.565  18.276  0.00  0.00    +0.000 NA
ATOM     10  C   UNL     1      49.383   5.191  18.648  0.00  0.00    +0.000 C 
ATOM     11  C   UNL     1      48.470   5.109  19.871  0.00  0.00    +0.000 C 
ATOM     12  C   UNL     1      47.237   5.991  19.723  0.00  0.00    +0.000 C 
ATOM     13  C   UNL     1      47.641   7.417  19.375  0.00  0.00    +0.000 C 
ATOM     14  C   UNL     1      48.583   7.477  18.169  0.00  0.00    +0.000 C 
BRANCH  12  15
ATOM     15  O   UNL     1      46.347   5.461  18.737  0.00  0.00    +0.000 OA
ATOM     16  H   UNL     1      45.532   5.176  19.185  0.00  0.00    +0.000 HD
ENDBRANCH  12  15
ENDBRANCH   8   9
ENDBRANCH   4   8
BRANCH   7  17
ATOM     17  C   UNL     1      48.273   8.053  11.910  0.00  0.00    +0.000 C 
BRANCH  17  18
ATOM     18  N   UNL     1      47.506   6.947  11.395  0.00  0.00    +0.000 N 
ATOM     19  C   UNL     1      46.132   6.950  11.345  0.00  0.00    +0.000 C 
ATOM     20  O   UNL     1      45.465   7.906  11.708  0.00  0.00    +0.000 OA
ATOM     21  H   UNL     1      48.003   6.064  11.323  0.00  0.00    +0.000 HD
BRANCH  19  22
ATOM     22  C   UNL     1      45.516   5.752  10.741  0.00  0.00    +0.000 A 
ATOM     23  C   UNL     1      45.719   5.468   9.394  0.00  0.00    +0.000 A 
ATOM     24  S   UNL     1      45.056   3.974   8.902  0.00  0.00    +0.000 S 
ATOM     25  C   UNL     1      44.425   3.678  10.455  0.00  0.00    +0.000 A 
ATOM     26  N   UNL     1      43.746   2.532  10.731  0.00  0.00    +0.000 NA
ATOM     27  C   UNL     1      43.326   2.438  11.948  0.00  0.00    +0.000 A 
ATOM     28  N   UNL     1      43.505   3.397  12.910  0.00  0.00    +0.000 N 
ATOM     29  C   UNL     1      44.161   4.579  12.670  0.00  0.00    +0.000 A 
ATOM     30  O   UNL     1      44.274   5.432  13.547  0.00  0.00    +0.000 OA
ATOM     31  C   UNL     1      44.701   4.713  11.330  0.00  0.00    +0.000 A 
ATOM     32  H   UNL     1      43.139   3.270  13.844  0.00  0.00    +0.000 HD
ENDBRANCH  19  22
ENDBRANCH  17  18
ENDBRANCH   7  17
TORSDOF 6
ENDMDL
MODEL 7
REMARK VINA RESULT:    -6.272      4.018      9.089
REMARK INTER + INTRA:          -9.262
REMARK INTER:                  -8.388
REMARK INTRA:                  -0.874
REMARK UNBOUND:                -0.974
REMARK  Name = 
REMARK  7 active torsions:
REMARK  status: ('A' for Active; 'I' for Inactive)
REMARK    1  A    between atoms: C_1  and  C_2
REMARK    2  A    between atoms: C_4  and  C_5
REMARK    3  A    between atoms: C_5  and  N_6
REMARK    4  A    between atoms: C_9  and  O_10
REMARK    5  A    between atoms: C_15  and  C_16
REMARK    6  A    between atoms: C_16  and  N_17
REMARK    7  A    between atoms: C_18  and  C_20
REMARK                            x       y       z     vdW  Elec       q    Type
REMARK                         _______ _______ _______ _____ _____    ______ ____
ROOT
ATOM      1  C   UNL     1      50.115   7.775  11.528  0.00  0.00    +0.000 C 
ATOM      2  C   UNL     1      49.481   8.012  12.870  0.00  0.00    +0.000 A 
ATOM      3  C   UNL     1      50.336   7.992  13.990  0.00  0.00    +0.000 A 
ATOM      4  C   UNL     1      49.893   8.305  15.275  0.00  0.00    +0.000 A 
ATOM      5  C   UNL     1      48.531   8.591  15.444  0.00  0.00    +0.000 A 
ATOM      6  C   UNL     1      47.653   8.554  14.351  0.00  0.00    +0.000 A 
ATOM      7  C   UNL     1      48.101   8.242  13.054  0.00  0.00    +0.000 A 
ENDROOT
BRANCH   4   8
ATOM      8  C   UNL     1      50.880   8.340  16.430  0.00  0.00    +0.000 C 
BRANCH   8   9
ATOM      9  N   UNL     1      50.805   7.230  17.407  0.00  0.00    +0.000 NA
ATOM     10  C   UNL     1      50.574   5.937  16.762  0.00  0.00    +0.000 C 
ATOM     11  C   UNL     1      50.527   4.772  17.750  0.00  0.00    +0.000 C 
ATOM     12  C   UNL     1      49.551   5.030  18.891  0.00  0.00    +0.000 C 
ATOM     13  C   UNL     1      49.854   6.365  19.557  0.00  0.00    +0.000 C 
ATOM     14  C   UNL     1      49.931   7.514  18.548  0.00  0.00    +0.000 C 
BRANCH  12  15
ATOM     15  O   UNL     1      48.201   4.990  18.426  0.00  0.00    +0.000 OA
ATOM     16  H   UNL     1      47.616   4.879  19.195  0.00  0.00    +0.000 HD
ENDBRANCH  12  15
ENDBRANCH   8   9
ENDBRANCH   4   8
BRANCH   7  17
ATOM     17  C   UNL     1      47.092   8.183  11.923  0.00  0.00    +0.000 C 
BRANCH  17  18
ATOM     18  N   UNL     1      46.506   6.873  11.797  0.00  0.00    +0.000 N 
ATOM     19  C   UNL     1      45.156   6.672  11.635  0.00  0.00    +0.000 C 
ATOM     20  O   UNL     1      44.360   7.595  11.557  0.00  0.00    +0.000 OA
ATOM     21  H   UNL     1      47.090   6.099  12.102  0.00  0.00    +0.000 HD
BRANCH  19  22
ATOM     22  C   UNL     1      44.738   5.265  11.473  0.00  0.00    +0.000 A 
ATOM     23  C   UNL     1      44.072   4.612  12.506  0.00  0.00    +0.000 A 
ATOM     24  S   UNL     1      43.537   3.045  12.092  0.00  0.00    +0.000 S 
ATOM     25  C   UNL     1      44.222   3.159  10.538  0.00  0.00    +0.000 A 
ATOM     26  N   UNL     1      44.104   2.143   9.641  0.00  0.00    +0.000 NA
ATOM     27  C   UNL     1      44.670   2.366   8.502  0.00  0.00    +0.000 A 
ATOM     28  N   UNL     1      45.362   3.504   8.185  0.00  0.00    +0.000 N 
ATOM     29  C   UNL     1      45.528   4.544   9.067  0.00  0.00    +0.000 A 
ATOM     30  O   UNL     1      46.184   5.537   8.761  0.00  0.00    +0.000 OA
ATOM     31  C   UNL     1      44.866   4.369  10.345  0.00  0.00    +0.000 A 
ATOM     32  H   UNL     1      45.794   3.614   7.278  0.00  0.00    +0.000 HD
ENDBRANCH  19  22
ENDBRANCH  17  18
ENDBRANCH   7  17
TORSDOF 6
ENDMDL
MODEL 8
REMARK VINA RESULT:    -6.129      5.435      8.861
REMARK INTER + INTRA:          -9.074
REMARK INTER:                  -8.843
REMARK INTRA:                  -0.230
REMARK UNBOUND:                -0.974
REMARK  Name = 
REMARK  7 active torsions:
REMARK  status: ('A' for Active; 'I' for Inactive)
REMARK    1  A    between atoms: C_1  and  C_2
REMARK    2  A    between atoms: C_4  and  C_5
REMARK    3  A    between atoms: C_5  and  N_6
REMARK    4  A    between atoms: C_9  and  O_10
REMARK    5  A    between atoms: C_15  and  C_16
REMARK    6  A    between atoms: C_16  and  N_17
REMARK    7  A    between atoms: C_18  and  C_20
REMARK                            x       y       z     vdW  Elec       q    Type
REMARK                         _______ _______ _______ _____ _____    ______ ____
ROOT
ATOM      1  C   UNL     1      51.376   7.625  15.124  0.00  0.00    +0.000 C 
ATOM      2  C   UNL     1      50.870   8.238  13.849  0.00  0.00    +0.000 A 
ATOM      3  C   UNL     1      51.839   8.681  12.927  0.00  0.00    +0.000 A 
ATOM      4  C   UNL     1      51.502   9.167  11.663  0.00  0.00    +0.000 A 
ATOM      5  C   UNL     1      50.141   9.263  11.343  0.00  0.00    +0.000 A 
ATOM      6  C   UNL     1      49.160   8.886  12.272  0.00  0.00    +0.000 A 
ATOM      7  C   UNL     1      49.500   8.392  13.545  0.00  0.00    +0.000 A 
ENDROOT
BRANCH   4   8
ATOM      8  C   UNL     1      52.597   9.559  10.685  0.00  0.00    +0.000 C 
BRANCH   8   9
ATOM      9  N   UNL     1      53.276   8.458   9.966  0.00  0.00    +0.000 NA
ATOM     10  C   UNL     1      52.344   7.412   9.542  0.00  0.00    +0.000 C 
ATOM     11  C   UNL     1      53.020   6.282   8.768  0.00  0.00    +0.000 C 
ATOM     12  C   UNL     1      54.221   5.716   9.516  0.00  0.00    +0.000 C 
ATOM     13  C   UNL     1      55.182   6.832   9.901  0.00  0.00    +0.000 C 
ATOM     14  C   UNL     1      54.480   7.972  10.646  0.00  0.00    +0.000 C 
BRANCH  12  15
ATOM     15  O   UNL     1      53.803   4.985  10.671  0.00  0.00    +0.000 OA
ATOM     16  H   UNL     1      53.903   4.035  10.483  0.00  0.00    +0.000 HD
ENDBRANCH  12  15
ENDBRANCH   8   9
ENDBRANCH   4   8
BRANCH   7  17
ATOM     17  C   UNL     1      48.390   8.037  14.515  0.00  0.00    +0.000 C 
BRANCH  17  18
ATOM     18  N   UNL     1      47.197   7.610  13.830  0.00  0.00    +0.000 N 
ATOM     19  C   UNL     1      47.093   6.393  13.199  0.00  0.00    +0.000 C 
ATOM     20  O   UNL     1      47.998   5.573  13.203  0.00  0.00    +0.000 OA
ATOM     21  H   UNL     1      46.537   8.346  13.597  0.00  0.00    +0.000 HD
BRANCH  19  22
ATOM     22  C   UNL     1      45.780   6.102  12.591  0.00  0.00    +0.000 A 
ATOM     23  C   UNL     1      45.019   7.134  12.049  0.00  0.00    +0.000 A 
ATOM     24  S   UNL     1      43.603   6.598  11.260  0.00  0.00    +0.000 S 
ATOM     25  C   UNL     1      43.924   4.976  11.662  0.00  0.00    +0.000 A 
ATOM     26  N   UNL     1      43.094   3.975  11.261  0.00  0.00    +0.000 NA
ATOM     27  C   UNL     1      43.460   2.794  11.634  0.00  0.00    +0.000 A 
ATOM     28  N   UNL     1      44.570   2.525  12.391  0.00  0.00    +0.000 N 
ATOM     29  C   UNL     1      45.421   3.506  12.840  0.00  0.00    +0.000 A 
ATOM     30  O   UNL     1      46.389   3.232  13.545  0.00  0.00    +0.000 OA
ATOM     31  C   UNL     1      45.085   4.847  12.403  0.00  0.00    +0.000 A 
ATOM     32  H   UNL     1      44.796   1.578  12.663  0.00  0.00    +0.000 HD
ENDBRANCH  19  22
ENDBRANCH  17  18
ENDBRANCH   7  17
TORSDOF 6
ENDMDL
MODEL 9
REMARK VINA RESULT:    -5.938      6.368      9.450
REMARK INTER + INTRA:          -8.822
REMARK INTER:                  -8.178
REMARK INTRA:                  -0.644
REMARK UNBOUND:                -0.974
REMARK  Name = 
REMARK  7 active torsions:
REMARK  status: ('A' for Active; 'I' for Inactive)
REMARK    1  A    between atoms: C_1  and  C_2
REMARK    2  A    between atoms: C_4  and  C_5
REMARK    3  A    between atoms: C_5  and  N_6
REMARK    4  A    between atoms: C_9  and  O_10
REMARK    5  A    between atoms: C_15  and  C_16
REMARK    6  A    between atoms: C_16  and  N_17
REMARK    7  A    between atoms: C_18  and  C_20
REMARK                            x       y       z     vdW  Elec       q    Type
REMARK                         _______ _______ _______ _____ _____    ______ ____
ROOT
ATOM      1  C   UNL     1      47.656  10.713  11.638  0.00  0.00    +0.000 C 
ATOM      2  C   UNL     1      48.778   9.735  11.846  0.00  0.00    +0.000 A 
ATOM      3  C   UNL     1      50.013  10.046  11.242  0.00  0.00    +0.000 A 
ATOM      4  C   UNL     1      51.160   9.279  11.447  0.00  0.00    +0.000 A 
ATOM      5  C   UNL     1      51.043   8.130  12.240  0.00  0.00    +0.000 A 
ATOM      6  C   UNL     1      49.807   7.770  12.798  0.00  0.00    +0.000 A 
ATOM      7  C   UNL     1      48.651   8.546  12.594  0.00  0.00    +0.000 A 
ENDROOT
BRANCH   4   8
ATOM      8  C   UNL     1      52.480   9.709  10.829  0.00  0.00    +0.000 C 
BRANCH   8   9
ATOM      9  N   UNL     1      53.263   8.664  10.131  0.00  0.00    +0.000 NA
ATOM     10  C   UNL     1      52.410   7.725   9.401  0.00  0.00    +0.000 C 
ATOM     11  C   UNL     1      53.200   6.658   8.645  0.00  0.00    +0.000 C 
ATOM     12  C   UNL     1      54.203   5.946   9.545  0.00  0.00    +0.000 C 
ATOM     13  C   UNL     1      55.094   6.958  10.252  0.00  0.00    +0.000 C 
ATOM     14  C   UNL     1      54.285   8.040  10.975  0.00  0.00    +0.000 C 
BRANCH  12  15
ATOM     15  O   UNL     1      53.535   5.110  10.491  0.00  0.00    +0.000 OA
ATOM     16  H   UNL     1      53.637   4.185  10.206  0.00  0.00    +0.000 HD
ENDBRANCH  12  15
ENDBRANCH   8   9
ENDBRANCH   4   8
BRANCH   7  17
ATOM     17  C   UNL     1      47.339   8.080  13.196  0.00  0.00    +0.000 C 
BRANCH  17  18
ATOM     18  N   UNL     1      46.774   6.978  12.460  0.00  0.00    +0.000 N 
ATOM     19  C   UNL     1      45.711   7.121  11.600  0.00  0.00    +0.000 C 
ATOM     20  O   UNL     1      45.189   8.203  11.378  0.00  0.00    +0.000 OA
ATOM     21  H   UNL     1      47.013   6.052  12.803  0.00  0.00    +0.000 HD
BRANCH  19  22
ATOM     22  C   UNL     1      45.295   5.894  10.893  0.00  0.00    +0.000 A 
ATOM     23  C   UNL     1      45.675   5.690   9.570  0.00  0.00    +0.000 A 
ATOM     24  S   UNL     1      45.232   4.158   8.960  0.00  0.00    +0.000 S 
ATOM     25  C   UNL     1      44.469   3.733  10.421  0.00  0.00    +0.000 A 
ATOM     26  N   UNL     1      43.890   2.513  10.582  0.00  0.00    +0.000 NA
ATOM     27  C   UNL     1      43.351   2.325  11.740  0.00  0.00    +0.000 A 
ATOM     28  N   UNL     1      43.320   3.255  12.745  0.00  0.00    +0.000 N 
ATOM     29  C   UNL     1      43.869   4.508  12.617  0.00  0.00    +0.000 A 
ATOM     30  O   UNL     1      43.793   5.330  13.528  0.00  0.00    +0.000 OA
ATOM     31  C   UNL     1      44.536   4.753  11.353  0.00  0.00    +0.000 A 
ATOM     32  H   UNL     1      42.870   3.052  13.627  0.00  0.00    +0.000 HD
ENDBRANCH  19  22
ENDBRANCH  17  18
ENDBRANCH   7  17
TORSDOF 6
ENDMDL
