MODEL 1
REMARK VINA RESULT:    -7.524      0.000      0.000
REMARK INTER + INTRA:         -13.432
REMARK INTER:                 -12.582
REMARK INTRA:                  -0.849
REMARK UNBOUND:                -0.849
REMARK  Name = 
REMARK  13 active torsions:
REMARK  status: ('A' for Active; 'I' for Inactive)
REMARK    1  A    between atoms: C_1  and  C_2
REMARK    2  A    between atoms: C_2  and  N_3
REMARK    3  A    between atoms: N_3  and  C_4
REMARK    4  A    between atoms: N_3  and  C_25
REMARK    5  A    between atoms: C_4  and  C_5
REMARK    6  A    between atoms: C_8  and  C_9
REMARK    7  A    between atoms: C_9  and  N_10
REMARK    8  A    between atoms: C_11  and  C_13
REMARK    9  A    between atoms: C_25  and  C_26
REMARK   10  A    between atoms: N_29  and  C_30
REMARK   11  A    between atoms: C_30  and  C_31
REMARK   12  A    between atoms: C_31  and  C_32
REMARK   13  A    between atoms: C_32  and  N_33
REMARK                            x       y       z     vdW  Elec       q    Type
REMARK                         _______ _______ _______ _____ _____    ______ ____
ROOT
ATOM      1  C   UNL     1      47.519   5.341  14.146  0.00  0.00    +0.000 A 
ATOM      2  C   UNL     1      48.050   5.954  15.286  0.00  0.00    +0.000 A 
ATOM      3  C   UNL     1      48.193   5.223  16.460  0.00  0.00    +0.000 A 
ATOM      4  C   UNL     1      47.742   3.907  16.485  0.00  0.00    +0.000 A 
ATOM      5  N   UNL     1      47.143   3.317  15.424  0.00  0.00    +0.000 NA
ATOM      6  C   UNL     1      47.050   4.042  14.286  0.00  0.00    +0.000 A 
ENDROOT
BRANCH   1   7
ATOM      7  C   UNL     1      47.582   6.007  12.792  0.00  0.00    +0.000 C 
BRANCH   7   8
ATOM      8  N   UNL     1      46.269   6.385  12.214  0.00  0.00    +0.000 NA
BRANCH   8  10
ATOM      9  C   UNL     1      45.872   8.888  12.280  0.00  0.00    +0.000 C 
ATOM     10  C   UNL     1      45.605   7.516  12.883  0.00  0.00    +0.000 C 
ENDBRANCH   8  10
BRANCH   8  11
ATOM     11  C   UNL     1      45.366   5.215  12.152  0.00  0.00    +0.000 C 
BRANCH  11  12
ATOM     12  C   UNL     1      44.282   5.264  11.053  0.00  0.00    +0.000 C 
ATOM     13  C   UNL     1      43.502   3.947  11.010  0.00  0.00    +0.000 C 
ATOM     14  C   UNL     1      44.336   2.801  10.448  0.00  0.00    +0.000 C 
ATOM     15  N   UNL     1      44.887   3.127   9.124  0.00  0.00    +0.000 NA
ATOM     16  C   UNL     1      45.680   4.367   9.139  0.00  0.00    +0.000 C 
ATOM     17  C   UNL     1      44.865   5.549   9.667  0.00  0.00    +0.000 C 
BRANCH  15  18
ATOM     18  C   UNL     1      45.686   2.016   8.584  0.00  0.00    +0.000 C 
BRANCH  18  19
ATOM     19  C   UNL     1      46.521   2.393   7.352  0.00  0.00    +0.000 C 
BRANCH  19  20
ATOM     20  C   UNL     1      47.618   1.370   7.059  0.00  0.00    +0.000 C 
BRANCH  20  21
ATOM     21  N   UNL     1      48.401   1.789   5.898  0.00  0.00    +0.000 NA
ATOM     22  H   UNL     1      47.936   2.563   5.430  0.00  0.00    +0.000 HD
ATOM     23  H   UNL     1      48.435   1.021   5.229  0.00  0.00    +0.000 HD
ENDBRANCH  20  21
ENDBRANCH  19  20
ENDBRANCH  18  19
ENDBRANCH  15  18
ENDBRANCH  11  12
ENDBRANCH   8  11
ENDBRANCH   7   8
ENDBRANCH   1   7
BRANCH   4  24
ATOM     24  C   UNL     1      47.965   3.048  17.702  0.00  0.00    +0.000 C 
BRANCH  24  25
ATOM     25  N   UNL     1      49.372   2.863  17.993  0.00  0.00    +0.000 N 
ATOM     26  C   UNL     1      50.200   2.138  17.178  0.00  0.00    +0.000 C 
ATOM     27  O   UNL     1      49.786   1.583  16.163  0.00  0.00    +0.000 OA
ATOM     28  H   UNL     1      49.667   3.102  18.936  0.00  0.00    +0.000 HD
BRANCH  26  29
ATOM     29  C   UNL     1      51.626   2.123  17.530  0.00  0.00    +0.000 A 
ATOM     30  C   UNL     1      52.270   0.905  17.713  0.00  0.00    +0.000 A 
ATOM     31  S   UNL     1      53.931   1.052  18.069  0.00  0.00    +0.000 S 
ATOM     32  C   UNL     1      53.842   2.750  18.040  0.00  0.00    +0.000 A 
ATOM     33  N   UNL     1      54.939   3.512  18.299  0.00  0.00    +0.000 NA
ATOM     34  C   UNL     1      54.723   4.784  18.276  0.00  0.00    +0.000 A 
ATOM     35  N   UNL     1      53.513   5.364  18.004  0.00  0.00    +0.000 N 
ATOM     36  C   UNL     1      52.389   4.637  17.684  0.00  0.00    +0.000 A 
ATOM     37  O   UNL     1      51.344   5.190  17.363  0.00  0.00    +0.000 OA
ATOM     38  C   UNL     1      52.568   3.199  17.733  0.00  0.00    +0.000 A 
ATOM     39  H   UNL     1      53.412   6.368  17.981  0.00  0.00    +0.000 HD
ENDBRANCH  26  29
ENDBRANCH  24  25
ENDBRANCH   4  24
TORSDOF 12
ENDMDL
MODEL 2
REMARK VINA RESULT:    -7.368      1.655      2.559
REMARK INTER + INTRA:         -13.171
REMARK INTER:                 -12.485
REMARK INTRA:                  -0.686
REMARK UNBOUND:                -0.849
REMARK  Name = 
REMARK  13 active torsions:
REMARK  status: ('A' for Active; 'I' for Inactive)
REMARK    1  A    between atoms: C_1  and  C_2
REMARK    2  A    between atoms: C_2  and  N_3
REMARK    3  A    between atoms: N_3  and  C_4
REMARK    4  A    between atoms: N_3  and  C_25
REMARK    5  A    between atoms: C_4  and  C_5
REMARK    6  A    between atoms: C_8  and  C_9
REMARK    7  A    between atoms: C_9  and  N_10
REMARK    8  A    between atoms: C_11  and  C_13
REMARK    9  A    between atoms: C_25  and  C_26
REMARK   10  A    between atoms: N_29  and  C_30
REMARK   11  A    between atoms: C_30  and  C_31
REMARK   12  A    between atoms: C_31  and  C_32
REMARK   13  A    between atoms: C_32  and  N_33
REMARK                            x       y       z     vdW  Elec       q    Type
REMARK                         _______ _______ _______ _____ _____    ______ ____
ROOT
ATOM      1  C   UNL     1      47.279   5.558  13.529  0.00  0.00    +0.000 A 
ATOM      2  C   UNL     1      46.894   4.452  14.294  0.00  0.00    +0.000 A 
ATOM      3  C   UNL     1      47.271   4.371  15.629  0.00  0.00    +0.000 A 
ATOM      4  C   UNL     1      48.081   5.373  16.156  0.00  0.00    +0.000 A 
ATOM      5  N   UNL     1      48.541   6.408  15.414  0.00  0.00    +0.000 NA
ATOM      6  C   UNL     1      48.128   6.478  14.128  0.00  0.00    +0.000 A 
ENDROOT
BRANCH   1   7
ATOM      7  C   UNL     1      46.686   5.817  12.164  0.00  0.00    +0.000 C 
BRANCH   7   8
ATOM      8  N   UNL     1      45.333   6.427  12.170  0.00  0.00    +0.000 NA
BRANCH   8  10
ATOM      9  C   UNL     1      44.595   8.664  11.232  0.00  0.00    +0.000 C 
ATOM     10  C   UNL     1      45.319   7.891  12.327  0.00  0.00    +0.000 C 
ENDBRANCH   8  10
BRANCH   8  11
ATOM     11  C   UNL     1      44.473   5.788  13.191  0.00  0.00    +0.000 C 
BRANCH  11  12
ATOM     12  C   UNL     1      43.195   5.105  12.657  0.00  0.00    +0.000 C 
ATOM     13  C   UNL     1      43.305   3.584  12.787  0.00  0.00    +0.000 C 
ATOM     14  C   UNL     1      44.303   2.991  11.797  0.00  0.00    +0.000 C 
ATOM     15  N   UNL     1      43.992   3.378  10.413  0.00  0.00    +0.000 NA
ATOM     16  C   UNL     1      43.921   4.839  10.244  0.00  0.00    +0.000 C 
ATOM     17  C   UNL     1      42.904   5.467  11.199  0.00  0.00    +0.000 C 
BRANCH  15  18
ATOM     18  C   UNL     1      44.954   2.800   9.462  0.00  0.00    +0.000 C 
BRANCH  18  19
ATOM     19  C   UNL     1      45.449   3.791   8.399  0.00  0.00    +0.000 C 
BRANCH  19  20
ATOM     20  C   UNL     1      46.386   3.134   7.387  0.00  0.00    +0.000 C 
BRANCH  20  21
ATOM     21  N   UNL     1      46.851   4.123   6.416  0.00  0.00    +0.000 NA
ATOM     22  H   UNL     1      47.533   4.740   6.851  0.00  0.00    +0.000 HD
ATOM     23  H   UNL     1      46.065   4.707   6.136  0.00  0.00    +0.000 HD
ENDBRANCH  20  21
ENDBRANCH  19  20
ENDBRANCH  18  19
ENDBRANCH  15  18
ENDBRANCH  11  12
ENDBRANCH   8  11
ENDBRANCH   7   8
ENDBRANCH   1   7
BRANCH   4  24
ATOM     24  C   UNL     1      48.433   5.378  17.620  0.00  0.00    +0.000 C 
BRANCH  24  25
ATOM     25  N   UNL     1      49.606   4.576  17.905  0.00  0.00    +0.000 N 
ATOM     26  C   UNL     1      50.870   5.103  17.912  0.00  0.00    +0.000 C 
ATOM     27  O   UNL     1      51.080   6.286  17.655  0.00  0.00    +0.000 OA
ATOM     28  H   UNL     1      49.474   3.569  17.874  0.00  0.00    +0.000 HD
BRANCH  26  29
ATOM     29  C   UNL     1      51.957   4.206  18.323  0.00  0.00    +0.000 A 
ATOM     30  C   UNL     1      52.993   4.703  19.106  0.00  0.00    +0.000 A 
ATOM     31  S   UNL     1      54.151   3.530  19.540  0.00  0.00    +0.000 S 
ATOM     32  C   UNL     1      53.339   2.324  18.658  0.00  0.00    +0.000 A 
ATOM     33  N   UNL     1      53.832   1.057  18.590  0.00  0.00    +0.000 NA
ATOM     34  C   UNL     1      53.135   0.252  17.862  0.00  0.00    +0.000 A 
ATOM     35  N   UNL     1      51.982   0.595  17.205  0.00  0.00    +0.000 N 
ATOM     36  C   UNL     1      51.418   1.847  17.287  0.00  0.00    +0.000 A 
ATOM     37  O   UNL     1      50.342   2.096  16.756  0.00  0.00    +0.000 OA
ATOM     38  C   UNL     1      52.183   2.803  18.065  0.00  0.00    +0.000 A 
ATOM     39  H   UNL     1      51.470  -0.087  16.666  0.00  0.00    +0.000 HD
ENDBRANCH  26  29
ENDBRANCH  24  25
ENDBRANCH   4  24
TORSDOF 12
ENDMDL
MODEL 3
REMARK VINA RESULT:    -7.058      1.493      2.442
REMARK INTER + INTRA:         -12.652
REMARK INTER:                 -11.263
REMARK INTRA:                  -1.389
REMARK UNBOUND:                -0.849
REMARK  Name = 
REMARK  13 active torsions:
REMARK  status: ('A' for Active; 'I' for Inactive)
REMARK    1  A    between atoms: C_1  and  C_2
REMARK    2  A    between atoms: C_2  and  N_3
REMARK    3  A    between atoms: N_3  and  C_4
REMARK    4  A    between atoms: N_3  and  C_25
REMARK    5  A    between atoms: C_4  and  C_5
REMARK    6  A    between atoms: C_8  and  C_9
REMARK    7  A    between atoms: C_9  and  N_10
REMARK    8  A    between atoms: C_11  and  C_13
REMARK    9  A    between atoms: C_25  and  C_26
REMARK   10  A    between atoms: N_29  and  C_30
REMARK   11  A    between atoms: C_30  and  C_31
REMARK   12  A    between atoms: C_31  and  C_32
REMARK   13  A    between atoms: C_32  and  N_33
REMARK                            x       y       z     vdW  Elec       q    Type
REMARK                         _______ _______ _______ _____ _____    ______ ____
ROOT
ATOM      1  C   UNL     1      47.107   4.999  14.672  0.00  0.00    +0.000 A 
ATOM      2  C   UNL     1      47.146   4.185  15.809  0.00  0.00    +0.000 A 
ATOM      3  C   UNL     1      48.030   4.480  16.840  0.00  0.00    +0.000 A 
ATOM      4  C   UNL     1      48.904   5.551  16.683  0.00  0.00    +0.000 A 
ATOM      5  N   UNL     1      48.950   6.300  15.556  0.00  0.00    +0.000 NA
ATOM      6  C   UNL     1      48.053   6.011  14.585  0.00  0.00    +0.000 A 
ENDROOT
BRANCH   1   7
ATOM      7  C   UNL     1      46.000   4.876  13.652  0.00  0.00    +0.000 C 
BRANCH   7   8
ATOM      8  N   UNL     1      45.962   5.951  12.629  0.00  0.00    +0.000 NA
BRANCH   8  10
ATOM      9  C   UNL     1      45.124   8.293  12.142  0.00  0.00    +0.000 C 
ATOM     10  C   UNL     1      44.900   6.951  12.827  0.00  0.00    +0.000 C 
ENDBRANCH   8  10
BRANCH   8  11
ATOM     11  C   UNL     1      45.888   5.376  11.268  0.00  0.00    +0.000 C 
BRANCH  11  12
ATOM     12  C   UNL     1      44.499   4.856  10.836  0.00  0.00    +0.000 C 
ATOM     13  C   UNL     1      44.332   3.385  11.226  0.00  0.00    +0.000 C 
ATOM     14  C   UNL     1      45.192   2.460  10.372  0.00  0.00    +0.000 C 
ATOM     15  N   UNL     1      44.937   2.653   8.937  0.00  0.00    +0.000 NA
ATOM     16  C   UNL     1      45.132   4.051   8.518  0.00  0.00    +0.000 C 
ATOM     17  C   UNL     1      44.260   5.008   9.332  0.00  0.00    +0.000 C 
BRANCH  15  18
ATOM     18  C   UNL     1      45.765   1.754   8.116  0.00  0.00    +0.000 C 
BRANCH  18  19
ATOM     19  C   UNL     1      46.611   2.479   7.061  0.00  0.00    +0.000 C 
BRANCH  19  20
ATOM     20  C   UNL     1      48.009   1.878   6.925  0.00  0.00    +0.000 C 
BRANCH  20  21
ATOM     21  N   UNL     1      48.419   1.867   5.522  0.00  0.00    +0.000 NA
ATOM     22  H   UNL     1      49.168   1.191   5.388  0.00  0.00    +0.000 HD
ATOM     23  H   UNL     1      48.803   2.780   5.283  0.00  0.00    +0.000 HD
ENDBRANCH  20  21
ENDBRANCH  19  20
ENDBRANCH  18  19
ENDBRANCH  15  18
ENDBRANCH  11  12
ENDBRANCH   8  11
ENDBRANCH   7   8
ENDBRANCH   1   7
BRANCH   4  24
ATOM     24  C   UNL     1      49.812   5.967  17.811  0.00  0.00    +0.000 C 
BRANCH  24  25
ATOM     25  N   UNL     1      50.803   4.956  18.118  0.00  0.00    +0.000 N 
ATOM     26  C   UNL     1      52.047   4.953  17.548  0.00  0.00    +0.000 C 
ATOM     27  O   UNL     1      52.385   5.799  16.723  0.00  0.00    +0.000 OA
ATOM     28  H   UNL     1      50.460   4.127  18.598  0.00  0.00    +0.000 HD
BRANCH  26  29
ATOM     29  C   UNL     1      52.993   3.937  18.029  0.00  0.00    +0.000 A 
ATOM     30  C   UNL     1      54.217   4.336  18.552  0.00  0.00    +0.000 A 
ATOM     31  S   UNL     1      55.180   3.047  19.112  0.00  0.00    +0.000 S 
ATOM     32  C   UNL     1      54.019   1.900  18.631  0.00  0.00    +0.000 A 
ATOM     33  N   UNL     1      54.240   0.568  18.803  0.00  0.00    +0.000 NA
ATOM     34  C   UNL     1      53.293  -0.190  18.365  0.00  0.00    +0.000 A 
ATOM     35  N   UNL     1      52.139   0.262  17.783  0.00  0.00    +0.000 N 
ATOM     36  C   UNL     1      51.848   1.599  17.636  0.00  0.00    +0.000 A 
ATOM     37  O   UNL     1      50.769   1.971  17.188  0.00  0.00    +0.000 OA
ATOM     38  C   UNL     1      52.898   2.496  18.079  0.00  0.00    +0.000 A 
ATOM     39  H   UNL     1      51.424  -0.382  17.478  0.00  0.00    +0.000 HD
ENDBRANCH  26  29
ENDBRANCH  24  25
ENDBRANCH   4  24
TORSDOF 12
ENDMDL
MODEL 4
REMARK VINA RESULT:    -6.945      4.044      9.171
REMARK INTER + INTRA:         -12.463
REMARK INTER:                 -10.165
REMARK INTRA:                  -2.298
REMARK UNBOUND:                -0.849
REMARK  Name = 
REMARK  13 active torsions:
REMARK  status: ('A' for Active; 'I' for Inactive)
REMARK    1  A    between atoms: C_1  and  C_2
REMARK    2  A    between atoms: C_2  and  N_3
REMARK    3  A    between atoms: N_3  and  C_4
REMARK    4  A    between atoms: N_3  and  C_25
REMARK    5  A    between atoms: C_4  and  C_5
REMARK    6  A    between atoms: C_8  and  C_9
REMARK    7  A    between atoms: C_9  and  N_10
REMARK    8  A    between atoms: C_11  and  C_13
REMARK    9  A    between atoms: C_25  and  C_26
REMARK   10  A    between atoms: N_29  and  C_30
REMARK   11  A    between atoms: C_30  and  C_31
REMARK   12  A    between atoms: C_31  and  C_32
REMARK   13  A    between atoms: C_32  and  N_33
REMARK                            x       y       z     vdW  Elec       q    Type
REMARK                         _______ _______ _______ _____ _____    ______ ____
ROOT
ATOM      1  C   UNL     1      50.022   7.975  15.525  0.00  0.00    +0.000 A 
ATOM      2  C   UNL     1      48.663   8.302  15.594  0.00  0.00    +0.000 A 
ATOM      3  C   UNL     1      47.896   8.317  14.435  0.00  0.00    +0.000 A 
ATOM      4  C   UNL     1      48.522   8.064  13.218  0.00  0.00    +0.000 A 
ATOM      5  N   UNL     1      49.852   7.834  13.112  0.00  0.00    +0.000 NA
ATOM      6  C   UNL     1      50.565   7.791  14.261  0.00  0.00    +0.000 A 
ENDROOT
BRANCH   1   7
ATOM      7  C   UNL     1      50.829   7.696  16.770  0.00  0.00    +0.000 C 
BRANCH   7   8
ATOM      8  N   UNL     1      50.134   7.985  18.049  0.00  0.00    +0.000 NA
BRANCH   8  10
ATOM      9  C   UNL     1      49.337  10.260  18.835  0.00  0.00    +0.000 C 
ATOM     10  C   UNL     1      50.487   9.276  18.662  0.00  0.00    +0.000 C 
ENDBRANCH   8  10
BRANCH   8  11
ATOM     11  C   UNL     1      50.332   6.881  19.015  0.00  0.00    +0.000 C 
BRANCH  11  12
ATOM     12  C   UNL     1      49.114   6.544  19.904  0.00  0.00    +0.000 C 
ATOM     13  C   UNL     1      49.122   5.061  20.283  0.00  0.00    +0.000 C 
ATOM     14  C   UNL     1      48.787   4.161  19.098  0.00  0.00    +0.000 C 
ATOM     15  N   UNL     1      47.510   4.536  18.474  0.00  0.00    +0.000 NA
ATOM     16  C   UNL     1      47.485   5.947  18.057  0.00  0.00    +0.000 C 
ATOM     17  C   UNL     1      47.784   6.885  19.228  0.00  0.00    +0.000 C 
BRANCH  15  18
ATOM     18  C   UNL     1      47.189   3.661  17.335  0.00  0.00    +0.000 C 
BRANCH  18  19
ATOM     19  C   UNL     1      47.984   3.982  16.062  0.00  0.00    +0.000 C 
BRANCH  19  20
ATOM     20  C   UNL     1      47.076   4.331  14.884  0.00  0.00    +0.000 C 
BRANCH  20  21
ATOM     21  N   UNL     1      47.131   3.275  13.875  0.00  0.00    +0.000 NA
ATOM     22  H   UNL     1      47.085   2.364  14.326  0.00  0.00    +0.000 HD
ATOM     23  H   UNL     1      48.030   3.320  13.398  0.00  0.00    +0.000 HD
ENDBRANCH  20  21
ENDBRANCH  19  20
ENDBRANCH  18  19
ENDBRANCH  15  18
ENDBRANCH  11  12
ENDBRANCH   8  11
ENDBRANCH   7   8
ENDBRANCH   1   7
BRANCH   4  24
ATOM     24  C   UNL     1      47.715   7.973  11.949  0.00  0.00    +0.000 C 
BRANCH  24  25
ATOM     25  N   UNL     1      46.950   6.745  11.873  0.00  0.00    +0.000 N 
ATOM     26  C   UNL     1      45.583   6.736  11.799  0.00  0.00    +0.000 C 
ATOM     27  O   UNL     1      44.927   7.774  11.815  0.00  0.00    +0.000 OA
ATOM     28  H   UNL     1      47.453   5.892  12.104  0.00  0.00    +0.000 HD
BRANCH  26  29
ATOM     29  C   UNL     1      44.940   5.428  11.615  0.00  0.00    +0.000 A 
ATOM     30  C   UNL     1      44.188   4.886  12.650  0.00  0.00    +0.000 A 
ATOM     31  S   UNL     1      43.467   3.390  12.267  0.00  0.00    +0.000 S 
ATOM     32  C   UNL     1      44.173   3.385  10.719  0.00  0.00    +0.000 A 
ATOM     33  N   UNL     1      43.975   2.345   9.864  0.00  0.00    +0.000 NA
ATOM     34  C   UNL     1      44.595   2.455   8.738  0.00  0.00    +0.000 A 
ATOM     35  N   UNL     1      45.383   3.518   8.383  0.00  0.00    +0.000 N 
ATOM     36  C   UNL     1      45.569   4.616   9.191  0.00  0.00    +0.000 A 
ATOM     37  O   UNL     1      46.211   5.586   8.808  0.00  0.00    +0.000 OA
ATOM     38  C   UNL     1      44.924   4.525  10.487  0.00  0.00    +0.000 A 
ATOM     39  H   UNL     1      45.825   3.556   7.476  0.00  0.00    +0.000 HD
ENDBRANCH  26  29
ENDBRANCH  24  25
ENDBRANCH   4  24
TORSDOF 12
ENDMDL
MODEL 5
REMARK VINA RESULT:    -6.907      3.624      9.383
REMARK INTER + INTRA:         -12.400
REMARK INTER:                  -9.852
REMARK INTRA:                  -2.548
REMARK UNBOUND:                -0.849
REMARK  Name = 
REMARK  13 active torsions:
REMARK  status: ('A' for Active; 'I' for Inactive)
REMARK    1  A    between atoms: C_1  and  C_2
REMARK    2  A    between atoms: C_2  and  N_3
REMARK    3  A    between atoms: N_3  and  C_4
REMARK    4  A    between atoms: N_3  and  C_25
REMARK    5  A    between atoms: C_4  and  C_5
REMARK    6  A    between atoms: C_8  and  C_9
REMARK    7  A    between atoms: C_9  and  N_10
REMARK    8  A    between atoms: C_11  and  C_13
REMARK    9  A    between atoms: C_25  and  C_26
REMARK   10  A    between atoms: N_29  and  C_30
REMARK   11  A    between atoms: C_30  and  C_31
REMARK   12  A    between atoms: C_31  and  C_32
REMARK   13  A    between atoms: C_32  and  N_33
REMARK                            x       y       z     vdW  Elec       q    Type
REMARK                         _______ _______ _______ _____ _____    ______ ____
ROOT
ATOM      1  C   UNL     1      51.294   3.609  18.309  0.00  0.00    +0.000 A 
ATOM      2  C   UNL     1      50.916   2.606  17.410  0.00  0.00    +0.000 A 
ATOM      3  C   UNL     1      49.590   2.506  17.004  0.00  0.00    +0.000 A 
ATOM      4  C   UNL     1      48.656   3.377  17.556  0.00  0.00    +0.000 A 
ATOM      5  N   UNL     1      48.979   4.298  18.494  0.00  0.00    +0.000 NA
ATOM      6  C   UNL     1      50.282   4.395  18.843  0.00  0.00    +0.000 A 
ENDROOT
BRANCH   1   7
ATOM      7  C   UNL     1      52.747   3.919  18.577  0.00  0.00    +0.000 C 
BRANCH   7   8
ATOM      8  N   UNL     1      53.389   4.832  17.600  0.00  0.00    +0.000 NA
BRANCH   8  10
ATOM      9  C   UNL     1      55.749   4.213  18.284  0.00  0.00    +0.000 C 
ATOM     10  C   UNL     1      54.735   4.424  17.168  0.00  0.00    +0.000 C 
ENDBRANCH   8  10
BRANCH   8  11
ATOM     11  C   UNL     1      53.406   6.220  18.112  0.00  0.00    +0.000 C 
BRANCH  11  12
ATOM     12  C   UNL     1      53.262   7.329  17.046  0.00  0.00    +0.000 C 
ATOM     13  C   UNL     1      52.602   8.572  17.650  0.00  0.00    +0.000 C 
ATOM     14  C   UNL     1      51.122   8.353  17.946  0.00  0.00    +0.000 C 
ATOM     15  N   UNL     1      50.391   7.899  16.754  0.00  0.00    +0.000 NA
ATOM     16  C   UNL     1      50.973   6.679  16.172  0.00  0.00    +0.000 C 
ATOM     17  C   UNL     1      52.452   6.870  15.830  0.00  0.00    +0.000 C 
BRANCH  15  18
ATOM     18  C   UNL     1      48.962   7.696  17.043  0.00  0.00    +0.000 C 
BRANCH  18  19
ATOM     19  C   UNL     1      48.400   8.652  18.104  0.00  0.00    +0.000 C 
BRANCH  19  20
ATOM     20  C   UNL     1      47.328   7.992  18.969  0.00  0.00    +0.000 C 
BRANCH  20  21
ATOM     21  N   UNL     1      47.103   6.616  18.531  0.00  0.00    +0.000 NA
ATOM     22  H   UNL     1      46.147   6.339  18.740  0.00  0.00    +0.000 HD
ATOM     23  H   UNL     1      47.710   5.996  19.066  0.00  0.00    +0.000 HD
ENDBRANCH  20  21
ENDBRANCH  19  20
ENDBRANCH  18  19
ENDBRANCH  15  18
ENDBRANCH  11  12
ENDBRANCH   8  11
ENDBRANCH   7   8
ENDBRANCH   1   7
BRANCH   4  24
ATOM     24  C   UNL     1      47.229   3.370  17.074  0.00  0.00    +0.000 C 
BRANCH  24  25
ATOM     25  N   UNL     1      46.978   4.403  16.089  0.00  0.00    +0.000 N 
ATOM     26  C   UNL     1      47.060   4.166  14.743  0.00  0.00    +0.000 C 
ATOM     27  O   UNL     1      47.374   3.065  14.296  0.00  0.00    +0.000 OA
ATOM     28  H   UNL     1      46.962   5.357  16.438  0.00  0.00    +0.000 HD
BRANCH  26  29
ATOM     29  C   UNL     1      46.675   5.269  13.853  0.00  0.00    +0.000 A 
ATOM     30  C   UNL     1      47.546   6.337  13.672  0.00  0.00    +0.000 A 
ATOM     31  S   UNL     1      46.978   7.511  12.576  0.00  0.00    +0.000 S 
ATOM     32  C   UNL     1      45.523   6.663  12.338  0.00  0.00    +0.000 A 
ATOM     33  N   UNL     1      44.555   7.152  11.515  0.00  0.00    +0.000 NA
ATOM     34  C   UNL     1      43.491   6.425  11.452  0.00  0.00    +0.000 A 
ATOM     35  N   UNL     1      43.311   5.246  12.127  0.00  0.00    +0.000 N 
ATOM     36  C   UNL     1      44.280   4.687  12.927  0.00  0.00    +0.000 A 
ATOM     37  O   UNL     1      44.119   3.589  13.449  0.00  0.00    +0.000 OA
ATOM     38  C   UNL     1      45.484   5.484  13.063  0.00  0.00    +0.000 A 
ATOM     39  H   UNL     1      42.462   4.712  12.020  0.00  0.00    +0.000 HD
ENDBRANCH  26  29
ENDBRANCH  24  25
ENDBRANCH   4  24
TORSDOF 12
ENDMDL
MODEL 6
REMARK VINA RESULT:    -6.736      2.590      4.754
REMARK INTER + INTRA:         -12.114
REMARK INTER:                  -9.813
REMARK INTRA:                  -2.301
REMARK UNBOUND:                -0.849
REMARK  Name = 
REMARK  13 active torsions:
REMARK  status: ('A' for Active; 'I' for Inactive)
REMARK    1  A    between atoms: C_1  and  C_2
REMARK    2  A    between atoms: C_2  and  N_3
REMARK    3  A    between atoms: N_3  and  C_4
REMARK    4  A    between atoms: N_3  and  C_25
REMARK    5  A    between atoms: C_4  and  C_5
REMARK    6  A    between atoms: C_8  and  C_9
REMARK    7  A    between atoms: C_9  and  N_10
REMARK    8  A    between atoms: C_11  and  C_13
REMARK    9  A    between atoms: C_25  and  C_26
REMARK   10  A    between atoms: N_29  and  C_30
REMARK   11  A    between atoms: C_30  and  C_31
REMARK   12  A    between atoms: C_31  and  C_32
REMARK   13  A    between atoms: C_32  and  N_33
REMARK                            x       y       z     vdW  Elec       q    Type
REMARK                         _______ _______ _______ _____ _____    ______ ____
ROOT
ATOM      1  C   UNL     1      47.690   9.896  12.528  0.00  0.00    +0.000 A 
ATOM      2  C   UNL     1      48.640   9.500  11.581  0.00  0.00    +0.000 A 
ATOM      3  C   UNL     1      49.890   9.056  11.999  0.00  0.00    +0.000 A 
ATOM      4  C   UNL     1      50.184   9.077  13.358  0.00  0.00    +0.000 A 
ATOM      5  N   UNL     1      49.315   9.540  14.289  0.00  0.00    +0.000 NA
ATOM      6  C   UNL     1      48.096   9.931  13.854  0.00  0.00    +0.000 A 
ENDROOT
BRANCH   1   7
ATOM      7  C   UNL     1      46.249  10.136  12.145  0.00  0.00    +0.000 C 
BRANCH   7   8
ATOM      8  N   UNL     1      45.513   8.936  11.675  0.00  0.00    +0.000 NA
BRANCH   8  10
ATOM      9  C   UNL     1      44.157  10.551  10.268  0.00  0.00    +0.000 C 
ATOM     10  C   UNL     1      44.232   9.222  11.009  0.00  0.00    +0.000 C 
ENDBRANCH   8  10
BRANCH   8  11
ATOM     11  C   UNL     1      45.319   7.973  12.781  0.00  0.00    +0.000 C 
BRANCH  11  12
ATOM     12  C   UNL     1      46.286   6.769  12.797  0.00  0.00    +0.000 C 
ATOM     13  C   UNL     1      46.799   6.474  11.385  0.00  0.00    +0.000 C 
ATOM     14  C   UNL     1      45.717   5.878  10.491  0.00  0.00    +0.000 C 
ATOM     15  N   UNL     1      45.115   4.678  11.092  0.00  0.00    +0.000 NA
ATOM     16  C   UNL     1      44.572   4.938  12.435  0.00  0.00    +0.000 C 
ATOM     17  C   UNL     1      45.639   5.507  13.372  0.00  0.00    +0.000 C 
BRANCH  15  18
ATOM     18  C   UNL     1      44.076   4.103  10.223  0.00  0.00    +0.000 C 
BRANCH  18  19
ATOM     19  C   UNL     1      44.469   4.043   8.740  0.00  0.00    +0.000 C 
BRANCH  19  20
ATOM     20  C   UNL     1      45.277   2.790   8.406  0.00  0.00    +0.000 C 
BRANCH  20  21
ATOM     21  N   UNL     1      45.213   1.838   9.513  0.00  0.00    +0.000 NA
ATOM     22  H   UNL     1      44.259   1.779   9.862  0.00  0.00    +0.000 HD
ATOM     23  H   UNL     1      45.784   2.186  10.282  0.00  0.00    +0.000 HD
ENDBRANCH  20  21
ENDBRANCH  19  20
ENDBRANCH  18  19
ENDBRANCH  15  18
ENDBRANCH  11  12
ENDBRANCH   8  11
ENDBRANCH   7   8
ENDBRANCH   1   7
BRANCH   4  24
ATOM     24  C   UNL     1      51.486   8.516  13.866  0.00  0.00    +0.000 C 
BRANCH  24  25
ATOM     25  N   UNL     1      51.292   7.338  14.687  0.00  0.00    +0.000 N 
ATOM     26  C   UNL     1      51.507   7.343  16.039  0.00  0.00    +0.000 C 
ATOM     27  O   UNL     1      51.899   8.347  16.629  0.00  0.00    +0.000 OA
ATOM     28  H   UNL     1      51.210   6.456  14.187  0.00  0.00    +0.000 HD
BRANCH  26  29
ATOM     29  C   UNL     1      51.166   6.114  16.767  0.00  0.00    +0.000 A 
ATOM     30  C   UNL     1      52.158   5.438  17.468  0.00  0.00    +0.000 A 
ATOM     31  S   UNL     1      51.598   4.060  18.298  0.00  0.00    +0.000 S 
ATOM     32  C   UNL     1      50.017   4.284  17.713  0.00  0.00    +0.000 A 
ATOM     33  N   UNL     1      49.023   3.411  18.033  0.00  0.00    +0.000 NA
ATOM     34  C   UNL     1      47.882   3.682  17.496  0.00  0.00    +0.000 A 
ATOM     35  N   UNL     1      47.640   4.754  16.678  0.00  0.00    +0.000 N 
ATOM     36  C   UNL     1      48.599   5.692  16.370  0.00  0.00    +0.000 A 
ATOM     37  O   UNL     1      48.327   6.684  15.705  0.00  0.00    +0.000 OA
ATOM     38  C   UNL     1      49.912   5.414  16.919  0.00  0.00    +0.000 A 
ATOM     39  H   UNL     1      46.718   4.924  16.304  0.00  0.00    +0.000 HD
ENDBRANCH  26  29
ENDBRANCH  24  25
ENDBRANCH   4  24
TORSDOF 12
ENDMDL
MODEL 7
REMARK VINA RESULT:    -6.655      4.985      7.142
REMARK INTER + INTRA:         -11.978
REMARK INTER:                 -10.880
REMARK INTRA:                  -1.097
REMARK UNBOUND:                -0.849
REMARK  Name = 
REMARK  13 active torsions:
REMARK  status: ('A' for Active; 'I' for Inactive)
REMARK    1  A    between atoms: C_1  and  C_2
REMARK    2  A    between atoms: C_2  and  N_3
REMARK    3  A    between atoms: N_3  and  C_4
REMARK    4  A    between atoms: N_3  and  C_25
REMARK    5  A    between atoms: C_4  and  C_5
REMARK    6  A    between atoms: C_8  and  C_9
REMARK    7  A    between atoms: C_9  and  N_10
REMARK    8  A    between atoms: C_11  and  C_13
REMARK    9  A    between atoms: C_25  and  C_26
REMARK   10  A    between atoms: N_29  and  C_30
REMARK   11  A    between atoms: C_30  and  C_31
REMARK   12  A    between atoms: C_31  and  C_32
REMARK   13  A    between atoms: C_32  and  N_33
REMARK                            x       y       z     vdW  Elec       q    Type
REMARK                         _______ _______ _______ _____ _____    ______ ____
ROOT
ATOM      1  C   UNL     1      47.507   6.501  13.183  0.00  0.00    +0.000 A 
ATOM      2  C   UNL     1      48.497   6.755  14.139  0.00  0.00    +0.000 A 
ATOM      3  C   UNL     1      49.645   7.451  13.776  0.00  0.00    +0.000 A 
ATOM      4  C   UNL     1      49.806   7.824  12.446  0.00  0.00    +0.000 A 
ATOM      5  N   UNL     1      48.905   7.512  11.483  0.00  0.00    +0.000 NA
ATOM      6  C   UNL     1      47.783   6.866  11.873  0.00  0.00    +0.000 A 
ENDROOT
BRANCH   1   7
ATOM      7  C   UNL     1      46.145   5.984  13.580  0.00  0.00    +0.000 C 
BRANCH   7   8
ATOM      8  N   UNL     1      46.017   4.506  13.615  0.00  0.00    +0.000 NA
BRANCH   8  10
ATOM      9  C   UNL     1      47.073   4.065  15.877  0.00  0.00    +0.000 C 
ATOM     10  C   UNL     1      47.072   3.815  14.375  0.00  0.00    +0.000 C 
ENDBRANCH   8  10
BRANCH   8  11
ATOM     11  C   UNL     1      45.918   3.955  12.245  0.00  0.00    +0.000 C 
BRANCH  11  12
ATOM     12  C   UNL     1      44.613   4.280  11.486  0.00  0.00    +0.000 C 
ATOM     13  C   UNL     1      44.047   3.019  10.827  0.00  0.00    +0.000 C 
ATOM     14  C   UNL     1      44.888   2.562   9.639  0.00  0.00    +0.000 C 
ATOM     15  N   UNL     1      45.061   3.637   8.651  0.00  0.00    +0.000 NA
ATOM     16  C   UNL     1      45.645   4.852   9.243  0.00  0.00    +0.000 C 
ATOM     17  C   UNL     1      44.809   5.360  10.420  0.00  0.00    +0.000 C 
BRANCH  15  18
ATOM     18  C   UNL     1      45.868   3.190   7.504  0.00  0.00    +0.000 C 
BRANCH  18  19
ATOM     19  C   UNL     1      46.779   1.994   7.814  0.00  0.00    +0.000 C 
BRANCH  19  20
ATOM     20  C   UNL     1      47.202   1.245   6.551  0.00  0.00    +0.000 C 
BRANCH  20  21
ATOM     21  N   UNL     1      48.423   1.832   6.002  0.00  0.00    +0.000 NA
ATOM     22  H   UNL     1      49.094   1.993   6.749  0.00  0.00    +0.000 HD
ATOM     23  H   UNL     1      48.202   2.745   5.607  0.00  0.00    +0.000 HD
ENDBRANCH  20  21
ENDBRANCH  19  20
ENDBRANCH  18  19
ENDBRANCH  15  18
ENDBRANCH  11  12
ENDBRANCH   8  11
ENDBRANCH   7   8
ENDBRANCH   1   7
BRANCH   4  24
ATOM     24  C   UNL     1      50.985   8.663  12.026  0.00  0.00    +0.000 C 
BRANCH  24  25
ATOM     25  N   UNL     1      51.363   8.424  10.647  0.00  0.00    +0.000 N 
ATOM     26  C   UNL     1      52.664   8.486  10.224  0.00  0.00    +0.000 C 
ATOM     27  O   UNL     1      53.582   8.771  10.989  0.00  0.00    +0.000 OA
ATOM     28  H   UNL     1      50.606   8.432   9.970  0.00  0.00    +0.000 HD
BRANCH  26  29
ATOM     29  C   UNL     1      52.922   8.115   8.826  0.00  0.00    +0.000 A 
ATOM     30  C   UNL     1      52.795   9.075   7.830  0.00  0.00    +0.000 A 
ATOM     31  S   UNL     1      53.174   8.504   6.270  0.00  0.00    +0.000 S 
ATOM     32  C   UNL     1      53.475   6.937   6.859  0.00  0.00    +0.000 A 
ATOM     33  N   UNL     1      53.826   5.929   6.015  0.00  0.00    +0.000 NA
ATOM     34  C   UNL     1      53.992   4.786   6.590  0.00  0.00    +0.000 A 
ATOM     35  N   UNL     1      53.853   4.561   7.934  0.00  0.00    +0.000 N 
ATOM     36  C   UNL     1      53.553   5.559   8.832  0.00  0.00    +0.000 A 
ATOM     37  O   UNL     1      53.519   5.342  10.038  0.00  0.00    +0.000 OA
ATOM     38  C   UNL     1      53.318   6.859   8.233  0.00  0.00    +0.000 A 
ATOM     39  H   UNL     1      54.018   3.646   8.327  0.00  0.00    +0.000 HD
ENDBRANCH  26  29
ENDBRANCH  24  25
ENDBRANCH   4  24
TORSDOF 12
ENDMDL
MODEL 8
REMARK VINA RESULT:    -6.576      2.707      3.813
REMARK INTER + INTRA:         -11.847
REMARK INTER:                  -9.877
REMARK INTRA:                  -1.970
REMARK UNBOUND:                -0.849
REMARK  Name = 
REMARK  13 active torsions:
REMARK  status: ('A' for Active; 'I' for Inactive)
REMARK    1  A    between atoms: C_1  and  C_2
REMARK    2  A    between atoms: C_2  and  N_3
REMARK    3  A    between atoms: N_3  and  C_4
REMARK    4  A    between atoms: N_3  and  C_25
REMARK    5  A    between atoms: C_4  and  C_5
REMARK    6  A    between atoms: C_8  and  C_9
REMARK    7  A    between atoms: C_9  and  N_10
REMARK    8  A    between atoms: C_11  and  C_13
REMARK    9  A    between atoms: C_25  and  C_26
REMARK   10  A    between atoms: N_29  and  C_30
REMARK   11  A    between atoms: C_30  and  C_31
REMARK   12  A    between atoms: C_31  and  C_32
REMARK   13  A    between atoms: C_32  and  N_33
REMARK                            x       y       z     vdW  Elec       q    Type
REMARK                         _______ _______ _______ _____ _____    ______ ____
ROOT
ATOM      1  C   UNL     1      48.619   7.302  16.621  0.00  0.00    +0.000 A 
ATOM      2  C   UNL     1      48.427   7.073  17.988  0.00  0.00    +0.000 A 
ATOM      3  C   UNL     1      48.398   5.771  18.474  0.00  0.00    +0.000 A 
ATOM      4  C   UNL     1      48.498   4.719  17.568  0.00  0.00    +0.000 A 
ATOM      5  N   UNL     1      48.594   4.911  16.231  0.00  0.00    +0.000 NA
ATOM      6  C   UNL     1      48.656   6.189  15.793  0.00  0.00    +0.000 A 
ENDROOT
BRANCH   1   7
ATOM      7  C   UNL     1      48.914   8.683  16.088  0.00  0.00    +0.000 C 
BRANCH   7   8
ATOM      8  N   UNL     1      48.991   8.784  14.609  0.00  0.00    +0.000 NA
BRANCH   8  10
ATOM      9  C   UNL     1      51.114   9.272  13.313  0.00  0.00    +0.000 C 
ATOM     10  C   UNL     1      49.930   9.802  14.111  0.00  0.00    +0.000 C 
ENDBRANCH   8  10
BRANCH   8  11
ATOM     11  C   UNL     1      47.646   8.989  14.027  0.00  0.00    +0.000 C 
BRANCH  11  12
ATOM     12  C   UNL     1      47.533   8.751  12.505  0.00  0.00    +0.000 C 
ATOM     13  C   UNL     1      46.072   8.837  12.056  0.00  0.00    +0.000 C 
ATOM     14  C   UNL     1      45.251   7.642  12.529  0.00  0.00    +0.000 C 
ATOM     15  N   UNL     1      45.855   6.368  12.110  0.00  0.00    +0.000 NA
ATOM     16  C   UNL     1      47.249   6.234  12.564  0.00  0.00    +0.000 C 
ATOM     17  C   UNL     1      48.112   7.400  12.079  0.00  0.00    +0.000 C 
BRANCH  15  18
ATOM     18  C   UNL     1      45.057   5.218  12.564  0.00  0.00    +0.000 C 
BRANCH  18  19
ATOM     19  C   UNL     1      43.599   5.565  12.895  0.00  0.00    +0.000 C 
BRANCH  19  20
ATOM     20  C   UNL     1      42.641   5.178  11.770  0.00  0.00    +0.000 C 
BRANCH  20  21
ATOM     21  N   UNL     1      43.234   5.492  10.472  0.00  0.00    +0.000 NA
ATOM     22  H   UNL     1      43.588   6.446  10.477  0.00  0.00    +0.000 HD
ATOM     23  H   UNL     1      42.508   5.454   9.758  0.00  0.00    +0.000 HD
ENDBRANCH  20  21
ENDBRANCH  19  20
ENDBRANCH  18  19
ENDBRANCH  15  18
ENDBRANCH  11  12
ENDBRANCH   8  11
ENDBRANCH   7   8
ENDBRANCH   1   7
BRANCH   4  24
ATOM     24  C   UNL     1      48.569   3.296  18.057  0.00  0.00    +0.000 C 
BRANCH  24  25
ATOM     25  N   UNL     1      49.934   2.850  18.248  0.00  0.00    +0.000 N 
ATOM     26  C   UNL     1      50.599   2.104  17.312  0.00  0.00    +0.000 C 
ATOM     27  O   UNL     1      50.064   1.753  16.263  0.00  0.00    +0.000 OA
ATOM     28  H   UNL     1      50.296   2.919  19.195  0.00  0.00    +0.000 HD
BRANCH  26  29
ATOM     29  C   UNL     1      52.013   1.812  17.582  0.00  0.00    +0.000 A 
ATOM     30  C   UNL     1      52.429   0.491  17.689  0.00  0.00    +0.000 A 
ATOM     31  S   UNL     1      54.103   0.315  17.956  0.00  0.00    +0.000 S 
ATOM     32  C   UNL     1      54.329   2.001  17.988  0.00  0.00    +0.000 A 
ATOM     33  N   UNL     1      55.560   2.536  18.211  0.00  0.00    +0.000 NA
ATOM     34  C   UNL     1      55.583   3.826  18.243  0.00  0.00    +0.000 A 
ATOM     35  N   UNL     1      54.488   4.630  18.059  0.00  0.00    +0.000 N 
ATOM     36  C   UNL     1      53.236   4.135  17.778  0.00  0.00    +0.000 A 
ATOM     37  O   UNL     1      52.296   4.884  17.535  0.00  0.00    +0.000 OA
ATOM     38  C   UNL     1      53.147   2.688  17.768  0.00  0.00    +0.000 A 
ATOM     39  H   UNL     1      54.575   5.635  18.074  0.00  0.00    +0.000 HD
ENDBRANCH  26  29
ENDBRANCH  24  25
ENDBRANCH   4  24
TORSDOF 12
ENDMDL
MODEL 9
REMARK VINA RESULT:    -6.484      4.177      5.369
REMARK INTER + INTRA:         -11.692
REMARK INTER:                 -10.435
REMARK INTRA:                  -1.257
REMARK UNBOUND:                -0.849
REMARK  Name = 
REMARK  13 active torsions:
REMARK  status: ('A' for Active; 'I' for Inactive)
REMARK    1  A    between atoms: C_1  and  C_2
REMARK    2  A    between atoms: C_2  and  N_3
REMARK    3  A    between atoms: N_3  and  C_4
REMARK    4  A    between atoms: N_3  and  C_25
REMARK    5  A    between atoms: C_4  and  C_5
REMARK    6  A    between atoms: C_8  and  C_9
REMARK    7  A    between atoms: C_9  and  N_10
REMARK    8  A    between atoms: C_11  and  C_13
REMARK    9  A    between atoms: C_25  and  C_26
REMARK   10  A    between atoms: N_29  and  C_30
REMARK   11  A    between atoms: C_30  and  C_31
REMARK   12  A    between atoms: C_31  and  C_32
REMARK   13  A    between atoms: C_32  and  N_33
REMARK                            x       y       z     vdW  Elec       q    Type
REMARK                         _______ _______ _______ _____ _____    ______ ____
ROOT
ATOM      1  C   UNL     1      47.891   7.256  12.259  0.00  0.00    +0.000 A 
ATOM      2  C   UNL     1      48.379   6.455  13.297  0.00  0.00    +0.000 A 
ATOM      3  C   UNL     1      49.308   6.972  14.192  0.00  0.00    +0.000 A 
ATOM      4  C   UNL     1      49.778   8.266  13.991  0.00  0.00    +0.000 A 
ATOM      5  N   UNL     1      49.391   9.032  12.943  0.00  0.00    +0.000 NA
ATOM      6  C   UNL     1      48.460   8.513  12.111  0.00  0.00    +0.000 A 
ENDROOT
BRANCH   1   7
ATOM      7  C   UNL     1      46.705   6.832  11.428  0.00  0.00    +0.000 C 
BRANCH   7   8
ATOM      8  N   UNL     1      45.379   7.077  12.050  0.00  0.00    +0.000 NA
BRANCH   8  10
ATOM      9  C   UNL     1      44.904   9.566  12.004  0.00  0.00    +0.000 C 
ATOM     10  C   UNL     1      45.280   8.332  12.812  0.00  0.00    +0.000 C 
ENDBRANCH   8  10
BRANCH   8  11
ATOM     11  C   UNL     1      44.972   5.927  12.887  0.00  0.00    +0.000 C 
BRANCH  11  12
ATOM     12  C   UNL     1      43.546   5.388  12.636  0.00  0.00    +0.000 C 
ATOM     13  C   UNL     1      43.489   3.880  12.899  0.00  0.00    +0.000 C 
ATOM     14  C   UNL     1      44.221   3.079  11.828  0.00  0.00    +0.000 C 
ATOM     15  N   UNL     1      43.726   3.396  10.480  0.00  0.00    +0.000 NA
ATOM     16  C   UNL     1      43.808   4.834  10.177  0.00  0.00    +0.000 C 
ATOM     17  C   UNL     1      43.056   5.670  11.215  0.00  0.00    +0.000 C 
BRANCH  15  18
ATOM     18  C   UNL     1      44.431   2.616   9.450  0.00  0.00    +0.000 C 
BRANCH  18  19
ATOM     19  C   UNL     1      44.821   3.434   8.210  0.00  0.00    +0.000 C 
BRANCH  19  20
ATOM     20  C   UNL     1      46.224   3.094   7.710  0.00  0.00    +0.000 C 
BRANCH  20  21
ATOM     21  N   UNL     1      46.673   4.099   6.748  0.00  0.00    +0.000 NA
ATOM     22  H   UNL     1      46.707   3.693   5.816  0.00  0.00    +0.000 HD
ATOM     23  H   UNL     1      47.626   4.376   6.980  0.00  0.00    +0.000 HD
ENDBRANCH  20  21
ENDBRANCH  19  20
ENDBRANCH  18  19
ENDBRANCH  15  18
ENDBRANCH  11  12
ENDBRANCH   8  11
ENDBRANCH   7   8
ENDBRANCH   1   7
BRANCH   4  24
ATOM     24  C   UNL     1      50.711   8.903  14.988  0.00  0.00    +0.000 C 
BRANCH  24  25
ATOM     25  N   UNL     1      50.201   8.823  16.343  0.00  0.00    +0.000 N 
ATOM     26  C   UNL     1      49.201   9.640  16.798  0.00  0.00    +0.000 C 
ATOM     27  O   UNL     1      48.694  10.503  16.086  0.00  0.00    +0.000 OA
ATOM     28  H   UNL     1      50.768   8.296  17.001  0.00  0.00    +0.000 HD
BRANCH  26  29
ATOM     29  C   UNL     1      48.703   9.380  18.156  0.00  0.00    +0.000 A 
ATOM     30  C   UNL     1      48.572  10.436  19.048  0.00  0.00    +0.000 A 
ATOM     31  S   UNL     1      47.938   9.983  20.564  0.00  0.00    +0.000 S 
ATOM     32  C   UNL     1      47.860   8.348  20.102  0.00  0.00    +0.000 A 
ATOM     33  N   UNL     1      47.420   7.397  20.971  0.00  0.00    +0.000 NA
ATOM     34  C   UNL     1      47.444   6.195  20.502  0.00  0.00    +0.000 A 
ATOM     35  N   UNL     1      47.854   5.859  19.239  0.00  0.00    +0.000 N 
ATOM     36  C   UNL     1      48.256   6.790  18.309  0.00  0.00    +0.000 A 
ATOM     37  O   UNL     1      48.536   6.464  17.161  0.00  0.00    +0.000 OA
ATOM     38  C   UNL     1      48.284   8.155  18.798  0.00  0.00    +0.000 A 
ATOM     39  H   UNL     1      47.829   4.900  18.923  0.00  0.00    +0.000 HD
ENDBRANCH  26  29
ENDBRANCH  24  25
ENDBRANCH   4  24
TORSDOF 12
ENDMDL
