MODEL 1
REMARK VINA RESULT:    -6.837      0.000      0.000
REMARK INTER + INTRA:         -12.462
REMARK INTER:                 -11.433
REMARK INTRA:                  -1.029
REMARK UNBOUND:                -1.029
REMARK  Name = 
REMARK  12 active torsions:
REMARK  status: ('A' for Active; 'I' for Inactive)
REMARK    1  A    between atoms: N_1  and  C_2
REMARK    2  A    between atoms: C_2  and  C_3
REMARK    3  A    between atoms: C_3  and  C_4
REMARK    4  A    between atoms: C_4  and  C_5
REMARK    5  A    between atoms: C_5  and  C_6
REMARK    6  A    between atoms: C_6  and  C_7
REMARK    7  A    between atoms: C_7  and  C_8
REMARK    8  A    between atoms: C_8  and  N_9
REMARK    9  A    between atoms: N_9  and  C_10
REMARK   10  A    between atoms: C_10  and  C_11
REMARK   11  A    between atoms: C_14  and  C_15
REMARK   12  A    between atoms: C_15  and  N_16
REMARK                            x       y       z     vdW  Elec       q    Type
REMARK                         _______ _______ _______ _____ _____    ______ ____
ROOT
ATOM      1  C   UNL     1      46.599   4.725  13.551  0.00  0.00    +0.000 A 
ATOM      2  C   UNL     1      46.264   5.785  12.706  0.00  0.00    +0.000 A 
ATOM      3  C   UNL     1      45.369   5.560  11.667  0.00  0.00    +0.000 A 
ATOM      4  C   UNL     1      44.829   4.286  11.489  0.00  0.00    +0.000 A 
ATOM      5  C   UNL     1      45.268   3.276  12.337  0.00  0.00    +0.000 A 
ATOM      6  N   UNL     1      46.134   3.466  13.357  0.00  0.00    +0.000 NA
ENDROOT
BRANCH   1   7
ATOM      7  C   UNL     1      47.447   4.985  14.783  0.00  0.00    +0.000 C 
BRANCH   7   8
ATOM      8  N   UNL     1      47.540   3.783  15.622  0.00  0.00    +0.000 NA
ATOM      9  H   UNL     1      47.032   3.019  15.181  0.00  0.00    +0.000 HD
BRANCH   8  10
ATOM     10  C   UNL     1      47.026   4.010  16.963  0.00  0.00    +0.000 C 
BRANCH  10  11
ATOM     11  C   UNL     1      47.939   5.021  17.658  0.00  0.00    +0.000 C 
BRANCH  11  12
ATOM     12  C   UNL     1      48.509   4.448  18.949  0.00  0.00    +0.000 C 
BRANCH  12  13
ATOM     13  C   UNL     1      50.037   4.487  18.944  0.00  0.00    +0.000 C 
BRANCH  13  14
ATOM     14  C   UNL     1      50.583   4.010  17.600  0.00  0.00    +0.000 C 
BRANCH  14  15
ATOM     15  C   UNL     1      51.584   2.871  17.778  0.00  0.00    +0.000 C 
BRANCH  15  16
ATOM     16  C   UNL     1      51.047   1.577  17.170  0.00  0.00    +0.000 C 
BRANCH  16  17
ATOM     17  N   UNL     1      49.926   1.864  16.284  0.00  0.00    +0.000 NA
ATOM     18  H   UNL     1      49.675   1.019  15.772  0.00  0.00    +0.000 HD
ATOM     19  H   UNL     1      50.209   2.549  15.584  0.00  0.00    +0.000 HD
ENDBRANCH  16  17
ENDBRANCH  15  16
ENDBRANCH  14  15
ENDBRANCH  13  14
ENDBRANCH  12  13
ENDBRANCH  11  12
ENDBRANCH  10  11
ENDBRANCH   8  10
ENDBRANCH   7   8
ENDBRANCH   1   7
BRANCH   4  20
ATOM     20  C   UNL     1      43.789   4.025  10.439  0.00  0.00    +0.000 C 
BRANCH  20  21
ATOM     21  N   UNL     1      44.228   4.539   9.161  0.00  0.00    +0.000 N 
ATOM     22  C   UNL     1      45.145   3.701   8.541  0.00  0.00    +0.000 A 
ATOM     23  N   UNL     1      45.048   2.372   8.696  0.00  0.00    +0.000 NA
ATOM     24  C   UNL     1      45.975   1.611   8.085  0.00  0.00    +0.000 A 
ATOM     25  C   UNL     1      46.995   2.129   7.333  0.00  0.00    +0.000 A 
ATOM     26  C   UNL     1      47.013   3.497   7.234  0.00  0.00    +0.000 A 
ATOM     27  N   UNL     1      46.108   4.300   7.831  0.00  0.00    +0.000 NA
ATOM     28  H   UNL     1      44.652   5.461   9.181  0.00  0.00    +0.000 HD
ENDBRANCH  20  21
ENDBRANCH   4  20
TORSDOF 12
ENDMDL
MODEL 2
REMARK VINA RESULT:    -6.832      1.414      1.865
REMARK INTER + INTRA:         -12.454
REMARK INTER:                 -11.162
REMARK INTRA:                  -1.292
REMARK UNBOUND:                -1.029
REMARK  Name = 
REMARK  12 active torsions:
REMARK  status: ('A' for Active; 'I' for Inactive)
REMARK    1  A    between atoms: N_1  and  C_2
REMARK    2  A    between atoms: C_2  and  C_3
REMARK    3  A    between atoms: C_3  and  C_4
REMARK    4  A    between atoms: C_4  and  C_5
REMARK    5  A    between atoms: C_5  and  C_6
REMARK    6  A    between atoms: C_6  and  C_7
REMARK    7  A    between atoms: C_7  and  C_8
REMARK    8  A    between atoms: C_8  and  N_9
REMARK    9  A    between atoms: N_9  and  C_10
REMARK   10  A    between atoms: C_10  and  C_11
REMARK   11  A    between atoms: C_14  and  C_15
REMARK   12  A    between atoms: C_15  and  N_16
REMARK                            x       y       z     vdW  Elec       q    Type
REMARK                         _______ _______ _______ _____ _____    ______ ____
ROOT
ATOM      1  C   UNL     1      46.770   6.216  12.797  0.00  0.00    +0.000 A 
ATOM      2  C   UNL     1      46.586   6.684  11.495  0.00  0.00    +0.000 A 
ATOM      3  C   UNL     1      45.701   6.014  10.659  0.00  0.00    +0.000 A 
ATOM      4  C   UNL     1      45.021   4.892  11.134  0.00  0.00    +0.000 A 
ATOM      5  C   UNL     1      45.314   4.460  12.422  0.00  0.00    +0.000 A 
ATOM      6  N   UNL     1      46.166   5.092  13.258  0.00  0.00    +0.000 NA
ENDROOT
BRANCH   1   7
ATOM      7  C   UNL     1      47.606   7.023  13.774  0.00  0.00    +0.000 C 
BRANCH   7   8
ATOM      8  N   UNL     1      48.607   6.176  14.435  0.00  0.00    +0.000 NA
ATOM      9  H   UNL     1      48.354   5.197  14.323  0.00  0.00    +0.000 HD
BRANCH   8  10
ATOM     10  C   UNL     1      48.745   6.492  15.848  0.00  0.00    +0.000 C 
BRANCH  10  11
ATOM     11  C   UNL     1      50.233   6.463  16.199  0.00  0.00    +0.000 C 
BRANCH  11  12
ATOM     12  C   UNL     1      50.468   5.761  17.531  0.00  0.00    +0.000 C 
BRANCH  12  13
ATOM     13  C   UNL     1      49.449   4.644  17.753  0.00  0.00    +0.000 C 
BRANCH  13  14
ATOM     14  C   UNL     1      50.097   3.276  17.556  0.00  0.00    +0.000 C 
BRANCH  14  15
ATOM     15  C   UNL     1      49.206   2.351  16.729  0.00  0.00    +0.000 C 
BRANCH  15  16
ATOM     16  C   UNL     1      47.878   3.030  16.400  0.00  0.00    +0.000 C 
BRANCH  16  17
ATOM     17  N   UNL     1      47.690   3.099  14.957  0.00  0.00    +0.000 NA
ATOM     18  H   UNL     1      47.371   2.194  14.614  0.00  0.00    +0.000 HD
ATOM     19  H   UNL     1      48.586   3.277  14.503  0.00  0.00    +0.000 HD
ENDBRANCH  16  17
ENDBRANCH  15  16
ENDBRANCH  14  15
ENDBRANCH  13  14
ENDBRANCH  12  13
ENDBRANCH  11  12
ENDBRANCH  10  11
ENDBRANCH   8  10
ENDBRANCH   7   8
ENDBRANCH   1   7
BRANCH   4  20
ATOM     20  C   UNL     1      43.989   4.198  10.295  0.00  0.00    +0.000 C 
BRANCH  20  21
ATOM     21  N   UNL     1      44.239   4.441   8.892  0.00  0.00    +0.000 N 
ATOM     22  C   UNL     1      45.157   3.547   8.356  0.00  0.00    +0.000 A 
ATOM     23  N   UNL     1      45.201   2.283   8.804  0.00  0.00    +0.000 NA
ATOM     24  C   UNL     1      46.123   1.468   8.260  0.00  0.00    +0.000 A 
ATOM     25  C   UNL     1      47.004   1.870   7.292  0.00  0.00    +0.000 A 
ATOM     26  C   UNL     1      46.886   3.179   6.901  0.00  0.00    +0.000 A 
ATOM     27  N   UNL     1      45.980   4.034   7.420  0.00  0.00    +0.000 NA
ATOM     28  H   UNL     1      44.576   5.369   8.660  0.00  0.00    +0.000 HD
ENDBRANCH  20  21
ENDBRANCH   4  20
TORSDOF 12
ENDMDL
MODEL 3
REMARK VINA RESULT:    -6.241      1.602      2.040
REMARK INTER + INTRA:         -11.466
REMARK INTER:                 -10.649
REMARK INTRA:                  -0.817
REMARK UNBOUND:                -1.029
REMARK  Name = 
REMARK  12 active torsions:
REMARK  status: ('A' for Active; 'I' for Inactive)
REMARK    1  A    between atoms: N_1  and  C_2
REMARK    2  A    between atoms: C_2  and  C_3
REMARK    3  A    between atoms: C_3  and  C_4
REMARK    4  A    between atoms: C_4  and  C_5
REMARK    5  A    between atoms: C_5  and  C_6
REMARK    6  A    between atoms: C_6  and  C_7
REMARK    7  A    between atoms: C_7  and  C_8
REMARK    8  A    between atoms: C_8  and  N_9
REMARK    9  A    between atoms: N_9  and  C_10
REMARK   10  A    between atoms: C_10  and  C_11
REMARK   11  A    between atoms: C_14  and  C_15
REMARK   12  A    between atoms: C_15  and  N_16
REMARK                            x       y       z     vdW  Elec       q    Type
REMARK                         _______ _______ _______ _____ _____    ______ ____
ROOT
ATOM      1  C   UNL     1      46.535   5.349  13.100  0.00  0.00    +0.000 A 
ATOM      2  C   UNL     1      46.053   4.041  13.184  0.00  0.00    +0.000 A 
ATOM      3  C   UNL     1      45.183   3.582  12.203  0.00  0.00    +0.000 A 
ATOM      4  C   UNL     1      44.809   4.432  11.162  0.00  0.00    +0.000 A 
ATOM      5  C   UNL     1      45.286   5.736  11.193  0.00  0.00    +0.000 A 
ATOM      6  N   UNL     1      46.136   6.210  12.132  0.00  0.00    +0.000 NA
ENDROOT
BRANCH   1   7
ATOM      7  C   UNL     1      47.607   5.818  14.067  0.00  0.00    +0.000 C 
BRANCH   7   8
ATOM      8  N   UNL     1      48.737   6.422  13.349  0.00  0.00    +0.000 NA
ATOM      9  H   UNL     1      49.293   5.691  12.911  0.00  0.00    +0.000 HD
BRANCH   8  10
ATOM     10  C   UNL     1      49.576   7.224  14.225  0.00  0.00    +0.000 C 
BRANCH  10  11
ATOM     11  C   UNL     1      48.883   7.329  15.584  0.00  0.00    +0.000 C 
BRANCH  11  12
ATOM     12  C   UNL     1      49.850   7.012  16.718  0.00  0.00    +0.000 C 
BRANCH  12  13
ATOM     13  C   UNL     1      49.639   5.593  17.243  0.00  0.00    +0.000 C 
BRANCH  13  14
ATOM     14  C   UNL     1      50.958   4.824  17.262  0.00  0.00    +0.000 C 
BRANCH  14  15
ATOM     15  C   UNL     1      50.745   3.359  17.638  0.00  0.00    +0.000 C 
BRANCH  15  16
ATOM     16  C   UNL     1      49.377   2.872  17.164  0.00  0.00    +0.000 C 
BRANCH  16  17
ATOM     17  N   UNL     1      49.533   1.804  16.185  0.00  0.00    +0.000 NA
ATOM     18  H   UNL     1      50.422   1.917  15.701  0.00  0.00    +0.000 HD
ATOM     19  H   UNL     1      48.807   1.883  15.474  0.00  0.00    +0.000 HD
ENDBRANCH  16  17
ENDBRANCH  15  16
ENDBRANCH  14  15
ENDBRANCH  13  14
ENDBRANCH  12  13
ENDBRANCH  11  12
ENDBRANCH  10  11
ENDBRANCH   8  10
ENDBRANCH   7   8
ENDBRANCH   1   7
BRANCH   4  20
ATOM     20  C   UNL     1      43.947   3.944  10.034  0.00  0.00    +0.000 C 
BRANCH  20  21
ATOM     21  N   UNL     1      44.468   4.413   8.769  0.00  0.00    +0.000 N 
ATOM     22  C   UNL     1      45.416   3.550   8.235  0.00  0.00    +0.000 A 
ATOM     23  N   UNL     1      45.302   2.227   8.430  0.00  0.00    +0.000 NA
ATOM     24  C   UNL     1      46.261   1.442   7.904  0.00  0.00    +0.000 A 
ATOM     25  C   UNL     1      47.328   1.929   7.199  0.00  0.00    +0.000 A 
ATOM     26  C   UNL     1      47.361   3.293   7.055  0.00  0.00    +0.000 A 
ATOM     27  N   UNL     1      46.425   4.120   7.567  0.00  0.00    +0.000 NA
ATOM     28  H   UNL     1      44.895   5.332   8.783  0.00  0.00    +0.000 HD
ENDBRANCH  20  21
ENDBRANCH   4  20
TORSDOF 12
ENDMDL
MODEL 4
REMARK VINA RESULT:    -6.169      3.732      5.433
REMARK INTER + INTRA:         -11.345
REMARK INTER:                 -10.491
REMARK INTRA:                  -0.853
REMARK UNBOUND:                -1.029
REMARK  Name = 
REMARK  12 active torsions:
REMARK  status: ('A' for Active; 'I' for Inactive)
REMARK    1  A    between atoms: N_1  and  C_2
REMARK    2  A    between atoms: C_2  and  C_3
REMARK    3  A    between atoms: C_3  and  C_4
REMARK    4  A    between atoms: C_4  and  C_5
REMARK    5  A    between atoms: C_5  and  C_6
REMARK    6  A    between atoms: C_6  and  C_7
REMARK    7  A    between atoms: C_7  and  C_8
REMARK    8  A    between atoms: C_8  and  N_9
REMARK    9  A    between atoms: N_9  and  C_10
REMARK   10  A    between atoms: C_10  and  C_11
REMARK   11  A    between atoms: C_14  and  C_15
REMARK   12  A    between atoms: C_15  and  N_16
REMARK                            x       y       z     vdW  Elec       q    Type
REMARK                         _______ _______ _______ _____ _____    ______ ____
ROOT
ATOM      1  C   UNL     1      46.705   5.707  13.005  0.00  0.00    +0.000 A 
ATOM      2  C   UNL     1      46.285   4.396  13.236  0.00  0.00    +0.000 A 
ATOM      3  C   UNL     1      45.316   3.845  12.406  0.00  0.00    +0.000 A 
ATOM      4  C   UNL     1      44.784   4.611  11.368  0.00  0.00    +0.000 A 
ATOM      5  C   UNL     1      45.214   5.926  11.252  0.00  0.00    +0.000 A 
ATOM      6  N   UNL     1      46.157   6.488  12.041  0.00  0.00    +0.000 NA
ENDROOT
BRANCH   1   7
ATOM      7  C   UNL     1      47.872   6.272  13.795  0.00  0.00    +0.000 C 
BRANCH   7   8
ATOM      8  N   UNL     1      49.094   6.304  12.980  0.00  0.00    +0.000 NA
ATOM      9  H   UNL     1      49.786   5.673  13.378  0.00  0.00    +0.000 HD
BRANCH   8  10
ATOM     10  C   UNL     1      49.648   7.644  12.876  0.00  0.00    +0.000 C 
BRANCH  10  11
ATOM     11  C   UNL     1      49.980   7.910  11.407  0.00  0.00    +0.000 C 
BRANCH  11  12
ATOM     12  C   UNL     1      51.087   8.948  11.274  0.00  0.00    +0.000 C 
BRANCH  12  13
ATOM     13  C   UNL     1      52.108   8.535  10.215  0.00  0.00    +0.000 C 
BRANCH  13  14
ATOM     14  C   UNL     1      52.195   7.014  10.117  0.00  0.00    +0.000 C 
BRANCH  14  15
ATOM     15  C   UNL     1      53.284   6.580   9.137  0.00  0.00    +0.000 C 
BRANCH  15  16
ATOM     16  C   UNL     1      53.024   7.159   7.748  0.00  0.00    +0.000 C 
BRANCH  16  17
ATOM     17  N   UNL     1      51.969   6.410   7.078  0.00  0.00    +0.000 NA
ATOM     18  H   UNL     1      51.768   5.563   7.608  0.00  0.00    +0.000 HD
ATOM     19  H   UNL     1      52.296   6.103   6.162  0.00  0.00    +0.000 HD
ENDBRANCH  16  17
ENDBRANCH  15  16
ENDBRANCH  14  15
ENDBRANCH  13  14
ENDBRANCH  12  13
ENDBRANCH  11  12
ENDBRANCH  10  11
ENDBRANCH   8  10
ENDBRANCH   7   8
ENDBRANCH   1   7
BRANCH   4  20
ATOM     20  C   UNL     1      43.806   4.022  10.393  0.00  0.00    +0.000 C 
BRANCH  20  21
ATOM     21  N   UNL     1      44.138   4.426   9.045  0.00  0.00    +0.000 N 
ATOM     22  C   UNL     1      45.103   3.610   8.471  0.00  0.00    +0.000 A 
ATOM     23  N   UNL     1      45.142   2.303   8.774  0.00  0.00    +0.000 NA
ATOM     24  C   UNL     1      46.111   1.566   8.200  0.00  0.00    +0.000 A 
ATOM     25  C   UNL     1      47.043   2.086   7.343  0.00  0.00    +0.000 A 
ATOM     26  C   UNL     1      46.925   3.430   7.096  0.00  0.00    +0.000 A 
ATOM     27  N   UNL     1      45.974   4.210   7.650  0.00  0.00    +0.000 NA
ATOM     28  H   UNL     1      44.472   5.378   8.942  0.00  0.00    +0.000 HD
ENDBRANCH  20  21
ENDBRANCH   4  20
TORSDOF 12
ENDMDL
MODEL 5
REMARK VINA RESULT:    -5.742      3.936      4.851
REMARK INTER + INTRA:         -10.630
REMARK INTER:                  -9.689
REMARK INTRA:                  -0.942
REMARK UNBOUND:                -1.029
REMARK  Name = 
REMARK  12 active torsions:
REMARK  status: ('A' for Active; 'I' for Inactive)
REMARK    1  A    between atoms: N_1  and  C_2
REMARK    2  A    between atoms: C_2  and  C_3
REMARK    3  A    between atoms: C_3  and  C_4
REMARK    4  A    between atoms: C_4  and  C_5
REMARK    5  A    between atoms: C_5  and  C_6
REMARK    6  A    between atoms: C_6  and  C_7
REMARK    7  A    between atoms: C_7  and  C_8
REMARK    8  A    between atoms: C_8  and  N_9
REMARK    9  A    between atoms: N_9  and  C_10
REMARK   10  A    between atoms: C_10  and  C_11
REMARK   11  A    between atoms: C_14  and  C_15
REMARK   12  A    between atoms: C_15  and  N_16
REMARK                            x       y       z     vdW  Elec       q    Type
REMARK                         _______ _______ _______ _____ _____    ______ ____
ROOT
ATOM      1  C   UNL     1      45.753   6.264  12.236  0.00  0.00    +0.000 A 
ATOM      2  C   UNL     1      45.647   6.344  10.847  0.00  0.00    +0.000 A 
ATOM      3  C   UNL     1      45.277   5.210  10.135  0.00  0.00    +0.000 A 
ATOM      4  C   UNL     1      45.022   4.021  10.819  0.00  0.00    +0.000 A 
ATOM      5  C   UNL     1      45.214   4.017  12.195  0.00  0.00    +0.000 A 
ATOM      6  N   UNL     1      45.571   5.104  12.914  0.00  0.00    +0.000 NA
ENDROOT
BRANCH   1   7
ATOM      7  C   UNL     1      45.999   7.525  13.045  0.00  0.00    +0.000 C 
BRANCH   7   8
ATOM      8  N   UNL     1      44.982   8.545  12.754  0.00  0.00    +0.000 NA
ATOM      9  H   UNL     1      44.261   8.147  12.156  0.00  0.00    +0.000 HD
BRANCH   8  10
ATOM     10  C   UNL     1      45.553   9.724  12.123  0.00  0.00    +0.000 C 
BRANCH  10  11
ATOM     11  C   UNL     1      46.988   9.886  12.627  0.00  0.00    +0.000 C 
BRANCH  11  12
ATOM     12  C   UNL     1      47.923  10.297  11.495  0.00  0.00    +0.000 C 
BRANCH  12  13
ATOM     13  C   UNL     1      49.348   9.810  11.753  0.00  0.00    +0.000 C 
BRANCH  13  14
ATOM     14  C   UNL     1      49.459   8.309  11.497  0.00  0.00    +0.000 C 
BRANCH  14  15
ATOM     15  C   UNL     1      49.740   7.542  12.787  0.00  0.00    +0.000 C 
BRANCH  15  16
ATOM     16  C   UNL     1      50.497   8.418  13.784  0.00  0.00    +0.000 C 
BRANCH  16  17
ATOM     17  N   UNL     1      51.601   7.672  14.374  0.00  0.00    +0.000 NA
ATOM     18  H   UNL     1      51.793   6.847  13.807  0.00  0.00    +0.000 HD
ATOM     19  H   UNL     1      51.329   7.329  15.295  0.00  0.00    +0.000 HD
ENDBRANCH  16  17
ENDBRANCH  15  16
ENDBRANCH  14  15
ENDBRANCH  13  14
ENDBRANCH  12  13
ENDBRANCH  11  12
ENDBRANCH  10  11
ENDBRANCH   8  10
ENDBRANCH   7   8
ENDBRANCH   1   7
BRANCH   4  20
ATOM     20  C   UNL     1      44.528   2.802  10.097  0.00  0.00    +0.000 C 
BRANCH  20  21
ATOM     21  N   UNL     1      44.400   3.076   8.683  0.00  0.00    +0.000 N 
ATOM     22  C   UNL     1      45.450   2.546   7.944  0.00  0.00    +0.000 A 
ATOM     23  N   UNL     1      46.019   1.391   8.323  0.00  0.00    +0.000 NA
ATOM     24  C   UNL     1      47.043   0.935   7.578  0.00  0.00    +0.000 A 
ATOM     25  C   UNL     1      47.522   1.593   6.477  0.00  0.00    +0.000 A 
ATOM     26  C   UNL     1      46.880   2.765   6.170  0.00  0.00    +0.000 A 
ATOM     27  N   UNL     1      45.852   3.262   6.888  0.00  0.00    +0.000 NA
ATOM     28  H   UNL     1      44.339   4.056   8.429  0.00  0.00    +0.000 HD
ENDBRANCH  20  21
ENDBRANCH   4  20
TORSDOF 12
ENDMDL
MODEL 6
REMARK VINA RESULT:    -5.720      3.292      4.798
REMARK INTER + INTRA:         -10.594
REMARK INTER:                  -9.635
REMARK INTRA:                  -0.959
REMARK UNBOUND:                -1.029
REMARK  Name = 
REMARK  12 active torsions:
REMARK  status: ('A' for Active; 'I' for Inactive)
REMARK    1  A    between atoms: N_1  and  C_2
REMARK    2  A    between atoms: C_2  and  C_3
REMARK    3  A    between atoms: C_3  and  C_4
REMARK    4  A    between atoms: C_4  and  C_5
REMARK    5  A    between atoms: C_5  and  C_6
REMARK    6  A    between atoms: C_6  and  C_7
REMARK    7  A    between atoms: C_7  and  C_8
REMARK    8  A    between atoms: C_8  and  N_9
REMARK    9  A    between atoms: N_9  and  C_10
REMARK   10  A    between atoms: C_10  and  C_11
REMARK   11  A    between atoms: C_14  and  C_15
REMARK   12  A    between atoms: C_15  and  N_16
REMARK                            x       y       z     vdW  Elec       q    Type
REMARK                         _______ _______ _______ _____ _____    ______ ____
ROOT
ATOM      1  C   UNL     1      44.697   6.104  12.003  0.00  0.00    +0.000 A 
ATOM      2  C   UNL     1      45.478   4.985  12.295  0.00  0.00    +0.000 A 
ATOM      3  C   UNL     1      45.282   3.819  11.564  0.00  0.00    +0.000 A 
ATOM      4  C   UNL     1      44.311   3.791  10.562  0.00  0.00    +0.000 A 
ATOM      5  C   UNL     1      43.537   4.930  10.384  0.00  0.00    +0.000 A 
ATOM      6  N   UNL     1      43.707   6.078  11.076  0.00  0.00    +0.000 NA
ENDROOT
BRANCH   1   7
ATOM      7  C   UNL     1      45.002   7.430  12.676  0.00  0.00    +0.000 C 
BRANCH   7   8
ATOM      8  N   UNL     1      44.380   8.545  11.950  0.00  0.00    +0.000 NA
ATOM      9  H   UNL     1      44.135   8.245  11.009  0.00  0.00    +0.000 HD
BRANCH   8  10
ATOM     10  C   UNL     1      45.249   9.710  11.888  0.00  0.00    +0.000 C 
BRANCH  10  11
ATOM     11  C   UNL     1      46.495   9.421  12.725  0.00  0.00    +0.000 C 
BRANCH  11  12
ATOM     12  C   UNL     1      47.765   9.756  11.952  0.00  0.00    +0.000 C 
BRANCH  12  13
ATOM     13  C   UNL     1      48.996   9.148  12.623  0.00  0.00    +0.000 C 
BRANCH  13  14
ATOM     14  C   UNL     1      49.361   7.816  11.972  0.00  0.00    +0.000 C 
BRANCH  14  15
ATOM     15  C   UNL     1      48.725   6.641  12.712  0.00  0.00    +0.000 C 
BRANCH  15  16
ATOM     16  C   UNL     1      48.703   6.897  14.218  0.00  0.00    +0.000 C 
BRANCH  16  17
ATOM     17  N   UNL     1      47.957   5.846  14.897  0.00  0.00    +0.000 NA
ATOM     18  H   UNL     1      48.378   5.669  15.809  0.00  0.00    +0.000 HD
ATOM     19  H   UNL     1      48.036   4.976  14.372  0.00  0.00    +0.000 HD
ENDBRANCH  16  17
ENDBRANCH  15  16
ENDBRANCH  14  15
ENDBRANCH  13  14
ENDBRANCH  12  13
ENDBRANCH  11  12
ENDBRANCH  10  11
ENDBRANCH   8  10
ENDBRANCH   7   8
ENDBRANCH   1   7
BRANCH   4  20
ATOM     20  C   UNL     1      44.134   2.583   9.689  0.00  0.00    +0.000 C 
BRANCH  20  21
ATOM     21  N   UNL     1      45.387   1.873   9.557  0.00  0.00    +0.000 N 
ATOM     22  C   UNL     1      46.009   2.119   8.341  0.00  0.00    +0.000 A 
ATOM     23  N   UNL     1      45.892   3.324   7.761  0.00  0.00    +0.000 NA
ATOM     24  C   UNL     1      46.502   3.498   6.574  0.00  0.00    +0.000 A 
ATOM     25  C   UNL     1      47.216   2.515   5.944  0.00  0.00    +0.000 A 
ATOM     26  C   UNL     1      47.277   1.318   6.611  0.00  0.00    +0.000 A 
ATOM     27  N   UNL     1      46.679   1.095   7.800  0.00  0.00    +0.000 NA
ATOM     28  H   UNL     1      45.333   0.865   9.651  0.00  0.00    +0.000 HD
ENDBRANCH  20  21
ENDBRANCH   4  20
TORSDOF 12
ENDMDL
MODEL 7
REMARK VINA RESULT:    -5.670      1.991      3.175
REMARK INTER + INTRA:         -10.511
REMARK INTER:                  -9.818
REMARK INTRA:                  -0.693
REMARK UNBOUND:                -1.029
REMARK  Name = 
REMARK  12 active torsions:
REMARK  status: ('A' for Active; 'I' for Inactive)
REMARK    1  A    between atoms: N_1  and  C_2
REMARK    2  A    between atoms: C_2  and  C_3
REMARK    3  A    between atoms: C_3  and  C_4
REMARK    4  A    between atoms: C_4  and  C_5
REMARK    5  A    between atoms: C_5  and  C_6
REMARK    6  A    between atoms: C_6  and  C_7
REMARK    7  A    between atoms: C_7  and  C_8
REMARK    8  A    between atoms: C_8  and  N_9
REMARK    9  A    between atoms: N_9  and  C_10
REMARK   10  A    between atoms: C_10  and  C_11
REMARK   11  A    between atoms: C_14  and  C_15
REMARK   12  A    between atoms: C_15  and  N_16
REMARK                            x       y       z     vdW  Elec       q    Type
REMARK                         _______ _______ _______ _____ _____    ______ ____
ROOT
ATOM      1  C   UNL     1      45.327   6.791  12.226  0.00  0.00    +0.000 A 
ATOM      2  C   UNL     1      46.002   6.628  11.015  0.00  0.00    +0.000 A 
ATOM      3  C   UNL     1      45.672   5.551  10.202  0.00  0.00    +0.000 A 
ATOM      4  C   UNL     1      44.681   4.658  10.611  0.00  0.00    +0.000 A 
ATOM      5  C   UNL     1      44.107   4.862  11.859  0.00  0.00    +0.000 A 
ATOM      6  N   UNL     1      44.405   5.901  12.670  0.00  0.00    +0.000 NA
ENDROOT
BRANCH   1   7
ATOM      7  C   UNL     1      45.557   8.044  13.052  0.00  0.00    +0.000 C 
BRANCH   7   8
ATOM      8  N   UNL     1      46.869   8.635  12.758  0.00  0.00    +0.000 NA
ATOM      9  H   UNL     1      47.324   8.106  12.018  0.00  0.00    +0.000 HD
BRANCH   8  10
ATOM     10  C   UNL     1      47.726   8.681  13.932  0.00  0.00    +0.000 C 
BRANCH  10  11
ATOM     11  C   UNL     1      48.686   7.493  13.866  0.00  0.00    +0.000 C 
BRANCH  11  12
ATOM     12  C   UNL     1      48.285   6.408  14.859  0.00  0.00    +0.000 C 
BRANCH  12  13
ATOM     13  C   UNL     1      49.075   6.533  16.162  0.00  0.00    +0.000 C 
BRANCH  13  14
ATOM     14  C   UNL     1      49.138   5.190  16.884  0.00  0.00    +0.000 C 
BRANCH  14  15
ATOM     15  C   UNL     1      47.742   4.680  17.235  0.00  0.00    +0.000 C 
BRANCH  15  16
ATOM     16  C   UNL     1      47.616   3.189  16.928  0.00  0.00    +0.000 C 
BRANCH  16  17
ATOM     17  N   UNL     1      47.873   2.942  15.515  0.00  0.00    +0.000 NA
ATOM     18  H   UNL     1      47.900   3.830  15.016  0.00  0.00    +0.000 HD
ATOM     19  H   UNL     1      47.100   2.411  15.114  0.00  0.00    +0.000 HD
ENDBRANCH  16  17
ENDBRANCH  15  16
ENDBRANCH  14  15
ENDBRANCH  13  14
ENDBRANCH  12  13
ENDBRANCH  11  12
ENDBRANCH  10  11
ENDBRANCH   8  10
ENDBRANCH   7   8
ENDBRANCH   1   7
BRANCH   4  20
ATOM     20  C   UNL     1      44.231   3.539   9.719  0.00  0.00    +0.000 C 
BRANCH  20  21
ATOM     21  N   UNL     1      45.130   2.412   9.837  0.00  0.00    +0.000 N 
ATOM     22  C   UNL     1      45.879   2.210   8.686  0.00  0.00    +0.000 A 
ATOM     23  N   UNL     1      46.264   3.261   7.944  0.00  0.00    +0.000 NA
ATOM     24  C   UNL     1      46.972   3.002   6.830  0.00  0.00    +0.000 A 
ATOM     25  C   UNL     1      47.304   1.736   6.427  0.00  0.00    +0.000 A 
ATOM     26  C   UNL     1      46.865   0.728   7.247  0.00  0.00    +0.000 A 
ATOM     27  N   UNL     1      46.149   0.938   8.371  0.00  0.00    +0.000 NA
ATOM     28  H   UNL     1      44.694   1.523  10.053  0.00  0.00    +0.000 HD
ENDBRANCH  20  21
ENDBRANCH   4  20
TORSDOF 12
ENDMDL
MODEL 8
REMARK VINA RESULT:    -5.637      2.464      3.068
REMARK INTER + INTRA:         -10.456
REMARK INTER:                  -9.763
REMARK INTRA:                  -0.693
REMARK UNBOUND:                -1.029
REMARK  Name = 
REMARK  12 active torsions:
REMARK  status: ('A' for Active; 'I' for Inactive)
REMARK    1  A    between atoms: N_1  and  C_2
REMARK    2  A    between atoms: C_2  and  C_3
REMARK    3  A    between atoms: C_3  and  C_4
REMARK    4  A    between atoms: C_4  and  C_5
REMARK    5  A    between atoms: C_5  and  C_6
REMARK    6  A    between atoms: C_6  and  C_7
REMARK    7  A    between atoms: C_7  and  C_8
REMARK    8  A    between atoms: C_8  and  N_9
REMARK    9  A    between atoms: N_9  and  C_10
REMARK   10  A    between atoms: C_10  and  C_11
REMARK   11  A    between atoms: C_14  and  C_15
REMARK   12  A    between atoms: C_15  and  N_16
REMARK                            x       y       z     vdW  Elec       q    Type
REMARK                         _______ _______ _______ _____ _____    ______ ____
ROOT
ATOM      1  C   UNL     1      47.159   6.143  13.053  0.00  0.00    +0.000 A 
ATOM      2  C   UNL     1      46.855   6.744  11.831  0.00  0.00    +0.000 A 
ATOM      3  C   UNL     1      45.884   6.167  11.021  0.00  0.00    +0.000 A 
ATOM      4  C   UNL     1      45.240   5.004  11.443  0.00  0.00    +0.000 A 
ATOM      5  C   UNL     1      45.652   4.439  12.643  0.00  0.00    +0.000 A 
ATOM      6  N   UNL     1      46.589   4.978  13.453  0.00  0.00    +0.000 NA
ENDROOT
BRANCH   1   7
ATOM      7  C   UNL     1      48.097   6.841  14.022  0.00  0.00    +0.000 C 
BRANCH   7   8
ATOM      8  N   UNL     1      47.678   8.230  14.252  0.00  0.00    +0.000 NA
ATOM      9  H   UNL     1      48.028   8.821  13.500  0.00  0.00    +0.000 HD
BRANCH   8  10
ATOM     10  C   UNL     1      48.140   8.736  15.535  0.00  0.00    +0.000 C 
BRANCH  10  11
ATOM     11  C   UNL     1      48.952   7.635  16.216  0.00  0.00    +0.000 C 
BRANCH  11  12
ATOM     12  C   UNL     1      49.494   8.106  17.561  0.00  0.00    +0.000 C 
BRANCH  12  13
ATOM     13  C   UNL     1      48.383   8.702  18.425  0.00  0.00    +0.000 C 
BRANCH  13  14
ATOM     14  C   UNL     1      48.222   7.907  19.718  0.00  0.00    +0.000 C 
BRANCH  14  15
ATOM     15  C   UNL     1      48.170   6.404  19.446  0.00  0.00    +0.000 C 
BRANCH  15  16
ATOM     16  C   UNL     1      46.751   5.966  19.094  0.00  0.00    +0.000 C 
BRANCH  16  17
ATOM     17  N   UNL     1      46.785   4.851  18.156  0.00  0.00    +0.000 NA
ATOM     18  H   UNL     1      47.008   5.200  17.225  0.00  0.00    +0.000 HD
ATOM     19  H   UNL     1      45.859   4.431  18.089  0.00  0.00    +0.000 HD
ENDBRANCH  16  17
ENDBRANCH  15  16
ENDBRANCH  14  15
ENDBRANCH  13  14
ENDBRANCH  12  13
ENDBRANCH  11  12
ENDBRANCH  10  11
ENDBRANCH   8  10
ENDBRANCH   7   8
ENDBRANCH   1   7
BRANCH   4  20
ATOM     20  C   UNL     1      44.121   4.404  10.642  0.00  0.00    +0.000 C 
BRANCH  20  21
ATOM     21  N   UNL     1      44.310   4.680   9.235  0.00  0.00    +0.000 N 
ATOM     22  C   UNL     1      45.122   3.740   8.616  0.00  0.00    +0.000 A 
ATOM     23  N   UNL     1      45.092   2.460   9.018  0.00  0.00    +0.000 NA
ATOM     24  C   UNL     1      45.914   1.598   8.392  0.00  0.00    +0.000 A 
ATOM     25  C   UNL     1      46.768   1.967   7.388  0.00  0.00    +0.000 A 
ATOM     26  C   UNL     1      46.731   3.295   7.048  0.00  0.00    +0.000 A 
ATOM     27  N   UNL     1      45.926   4.197   7.649  0.00  0.00    +0.000 NA
ATOM     28  H   UNL     1      44.705   5.587   9.014  0.00  0.00    +0.000 HD
ENDBRANCH  20  21
ENDBRANCH   4  20
TORSDOF 12
ENDMDL
MODEL 9
REMARK VINA RESULT:    -5.424      3.136      9.191
REMARK INTER + INTRA:         -10.100
REMARK INTER:                  -9.295
REMARK INTRA:                  -0.805
REMARK UNBOUND:                -1.029
REMARK  Name = 
REMARK  12 active torsions:
REMARK  status: ('A' for Active; 'I' for Inactive)
REMARK    1  A    between atoms: N_1  and  C_2
REMARK    2  A    between atoms: C_2  and  C_3
REMARK    3  A    between atoms: C_3  and  C_4
REMARK    4  A    between atoms: C_4  and  C_5
REMARK    5  A    between atoms: C_5  and  C_6
REMARK    6  A    between atoms: C_6  and  C_7
REMARK    7  A    between atoms: C_7  and  C_8
REMARK    8  A    between atoms: C_8  and  N_9
REMARK    9  A    between atoms: N_9  and  C_10
REMARK   10  A    between atoms: C_10  and  C_11
REMARK   11  A    between atoms: C_14  and  C_15
REMARK   12  A    between atoms: C_15  and  N_16
REMARK                            x       y       z     vdW  Elec       q    Type
REMARK                         _______ _______ _______ _____ _____    ______ ____
ROOT
ATOM      1  C   UNL     1      45.511   6.469  12.448  0.00  0.00    +0.000 A 
ATOM      2  C   UNL     1      46.014   5.377  13.159  0.00  0.00    +0.000 A 
ATOM      3  C   UNL     1      47.156   5.547  13.931  0.00  0.00    +0.000 A 
ATOM      4  C   UNL     1      47.775   6.796  13.978  0.00  0.00    +0.000 A 
ATOM      5  C   UNL     1      47.243   7.808  13.189  0.00  0.00    +0.000 A 
ATOM      6  N   UNL     1      46.132   7.674  12.432  0.00  0.00    +0.000 NA
ENDROOT
BRANCH   1   7
ATOM      7  C   UNL     1      44.180   6.349  11.729  0.00  0.00    +0.000 C 
BRANCH   7   8
ATOM      8  N   UNL     1      44.326   5.605  10.471  0.00  0.00    +0.000 NA
ATOM      9  H   UNL     1      43.874   6.118   9.717  0.00  0.00    +0.000 HD
BRANCH   8  10
ATOM     10  C   UNL     1      43.769   4.264  10.559  0.00  0.00    +0.000 C 
BRANCH  10  11
ATOM     11  C   UNL     1      44.889   3.264  10.268  0.00  0.00    +0.000 C 
BRANCH  11  12
ATOM     12  C   UNL     1      44.586   2.452   9.014  0.00  0.00    +0.000 C 
BRANCH  12  13
ATOM     13  C   UNL     1      44.766   3.296   7.753  0.00  0.00    +0.000 C 
BRANCH  13  14
ATOM     14  C   UNL     1      46.230   3.689   7.573  0.00  0.00    +0.000 C 
BRANCH  14  15
ATOM     15  C   UNL     1      46.854   2.980   6.373  0.00  0.00    +0.000 C 
BRANCH  15  16
ATOM     16  C   UNL     1      47.834   1.902   6.830  0.00  0.00    +0.000 C 
BRANCH  16  17
ATOM     17  N   UNL     1      47.150   0.623   6.967  0.00  0.00    +0.000 NA
ATOM     18  H   UNL     1      46.155   0.752   6.788  0.00  0.00    +0.000 HD
ATOM     19  H   UNL     1      47.228   0.294   7.928  0.00  0.00    +0.000 HD
ENDBRANCH  16  17
ENDBRANCH  15  16
ENDBRANCH  14  15
ENDBRANCH  13  14
ENDBRANCH  12  13
ENDBRANCH  11  12
ENDBRANCH  10  11
ENDBRANCH   8  10
ENDBRANCH   7   8
ENDBRANCH   1   7
BRANCH   4  20
ATOM     20  C   UNL     1      48.954   7.043  14.874  0.00  0.00    +0.000 C 
BRANCH  20  21
ATOM     21  N   UNL     1      48.621   6.712  16.241  0.00  0.00    +0.000 N 
ATOM     22  C   UNL     1      48.624   7.825  17.071  0.00  0.00    +0.000 A 
ATOM     23  N   UNL     1      48.241   9.018  16.591  0.00  0.00    +0.000 NA
ATOM     24  C   UNL     1      48.281  10.064  17.437  0.00  0.00    +0.000 A 
ATOM     25  C   UNL     1      48.694   9.963  18.738  0.00  0.00    +0.000 A 
ATOM     26  C   UNL     1      49.068   8.705  19.137  0.00  0.00    +0.000 A 
ATOM     27  N   UNL     1      49.048   7.628  18.324  0.00  0.00    +0.000 NA
ATOM     28  H   UNL     1      49.220   6.024  16.685  0.00  0.00    +0.000 HD
ENDBRANCH  20  21
ENDBRANCH   4  20
TORSDOF 12
ENDMDL
