MODEL 1
REMARK VINA RESULT:    -8.496      0.000      0.000
REMARK INTER + INTRA:         -11.264
REMARK INTER:                 -10.483
REMARK INTRA:                  -0.781
REMARK UNBOUND:                -0.781
REMARK  Name = 
REMARK  4 active torsions:
REMARK  status: ('A' for Active; 'I' for Inactive)
REMARK    1  A    between atoms: C_2  and  C_4
REMARK    2  A    between atoms: N_8  and  C_9
REMARK    3  A    between atoms: C_9  and  C_10
REMARK    4  A    between atoms: C_14  and  C_15
REMARK                            x       y       z     vdW  Elec       q    Type
REMARK                         _______ _______ _______ _____ _____    ______ ____
ROOT
ATOM      1  C   UNL     1      46.384   2.252   7.611  0.00  0.00    +0.000 A 
ATOM      2  C   UNL     1      45.831   1.856   8.822  0.00  0.00    +0.000 A 
ATOM      3  C   UNL     1      44.996   2.736   9.509  0.00  0.00    +0.000 A 
ATOM      4  C   UNL     1      44.736   3.998   8.985  0.00  0.00    +0.000 A 
ATOM      5  N   UNL     1      43.852   4.890   9.539  0.00  0.00    +0.000 N 
ATOM      6  N   UNL     1      45.299   4.405   7.829  0.00  0.00    +0.000 NA
ATOM      7  C   UNL     1      46.114   3.539   7.171  0.00  0.00    +0.000 A 
ATOM      8  H   UNL     1      43.878   5.770   9.037  0.00  0.00    +0.000 HD
ENDROOT
BRANCH   1  10
ATOM      9  N   UNL     1      48.290   1.934   6.146  0.00  0.00    +0.000 N 
ATOM     10  C   UNL     1      47.226   1.364   6.789  0.00  0.00    +0.000 C 
ATOM     11  O   UNL     1      47.011   0.160   6.718  0.00  0.00    +0.000 OA
ATOM     12  H   UNL     1      48.928   1.300   5.681  0.00  0.00    +0.000 HD
ATOM     13  H   UNL     1      48.642   2.852   6.387  0.00  0.00    +0.000 HD
ENDBRANCH   1  10
BRANCH   5  14
ATOM     14  C   UNL     1      43.541   4.960  10.948  0.00  0.00    +0.000 C 
BRANCH  14  15
ATOM     15  C   UNL     1      44.700   5.332  11.849  0.00  0.00    +0.000 A 
ATOM     16  C   UNL     1      44.968   4.488  12.938  0.00  0.00    +0.000 A 
ATOM     17  C   UNL     1      46.005   4.772  13.821  0.00  0.00    +0.000 A 
ATOM     18  C   UNL     1      46.800   5.898  13.619  0.00  0.00    +0.000 A 
ATOM     19  C   UNL     1      46.596   6.757  12.524  0.00  0.00    +0.000 A 
ATOM     20  C   UNL     1      45.520   6.459  11.660  0.00  0.00    +0.000 A 
BRANCH  19  21
ATOM     21  C   UNL     1      47.512   7.893  12.261  0.00  0.00    +0.000 A 
ATOM     22  C   UNL     1      48.859   7.673  11.934  0.00  0.00    +0.000 A 
ATOM     23  C   UNL     1      49.684   8.750  11.651  0.00  0.00    +0.000 A 
ATOM     24  N   UNL     1      49.272  10.032  11.664  0.00  0.00    +0.000 NA
ATOM     25  C   UNL     1      47.978  10.239  11.977  0.00  0.00    +0.000 A 
ATOM     26  C   UNL     1      47.080   9.225  12.283  0.00  0.00    +0.000 A 
ENDBRANCH  19  21
ENDBRANCH  14  15
ENDBRANCH   5  14
TORSDOF 4
ENDMDL
MODEL 2
REMARK VINA RESULT:    -8.086      2.186      3.187
REMARK INTER + INTRA:         -10.758
REMARK INTER:                  -9.978
REMARK INTRA:                  -0.779
REMARK UNBOUND:                -0.781
REMARK  Name = 
REMARK  4 active torsions:
REMARK  status: ('A' for Active; 'I' for Inactive)
REMARK    1  A    between atoms: C_2  and  C_4
REMARK    2  A    between atoms: N_8  and  C_9
REMARK    3  A    between atoms: C_9  and  C_10
REMARK    4  A    between atoms: C_14  and  C_15
REMARK                            x       y       z     vdW  Elec       q    Type
REMARK                         _______ _______ _______ _____ _____    ______ ____
ROOT
ATOM      1  C   UNL     1      46.247   2.015   7.937  0.00  0.00    +0.000 A 
ATOM      2  C   UNL     1      45.647   1.784   9.169  0.00  0.00    +0.000 A 
ATOM      3  C   UNL     1      44.846   2.776   9.734  0.00  0.00    +0.000 A 
ATOM      4  C   UNL     1      44.665   3.983   9.067  0.00  0.00    +0.000 A 
ATOM      5  N   UNL     1      43.818   4.975   9.496  0.00  0.00    +0.000 N 
ATOM      6  N   UNL     1      45.274   4.232   7.890  0.00  0.00    +0.000 NA
ATOM      7  C   UNL     1      46.056   3.258   7.353  0.00  0.00    +0.000 A 
ATOM      8  H   UNL     1      43.902   5.792   8.902  0.00  0.00    +0.000 HD
ENDROOT
BRANCH   1  10
ATOM      9  N   UNL     1      46.801  -0.311   7.536  0.00  0.00    +0.000 N 
ATOM     10  C   UNL     1      47.057   1.000   7.241  0.00  0.00    +0.000 C 
ATOM     11  O   UNL     1      47.895   1.311   6.402  0.00  0.00    +0.000 OA
ATOM     12  H   UNL     1      47.278  -1.001   6.970  0.00  0.00    +0.000 HD
ATOM     13  H   UNL     1      45.959  -0.605   8.015  0.00  0.00    +0.000 HD
ENDBRANCH   1  10
BRANCH   5  14
ATOM     14  C   UNL     1      43.482   5.216  10.881  0.00  0.00    +0.000 C 
BRANCH  14  15
ATOM     15  C   UNL     1      44.505   6.008  11.667  0.00  0.00    +0.000 A 
ATOM     16  C   UNL     1      44.577   7.389  11.425  0.00  0.00    +0.000 A 
ATOM     17  C   UNL     1      45.502   8.183  12.095  0.00  0.00    +0.000 A 
ATOM     18  C   UNL     1      46.361   7.609  13.031  0.00  0.00    +0.000 A 
ATOM     19  C   UNL     1      46.305   6.237  13.336  0.00  0.00    +0.000 A 
ATOM     20  C   UNL     1      45.376   5.452  12.621  0.00  0.00    +0.000 A 
BRANCH  19  21
ATOM     21  C   UNL     1      47.152   5.656  14.407  0.00  0.00    +0.000 A 
ATOM     22  C   UNL     1      48.214   6.386  14.962  0.00  0.00    +0.000 A 
ATOM     23  C   UNL     1      48.963   5.837  15.991  0.00  0.00    +0.000 A 
ATOM     24  N   UNL     1      48.737   4.617  16.514  0.00  0.00    +0.000 NA
ATOM     25  C   UNL     1      47.714   3.920  15.980  0.00  0.00    +0.000 A 
ATOM     26  C   UNL     1      46.915   4.383  14.942  0.00  0.00    +0.000 A 
ENDBRANCH  19  21
ENDBRANCH  14  15
ENDBRANCH   5  14
TORSDOF 4
ENDMDL
MODEL 3
REMARK VINA RESULT:    -8.078      2.413      3.180
REMARK INTER + INTRA:         -10.748
REMARK INTER:                 -10.114
REMARK INTRA:                  -0.634
REMARK UNBOUND:                -0.781
REMARK  Name = 
REMARK  4 active torsions:
REMARK  status: ('A' for Active; 'I' for Inactive)
REMARK    1  A    between atoms: C_2  and  C_4
REMARK    2  A    between atoms: N_8  and  C_9
REMARK    3  A    between atoms: C_9  and  C_10
REMARK    4  A    between atoms: C_14  and  C_15
REMARK                            x       y       z     vdW  Elec       q    Type
REMARK                         _______ _______ _______ _____ _____    ______ ____
ROOT
ATOM      1  C   UNL     1      46.743   2.455   7.092  0.00  0.00    +0.000 A 
ATOM      2  C   UNL     1      46.368   3.668   7.658  0.00  0.00    +0.000 A 
ATOM      3  C   UNL     1      45.585   3.666   8.812  0.00  0.00    +0.000 A 
ATOM      4  C   UNL     1      45.181   2.460   9.374  0.00  0.00    +0.000 A 
ATOM      5  N   UNL     1      44.495   2.360  10.559  0.00  0.00    +0.000 N 
ATOM      6  N   UNL     1      45.507   1.280   8.809  0.00  0.00    +0.000 NA
ATOM      7  C   UNL     1      46.267   1.295   7.683  0.00  0.00    +0.000 A 
ATOM      8  H   UNL     1      44.238   1.396  10.737  0.00  0.00    +0.000 HD
ENDROOT
BRANCH   1  10
ATOM      9  N   UNL     1      47.434   3.293   4.924  0.00  0.00    +0.000 N 
ATOM     10  C   UNL     1      47.620   2.364   5.910  0.00  0.00    +0.000 C 
ATOM     11  O   UNL     1      48.505   1.521   5.831  0.00  0.00    +0.000 OA
ATOM     12  H   UNL     1      48.114   3.296   4.174  0.00  0.00    +0.000 HD
ATOM     13  H   UNL     1      46.902   4.142   5.070  0.00  0.00    +0.000 HD
ENDBRANCH   1  10
BRANCH   5  14
ATOM     14  C   UNL     1      43.598   3.371  11.070  0.00  0.00    +0.000 C 
BRANCH  14  15
ATOM     15  C   UNL     1      44.269   4.582  11.682  0.00  0.00    +0.000 A 
ATOM     16  C   UNL     1      43.792   5.846  11.301  0.00  0.00    +0.000 A 
ATOM     17  C   UNL     1      44.367   7.007  11.808  0.00  0.00    +0.000 A 
ATOM     18  C   UNL     1      45.421   6.921  12.716  0.00  0.00    +0.000 A 
ATOM     19  C   UNL     1      45.913   5.679  13.157  0.00  0.00    +0.000 A 
ATOM     20  C   UNL     1      45.329   4.519  12.606  0.00  0.00    +0.000 A 
BRANCH  19  21
ATOM     21  C   UNL     1      46.964   5.599  14.200  0.00  0.00    +0.000 A 
ATOM     22  C   UNL     1      47.948   6.594  14.310  0.00  0.00    +0.000 A 
ATOM     23  C   UNL     1      48.894   6.517  15.320  0.00  0.00    +0.000 A 
ATOM     24  N   UNL     1      48.936   5.529  16.233  0.00  0.00    +0.000 NA
ATOM     25  C   UNL     1      47.989   4.577  16.126  0.00  0.00    +0.000 A 
ATOM     26  C   UNL     1      47.007   4.564  15.143  0.00  0.00    +0.000 A 
ENDBRANCH  19  21
ENDBRANCH  14  15
ENDBRANCH   5  14
TORSDOF 4
ENDMDL
MODEL 4
REMARK VINA RESULT:    -7.378      1.706      2.532
REMARK INTER + INTRA:          -9.885
REMARK INTER:                  -9.255
REMARK INTRA:                  -0.630
REMARK UNBOUND:                -0.781
REMARK  Name = 
REMARK  4 active torsions:
REMARK  status: ('A' for Active; 'I' for Inactive)
REMARK    1  A    between atoms: C_2  and  C_4
REMARK    2  A    between atoms: N_8  and  C_9
REMARK    3  A    between atoms: C_9  and  C_10
REMARK    4  A    between atoms: C_14  and  C_15
REMARK                            x       y       z     vdW  Elec       q    Type
REMARK                         _______ _______ _______ _____ _____    ______ ____
ROOT
ATOM      1  C   UNL     1      46.391   2.674   7.544  0.00  0.00    +0.000 A 
ATOM      2  C   UNL     1      46.226   4.031   7.794  0.00  0.00    +0.000 A 
ATOM      3  C   UNL     1      45.451   4.434   8.880  0.00  0.00    +0.000 A 
ATOM      4  C   UNL     1      44.845   3.481   9.691  0.00  0.00    +0.000 A 
ATOM      5  N   UNL     1      44.148   3.780  10.835  0.00  0.00    +0.000 N 
ATOM      6  N   UNL     1      44.967   2.162   9.434  0.00  0.00    +0.000 NA
ATOM      7  C   UNL     1      45.722   1.783   8.369  0.00  0.00    +0.000 A 
ATOM      8  H   UNL     1      43.730   2.942  11.223  0.00  0.00    +0.000 HD
ENDROOT
BRANCH   1  10
ATOM      9  N   UNL     1      47.312   2.908   5.314  0.00  0.00    +0.000 N 
ATOM     10  C   UNL     1      47.243   2.160   6.457  0.00  0.00    +0.000 C 
ATOM     11  O   UNL     1      47.896   1.131   6.584  0.00  0.00    +0.000 OA
ATOM     12  H   UNL     1      47.988   2.611   4.621  0.00  0.00    +0.000 HD
ATOM     13  H   UNL     1      47.002   3.871   5.275  0.00  0.00    +0.000 HD
ENDBRANCH   1  10
BRANCH   5  14
ATOM     14  C   UNL     1      43.435   5.018  11.054  0.00  0.00    +0.000 C 
BRANCH  14  15
ATOM     15  C   UNL     1      44.295   6.199  11.452  0.00  0.00    +0.000 A 
ATOM     16  C   UNL     1      43.828   7.479  11.114  0.00  0.00    +0.000 A 
ATOM     17  C   UNL     1      44.569   8.613  11.431  0.00  0.00    +0.000 A 
ATOM     18  C   UNL     1      45.783   8.485  12.103  0.00  0.00    +0.000 A 
ATOM     19  C   UNL     1      46.278   7.228  12.495  0.00  0.00    +0.000 A 
ATOM     20  C   UNL     1      45.519   6.093  12.137  0.00  0.00    +0.000 A 
BRANCH  19  21
ATOM     21  C   UNL     1      47.518   7.110  13.301  0.00  0.00    +0.000 A 
ATOM     22  C   UNL     1      48.649   7.884  12.999  0.00  0.00    +0.000 A 
ATOM     23  C   UNL     1      49.781   7.786  13.793  0.00  0.00    +0.000 A 
ATOM     24  N   UNL     1      49.875   6.981  14.867  0.00  0.00    +0.000 NA
ATOM     25  C   UNL     1      48.786   6.241  15.155  0.00  0.00    +0.000 A 
ATOM     26  C   UNL     1      47.612   6.265  14.413  0.00  0.00    +0.000 A 
ENDBRANCH  19  21
ENDBRANCH  14  15
ENDBRANCH   5  14
TORSDOF 4
ENDMDL
MODEL 5
REMARK VINA RESULT:    -7.327      2.963      7.081
REMARK INTER + INTRA:          -9.821
REMARK INTER:                  -9.200
REMARK INTRA:                  -0.621
REMARK UNBOUND:                -0.781
REMARK  Name = 
REMARK  4 active torsions:
REMARK  status: ('A' for Active; 'I' for Inactive)
REMARK    1  A    between atoms: C_2  and  C_4
REMARK    2  A    between atoms: N_8  and  C_9
REMARK    3  A    between atoms: C_9  and  C_10
REMARK    4  A    between atoms: C_14  and  C_15
REMARK                            x       y       z     vdW  Elec       q    Type
REMARK                         _______ _______ _______ _____ _____    ______ ____
ROOT
ATOM      1  C   UNL     1      48.287   6.736  14.342  0.00  0.00    +0.000 A 
ATOM      2  C   UNL     1      47.413   5.681  14.112  0.00  0.00    +0.000 A 
ATOM      3  C   UNL     1      46.403   5.828  13.161  0.00  0.00    +0.000 A 
ATOM      4  C   UNL     1      46.276   7.025  12.465  0.00  0.00    +0.000 A 
ATOM      5  N   UNL     1      45.379   7.226  11.445  0.00  0.00    +0.000 N 
ATOM      6  N   UNL     1      47.096   8.068  12.709  0.00  0.00    +0.000 NA
ATOM      7  C   UNL     1      48.072   7.913  13.641  0.00  0.00    +0.000 A 
ATOM      8  H   UNL     1      45.407   8.191  11.136  0.00  0.00    +0.000 HD
ENDROOT
BRANCH   1  10
ATOM      9  N   UNL     1      50.428   7.555  15.132  0.00  0.00    +0.000 N 
ATOM     10  C   UNL     1      49.419   6.644  15.282  0.00  0.00    +0.000 C 
ATOM     11  O   UNL     1      49.437   5.818  16.186  0.00  0.00    +0.000 OA
ATOM     12  H   UNL     1      51.141   7.560  15.851  0.00  0.00    +0.000 HD
ATOM     13  H   UNL     1      50.324   8.395  14.577  0.00  0.00    +0.000 HD
ENDBRANCH   1  10
BRANCH   5  14
ATOM     14  C   UNL     1      44.107   6.550  11.334  0.00  0.00    +0.000 C 
BRANCH  14  15
ATOM     15  C   UNL     1      44.180   5.097  10.914  0.00  0.00    +0.000 A 
ATOM     16  C   UNL     1      43.369   4.184  11.606  0.00  0.00    +0.000 A 
ATOM     17  C   UNL     1      43.392   2.829  11.289  0.00  0.00    +0.000 A 
ATOM     18  C   UNL     1      44.218   2.369  10.265  0.00  0.00    +0.000 A 
ATOM     19  C   UNL     1      45.023   3.248   9.518  0.00  0.00    +0.000 A 
ATOM     20  C   UNL     1      45.000   4.612   9.879  0.00  0.00    +0.000 A 
BRANCH  19  21
ATOM     21  C   UNL     1      45.818   2.763   8.364  0.00  0.00    +0.000 A 
ATOM     22  C   UNL     1      46.236   1.425   8.287  0.00  0.00    +0.000 A 
ATOM     23  C   UNL     1      46.941   0.987   7.177  0.00  0.00    +0.000 A 
ATOM     24  N   UNL     1      47.262   1.776   6.135  0.00  0.00    +0.000 NA
ATOM     25  C   UNL     1      46.858   3.059   6.211  0.00  0.00    +0.000 A 
ATOM     26  C   UNL     1      46.155   3.591   7.285  0.00  0.00    +0.000 A 
ENDBRANCH  19  21
ENDBRANCH  14  15
ENDBRANCH   5  14
TORSDOF 4
ENDMDL
MODEL 6
REMARK VINA RESULT:    -7.235      3.026      7.225
REMARK INTER + INTRA:          -9.707
REMARK INTER:                  -9.012
REMARK INTRA:                  -0.695
REMARK UNBOUND:                -0.781
REMARK  Name = 
REMARK  4 active torsions:
REMARK  status: ('A' for Active; 'I' for Inactive)
REMARK    1  A    between atoms: C_2  and  C_4
REMARK    2  A    between atoms: N_8  and  C_9
REMARK    3  A    between atoms: C_9  and  C_10
REMARK    4  A    between atoms: C_14  and  C_15
REMARK                            x       y       z     vdW  Elec       q    Type
REMARK                         _______ _______ _______ _____ _____    ______ ____
ROOT
ATOM      1  C   UNL     1      49.231   7.809  13.095  0.00  0.00    +0.000 A 
ATOM      2  C   UNL     1      48.625   8.151  11.892  0.00  0.00    +0.000 A 
ATOM      3  C   UNL     1      47.291   7.801  11.678  0.00  0.00    +0.000 A 
ATOM      4  C   UNL     1      46.590   7.109  12.660  0.00  0.00    +0.000 A 
ATOM      5  N   UNL     1      45.253   6.811  12.579  0.00  0.00    +0.000 N 
ATOM      6  N   UNL     1      47.182   6.739  13.814  0.00  0.00    +0.000 NA
ATOM      7  C   UNL     1      48.482   7.083  14.008  0.00  0.00    +0.000 A 
ATOM      8  H   UNL     1      44.971   6.238  13.366  0.00  0.00    +0.000 HD
ENDROOT
BRANCH   1  10
ATOM      9  N   UNL     1      51.196   7.564  14.494  0.00  0.00    +0.000 N 
ATOM     10  C   UNL     1      50.614   8.193  13.428  0.00  0.00    +0.000 C 
ATOM     11  O   UNL     1      51.234   9.009  12.756  0.00  0.00    +0.000 OA
ATOM     12  H   UNL     1      52.180   7.746  14.643  0.00  0.00    +0.000 HD
ATOM     13  H   UNL     1      50.814   6.717  14.899  0.00  0.00    +0.000 HD
ENDBRANCH   1  10
BRANCH   5  14
ATOM     14  C   UNL     1      44.539   6.602  11.340  0.00  0.00    +0.000 C 
BRANCH  14  15
ATOM     15  C   UNL     1      44.447   5.163  10.880  0.00  0.00    +0.000 A 
ATOM     16  C   UNL     1      43.530   4.331  11.541  0.00  0.00    +0.000 A 
ATOM     17  C   UNL     1      43.399   2.992  11.188  0.00  0.00    +0.000 A 
ATOM     18  C   UNL     1      44.175   2.467  10.156  0.00  0.00    +0.000 A 
ATOM     19  C   UNL     1      45.083   3.266   9.438  0.00  0.00    +0.000 A 
ATOM     20  C   UNL     1      45.215   4.613   9.837  0.00  0.00    +0.000 A 
BRANCH  19  21
ATOM     21  C   UNL     1      45.828   2.723   8.276  0.00  0.00    +0.000 A 
ATOM     22  C   UNL     1      46.186   3.550   7.199  0.00  0.00    +0.000 A 
ATOM     23  C   UNL     1      46.918   3.028   6.145  0.00  0.00    +0.000 A 
ATOM     24  N   UNL     1      47.326   1.747   6.078  0.00  0.00    +0.000 NA
ATOM     25  C   UNL     1      46.983   0.957   7.115  0.00  0.00    +0.000 A 
ATOM     26  C   UNL     1      46.244   1.387   8.209  0.00  0.00    +0.000 A 
ENDBRANCH  19  21
ENDBRANCH  14  15
ENDBRANCH   5  14
TORSDOF 4
ENDMDL
MODEL 7
REMARK VINA RESULT:    -6.718      2.824      6.955
REMARK INTER + INTRA:          -9.070
REMARK INTER:                  -8.421
REMARK INTRA:                  -0.649
REMARK UNBOUND:                -0.781
REMARK  Name = 
REMARK  4 active torsions:
REMARK  status: ('A' for Active; 'I' for Inactive)
REMARK    1  A    between atoms: C_2  and  C_4
REMARK    2  A    between atoms: N_8  and  C_9
REMARK    3  A    between atoms: C_9  and  C_10
REMARK    4  A    between atoms: C_14  and  C_15
REMARK                            x       y       z     vdW  Elec       q    Type
REMARK                         _______ _______ _______ _____ _____    ______ ____
ROOT
ATOM      1  C   UNL     1      48.476   8.505  12.061  0.00  0.00    +0.000 A 
ATOM      2  C   UNL     1      47.109   8.502  12.312  0.00  0.00    +0.000 A 
ATOM      3  C   UNL     1      46.528   7.376  12.897  0.00  0.00    +0.000 A 
ATOM      4  C   UNL     1      47.314   6.273  13.209  0.00  0.00    +0.000 A 
ATOM      5  N   UNL     1      46.849   5.165  13.873  0.00  0.00    +0.000 N 
ATOM      6  N   UNL     1      48.634   6.253  12.932  0.00  0.00    +0.000 NA
ATOM      7  C   UNL     1      49.187   7.354  12.360  0.00  0.00    +0.000 A 
ATOM      8  H   UNL     1      47.572   4.456  13.924  0.00  0.00    +0.000 HD
ENDROOT
BRANCH   1  10
ATOM      9  N   UNL     1      48.464  10.831  11.376  0.00  0.00    +0.000 N 
ATOM     10  C   UNL     1      49.181   9.674  11.505  0.00  0.00    +0.000 C 
ATOM     11  O   UNL     1      50.370   9.626  11.210  0.00  0.00    +0.000 OA
ATOM     12  H   UNL     1      48.984  11.656  11.105  0.00  0.00    +0.000 HD
ATOM     13  H   UNL     1      47.577  10.975  11.842  0.00  0.00    +0.000 HD
ENDBRANCH   1  10
BRANCH   5  14
ATOM     14  C   UNL     1      45.485   4.693  13.814  0.00  0.00    +0.000 C 
BRANCH  14  15
ATOM     15  C   UNL     1      44.890   4.603  12.424  0.00  0.00    +0.000 A 
ATOM     16  C   UNL     1      43.681   5.279  12.195  0.00  0.00    +0.000 A 
ATOM     17  C   UNL     1      43.064   5.231  10.950  0.00  0.00    +0.000 A 
ATOM     18  C   UNL     1      43.653   4.516   9.908  0.00  0.00    +0.000 A 
ATOM     19  C   UNL     1      44.881   3.851  10.076  0.00  0.00    +0.000 A 
ATOM     20  C   UNL     1      45.472   3.894  11.357  0.00  0.00    +0.000 A 
BRANCH  19  21
ATOM     21  C   UNL     1      45.551   3.181   8.935  0.00  0.00    +0.000 A 
ATOM     22  C   UNL     1      46.050   3.925   7.854  0.00  0.00    +0.000 A 
ATOM     23  C   UNL     1      46.710   3.278   6.820  0.00  0.00    +0.000 A 
ATOM     24  N   UNL     1      46.915   1.949   6.778  0.00  0.00    +0.000 NA
ATOM     25  C   UNL     1      46.435   1.238   7.818  0.00  0.00    +0.000 A 
ATOM     26  C   UNL     1      45.755   1.796   8.893  0.00  0.00    +0.000 A 
ENDBRANCH  19  21
ENDBRANCH  14  15
ENDBRANCH   5  14
TORSDOF 4
ENDMDL
MODEL 8
REMARK VINA RESULT:    -6.628      5.752      7.431
REMARK INTER + INTRA:          -8.959
REMARK INTER:                  -8.334
REMARK INTRA:                  -0.625
REMARK UNBOUND:                -0.781
REMARK  Name = 
REMARK  4 active torsions:
REMARK  status: ('A' for Active; 'I' for Inactive)
REMARK    1  A    between atoms: C_2  and  C_4
REMARK    2  A    between atoms: N_8  and  C_9
REMARK    3  A    between atoms: C_9  and  C_10
REMARK    4  A    between atoms: C_14  and  C_15
REMARK                            x       y       z     vdW  Elec       q    Type
REMARK                         _______ _______ _______ _____ _____    ______ ____
ROOT
ATOM      1  C   UNL     1      45.568   4.811  11.459  0.00  0.00    +0.000 A 
ATOM      2  C   UNL     1      46.107   5.795  12.279  0.00  0.00    +0.000 A 
ATOM      3  C   UNL     1      46.586   5.441  13.541  0.00  0.00    +0.000 A 
ATOM      4  C   UNL     1      46.510   4.119  13.965  0.00  0.00    +0.000 A 
ATOM      5  N   UNL     1      47.043   3.662  15.145  0.00  0.00    +0.000 N 
ATOM      6  N   UNL     1      45.953   3.165  13.191  0.00  0.00    +0.000 NA
ATOM      7  C   UNL     1      45.486   3.524  11.966  0.00  0.00    +0.000 A 
ATOM      8  H   UNL     1      46.804   2.687  15.286  0.00  0.00    +0.000 HD
ENDROOT
BRANCH   1  10
ATOM      9  N   UNL     1      43.747   5.029   9.873  0.00  0.00    +0.000 N 
ATOM     10  C   UNL     1      45.096   5.086  10.089  0.00  0.00    +0.000 C 
ATOM     11  O   UNL     1      45.872   5.394   9.193  0.00  0.00    +0.000 OA
ATOM     12  H   UNL     1      43.423   5.333   8.963  0.00  0.00    +0.000 HD
ATOM     13  H   UNL     1      43.074   5.036  10.629  0.00  0.00    +0.000 HD
ENDBRANCH   1  10
BRANCH   5  14
ATOM     14  C   UNL     1      47.198   4.467  16.335  0.00  0.00    +0.000 C 
BRANCH  14  15
ATOM     15  C   UNL     1      48.627   4.723  16.763  0.00  0.00    +0.000 A 
ATOM     16  C   UNL     1      49.040   6.061  16.868  0.00  0.00    +0.000 A 
ATOM     17  C   UNL     1      50.342   6.377  17.240  0.00  0.00    +0.000 A 
ATOM     18  C   UNL     1      51.250   5.359  17.525  0.00  0.00    +0.000 A 
ATOM     19  C   UNL     1      50.878   4.004  17.469  0.00  0.00    +0.000 A 
ATOM     20  C   UNL     1      49.558   3.712  17.063  0.00  0.00    +0.000 A 
BRANCH  19  21
ATOM     21  C   UNL     1      51.821   2.933  17.874  0.00  0.00    +0.000 A 
ATOM     22  C   UNL     1      51.603   1.599  17.495  0.00  0.00    +0.000 A 
ATOM     23  C   UNL     1      52.522   0.624  17.851  0.00  0.00    +0.000 A 
ATOM     24  N   UNL     1      53.643   0.873  18.553  0.00  0.00    +0.000 NA
ATOM     25  C   UNL     1      53.849   2.155  18.914  0.00  0.00    +0.000 A 
ATOM     26  C   UNL     1      52.982   3.197  18.611  0.00  0.00    +0.000 A 
ENDBRANCH  19  21
ENDBRANCH  14  15
ENDBRANCH   5  14
TORSDOF 4
ENDMDL
MODEL 9
REMARK VINA RESULT:    -6.387      5.937      8.552
REMARK INTER + INTRA:          -8.661
REMARK INTER:                  -8.041
REMARK INTRA:                  -0.620
REMARK UNBOUND:                -0.781
REMARK  Name = 
REMARK  4 active torsions:
REMARK  status: ('A' for Active; 'I' for Inactive)
REMARK    1  A    between atoms: C_2  and  C_4
REMARK    2  A    between atoms: N_8  and  C_9
REMARK    3  A    between atoms: C_9  and  C_10
REMARK    4  A    between atoms: C_14  and  C_15
REMARK                            x       y       z     vdW  Elec       q    Type
REMARK                         _______ _______ _______ _____ _____    ______ ____
ROOT
ATOM      1  C   UNL     1      52.076   2.139  17.773  0.00  0.00    +0.000 A 
ATOM      2  C   UNL     1      51.688   3.412  18.175  0.00  0.00    +0.000 A 
ATOM      3  C   UNL     1      50.417   3.875  17.834  0.00  0.00    +0.000 A 
ATOM      4  C   UNL     1      49.561   3.068  17.092  0.00  0.00    +0.000 A 
ATOM      5  N   UNL     1      48.262   3.399  16.796  0.00  0.00    +0.000 N 
ATOM      6  N   UNL     1      49.944   1.848  16.664  0.00  0.00    +0.000 NA
ATOM      7  C   UNL     1      51.186   1.410  17.000  0.00  0.00    +0.000 A 
ATOM      8  H   UNL     1      47.852   2.704  16.183  0.00  0.00    +0.000 HD
ENDROOT
BRANCH   1  10
ATOM      9  N   UNL     1      54.474   2.357  18.056  0.00  0.00    +0.000 N 
ATOM     10  C   UNL     1      53.375   1.548  18.141  0.00  0.00    +0.000 C 
ATOM     11  O   UNL     1      53.464   0.396  18.549  0.00  0.00    +0.000 OA
ATOM     12  H   UNL     1      55.340   1.981  18.421  0.00  0.00    +0.000 HD
ATOM     13  H   UNL     1      54.403   3.364  17.977  0.00  0.00    +0.000 HD
ENDBRANCH   1  10
BRANCH   5  14
ATOM     14  C   UNL     1      47.779   4.753  16.650  0.00  0.00    +0.000 C 
BRANCH  14  15
ATOM     15  C   UNL     1      47.534   5.203  15.226  0.00  0.00    +0.000 A 
ATOM     16  C   UNL     1      48.360   6.219  14.719  0.00  0.00    +0.000 A 
ATOM     17  C   UNL     1      48.186   6.698  13.424  0.00  0.00    +0.000 A 
ATOM     18  C   UNL     1      47.192   6.158  12.611  0.00  0.00    +0.000 A 
ATOM     19  C   UNL     1      46.362   5.115  13.058  0.00  0.00    +0.000 A 
ATOM     20  C   UNL     1      46.542   4.667  14.384  0.00  0.00    +0.000 A 
BRANCH  19  21
ATOM     21  C   UNL     1      45.377   4.477  12.151  0.00  0.00    +0.000 A 
ATOM     22  C   UNL     1      44.448   3.543  12.636  0.00  0.00    +0.000 A 
ATOM     23  C   UNL     1      43.511   2.994  11.775  0.00  0.00    +0.000 A 
ATOM     24  N   UNL     1      43.422   3.303  10.468  0.00  0.00    +0.000 NA
ATOM     25  C   UNL     1      44.314   4.202  10.006  0.00  0.00    +0.000 A 
ATOM     26  C   UNL     1      45.294   4.798  10.790  0.00  0.00    +0.000 A 
ENDBRANCH  19  21
ENDBRANCH  14  15
ENDBRANCH   5  14
TORSDOF 4
ENDMDL
