MODEL 1
REMARK VINA RESULT:    -7.800      0.000      0.000
REMARK INTER + INTRA:         -11.721
REMARK INTER:                 -10.764
REMARK INTRA:                  -0.957
REMARK UNBOUND:                -0.957
REMARK  Name = 
REMARK  7 active torsions:
REMARK  status: ('A' for Active; 'I' for Inactive)
REMARK    1  A    between atoms: C_2  and  C_19
REMARK    2  A    between atoms: N_3  and  C_4
REMARK    3  A    between atoms: C_4  and  C_5
REMARK    4  A    between atoms: C_8  and  C_9
REMARK    5  A    between atoms: C_9  and  O_10
REMARK    6  A    between atoms: C_9  and  C_11
REMARK    7  A    between atoms: C_11  and  C_12
REMARK                            x       y       z     vdW  Elec       q    Type
REMARK                         _______ _______ _______ _____ _____    ______ ____
ROOT
ATOM      1  C   UNL     1      46.075   4.762  14.688  0.00  0.00    +0.000 C 
ENDROOT
BRANCH   1   2
ATOM      2  C   UNL     1      45.664   4.525  13.245  0.00  0.00    +0.000 A 
ATOM      3  N   UNL     1      45.354   3.264  12.874  0.00  0.00    +0.000 NA
ATOM      4  C   UNL     1      45.044   3.080  11.570  0.00  0.00    +0.000 A 
ATOM      5  C   UNL     1      45.069   4.079  10.615  0.00  0.00    +0.000 A 
ATOM      6  C   UNL     1      45.434   5.315  11.105  0.00  0.00    +0.000 A 
ATOM      7  N   UNL     1      45.736   5.564  12.395  0.00  0.00    +0.000 NA
BRANCH   5   8
ATOM      8  C   UNL     1      44.679   3.813   9.188  0.00  0.00    +0.000 C 
BRANCH   8   9
ATOM      9  O   UNL     1      43.520   4.610   8.904  0.00  0.00    +0.000 OA
ATOM     10  H   UNL     1      43.675   5.083   8.069  0.00  0.00    +0.000 HD
ENDBRANCH   8   9
BRANCH   8  11
ATOM     11  C   UNL     1      45.750   4.093   8.117  0.00  0.00    +0.000 C 
BRANCH  11  12
ATOM     12  C   UNL     1      46.500   2.877   7.709  0.00  0.00    +0.000 A 
ATOM     13  C   UNL     1      47.607   2.768   6.894  0.00  0.00    +0.000 A 
ATOM     14  N   UNL     1      47.894   1.432   6.855  0.00  0.00    +0.000 N 
ATOM     15  C   UNL     1      46.968   0.790   7.626  0.00  0.00    +0.000 A 
ATOM     16  N   UNL     1      46.114   1.636   8.155  0.00  0.00    +0.000 NA
ATOM     17  H   UNL     1      48.651   0.992   6.350  0.00  0.00    +0.000 HD
ENDBRANCH  11  12
ENDBRANCH   8  11
ENDBRANCH   5   8
ENDBRANCH   1   2
BRANCH   1  20
ATOM     18  O   UNL     1      46.521   3.339  17.132  0.00  0.00    +0.000 OA
ATOM     19  C   UNL     1      47.408   3.444  16.296  0.00  0.00    +0.000 C 
ATOM     20  N   UNL     1      47.229   3.963  15.033  0.00  0.00    +0.000 N 
ATOM     21  H   UNL     1      48.060   4.192  14.508  0.00  0.00    +0.000 HD
BRANCH  19  22
ATOM     22  C   UNL     1      48.807   3.197  16.593  0.00  0.00    +0.000 A 
ATOM     23  C   UNL     1      49.383   1.941  16.497  0.00  0.00    +0.000 A 
ATOM     24  S   UNL     1      50.853   1.849  17.378  0.00  0.00    +0.000 S 
ATOM     25  C   UNL     1      50.787   3.508  17.770  0.00  0.00    +0.000 A 
ATOM     26  N   UNL     1      51.665   4.092  18.629  0.00  0.00    +0.000 NA
ATOM     27  C   UNL     1      51.494   5.366  18.771  0.00  0.00    +0.000 A 
ATOM     28  N   UNL     1      50.564   6.120  18.095  0.00  0.00    +0.000 N 
ATOM     29  C   UNL     1      49.671   5.578  17.203  0.00  0.00    +0.000 A 
ATOM     30  O   UNL     1      48.906   6.273  16.544  0.00  0.00    +0.000 OA
ATOM     31  C   UNL     1      49.745   4.135  17.122  0.00  0.00    +0.000 A 
ATOM     32  H   UNL     1      50.539   7.124  18.192  0.00  0.00    +0.000 HD
ENDBRANCH  19  22
ENDBRANCH   1  20
TORSDOF 7
ENDMDL
MODEL 2
REMARK VINA RESULT:    -7.583      1.974      2.656
REMARK INTER + INTRA:         -11.421
REMARK INTER:                 -10.476
REMARK INTRA:                  -0.945
REMARK UNBOUND:                -0.957
REMARK  Name = 
REMARK  7 active torsions:
REMARK  status: ('A' for Active; 'I' for Inactive)
REMARK    1  A    between atoms: C_2  and  C_19
REMARK    2  A    between atoms: N_3  and  C_4
REMARK    3  A    between atoms: C_4  and  C_5
REMARK    4  A    between atoms: C_8  and  C_9
REMARK    5  A    between atoms: C_9  and  O_10
REMARK    6  A    between atoms: C_9  and  C_11
REMARK    7  A    between atoms: C_11  and  C_12
REMARK                            x       y       z     vdW  Elec       q    Type
REMARK                         _______ _______ _______ _____ _____    ______ ____
ROOT
ATOM      1  C   UNL     1      44.819   4.663  13.699  0.00  0.00    +0.000 C 
ENDROOT
BRANCH   1   2
ATOM      2  C   UNL     1      44.963   4.468  12.200  0.00  0.00    +0.000 A 
ATOM      3  N   UNL     1      45.359   5.525  11.458  0.00  0.00    +0.000 NA
ATOM      4  C   UNL     1      45.425   5.330  10.121  0.00  0.00    +0.000 A 
ATOM      5  C   UNL     1      45.077   4.152   9.487  0.00  0.00    +0.000 A 
ATOM      6  C   UNL     1      44.654   3.158  10.344  0.00  0.00    +0.000 A 
ATOM      7  N   UNL     1      44.584   3.285  11.684  0.00  0.00    +0.000 NA
BRANCH   5   8
ATOM      8  C   UNL     1      45.207   3.991   7.999  0.00  0.00    +0.000 C 
BRANCH   8   9
ATOM      9  O   UNL     1      46.344   4.759   7.581  0.00  0.00    +0.000 OA
ATOM     10  H   UNL     1      47.083   4.556   8.181  0.00  0.00    +0.000 HD
ENDBRANCH   8   9
BRANCH   8  11
ATOM     11  C   UNL     1      45.356   2.552   7.471  0.00  0.00    +0.000 C 
BRANCH  11  12
ATOM     12  C   UNL     1      46.603   2.341   6.691  0.00  0.00    +0.000 A 
ATOM     13  C   UNL     1      47.754   1.673   7.051  0.00  0.00    +0.000 A 
ATOM     14  N   UNL     1      48.582   1.775   5.967  0.00  0.00    +0.000 N 
ATOM     15  C   UNL     1      47.921   2.493   5.011  0.00  0.00    +0.000 A 
ATOM     16  N   UNL     1      46.724   2.847   5.419  0.00  0.00    +0.000 NA
ATOM     17  H   UNL     1      49.514   1.393   5.881  0.00  0.00    +0.000 HD
ENDBRANCH  11  12
ENDBRANCH   8  11
ENDBRANCH   5   8
ENDBRANCH   1   2
BRANCH   1  20
ATOM     18  O   UNL     1      47.371   3.449  14.162  0.00  0.00    +0.000 OA
ATOM     19  C   UNL     1      47.130   4.576  14.571  0.00  0.00    +0.000 C 
ATOM     20  N   UNL     1      45.998   5.294  14.251  0.00  0.00    +0.000 N 
ATOM     21  H   UNL     1      45.804   6.117  14.802  0.00  0.00    +0.000 HD
BRANCH  19  22
ATOM     22  C   UNL     1      47.924   5.235  15.591  0.00  0.00    +0.000 A 
ATOM     23  C   UNL     1      48.638   6.397  15.351  0.00  0.00    +0.000 A 
ATOM     24  S   UNL     1      49.855   6.649  16.534  0.00  0.00    +0.000 S 
ATOM     25  C   UNL     1      49.343   5.291  17.431  0.00  0.00    +0.000 A 
ATOM     26  N   UNL     1      50.029   4.826  18.510  0.00  0.00    +0.000 NA
ATOM     27  C   UNL     1      49.469   3.818  19.095  0.00  0.00    +0.000 A 
ATOM     28  N   UNL     1      48.261   3.266  18.737  0.00  0.00    +0.000 N 
ATOM     29  C   UNL     1      47.523   3.716  17.669  0.00  0.00    +0.000 A 
ATOM     30  O   UNL     1      46.410   3.271  17.415  0.00  0.00    +0.000 OA
ATOM     31  C   UNL     1      48.186   4.755  16.910  0.00  0.00    +0.000 A 
ATOM     32  H   UNL     1      47.842   2.533  19.289  0.00  0.00    +0.000 HD
ENDBRANCH  19  22
ENDBRANCH   1  20
TORSDOF 7
ENDMDL
MODEL 3
REMARK VINA RESULT:    -7.578      2.534      3.357
REMARK INTER + INTRA:         -11.414
REMARK INTER:                 -10.407
REMARK INTRA:                  -1.007
REMARK UNBOUND:                -0.957
REMARK  Name = 
REMARK  7 active torsions:
REMARK  status: ('A' for Active; 'I' for Inactive)
REMARK    1  A    between atoms: C_2  and  C_19
REMARK    2  A    between atoms: N_3  and  C_4
REMARK    3  A    between atoms: C_4  and  C_5
REMARK    4  A    between atoms: C_8  and  C_9
REMARK    5  A    between atoms: C_9  and  O_10
REMARK    6  A    between atoms: C_9  and  C_11
REMARK    7  A    between atoms: C_11  and  C_12
REMARK                            x       y       z     vdW  Elec       q    Type
REMARK                         _______ _______ _______ _____ _____    ______ ____
ROOT
ATOM      1  C   UNL     1      47.149   4.218  15.053  0.00  0.00    +0.000 C 
ENDROOT
BRANCH   1   2
ATOM      2  C   UNL     1      46.527   4.353  13.674  0.00  0.00    +0.000 A 
ATOM      3  N   UNL     1      46.534   5.572  13.092  0.00  0.00    +0.000 NA
ATOM      4  C   UNL     1      45.925   5.667  11.888  0.00  0.00    +0.000 A 
ATOM      5  C   UNL     1      45.276   4.620  11.258  0.00  0.00    +0.000 A 
ATOM      6  C   UNL     1      45.305   3.437  11.964  0.00  0.00    +0.000 A 
ATOM      7  N   UNL     1      45.910   3.276  13.157  0.00  0.00    +0.000 NA
BRANCH   5   8
ATOM      8  C   UNL     1      44.649   4.785   9.902  0.00  0.00    +0.000 C 
BRANCH   8   9
ATOM      9  O   UNL     1      45.572   5.523   9.089  0.00  0.00    +0.000 OA
ATOM     10  H   UNL     1      46.215   5.956   9.677  0.00  0.00    +0.000 HD
ENDBRANCH   8   9
BRANCH   8  11
ATOM     11  C   UNL     1      44.256   3.494   9.162  0.00  0.00    +0.000 C 
BRANCH  11  12
ATOM     12  C   UNL     1      45.341   2.961   8.297  0.00  0.00    +0.000 A 
ATOM     13  C   UNL     1      46.056   1.789   8.417  0.00  0.00    +0.000 A 
ATOM     14  N   UNL     1      46.923   1.787   7.360  0.00  0.00    +0.000 N 
ATOM     15  C   UNL     1      46.713   2.938   6.655  0.00  0.00    +0.000 A 
ATOM     16  N   UNL     1      45.764   3.666   7.196  0.00  0.00    +0.000 NA
ATOM     17  H   UNL     1      47.599   1.070   7.135  0.00  0.00    +0.000 HD
ENDBRANCH  11  12
ENDBRANCH   8  11
ENDBRANCH   5   8
ENDBRANCH   1   2
BRANCH   1  20
ATOM     18  O   UNL     1      49.615   4.854  16.361  0.00  0.00    +0.000 OA
ATOM     19  C   UNL     1      48.705   5.670  16.308  0.00  0.00    +0.000 C 
ATOM     20  N   UNL     1      47.559   5.508  15.561  0.00  0.00    +0.000 N 
ATOM     21  H   UNL     1      46.794   6.138  15.751  0.00  0.00    +0.000 HD
BRANCH  19  22
ATOM     22  C   UNL     1      48.638   6.836  17.168  0.00  0.00    +0.000 A 
ATOM     23  C   UNL     1      49.259   8.034  16.857  0.00  0.00    +0.000 A 
ATOM     24  S   UNL     1      49.448   9.029  18.242  0.00  0.00    +0.000 S 
ATOM     25  C   UNL     1      48.585   7.929  19.219  0.00  0.00    +0.000 A 
ATOM     26  N   UNL     1      48.477   8.077  20.567  0.00  0.00    +0.000 NA
ATOM     27  C   UNL     1      47.748   7.175  21.139  0.00  0.00    +0.000 A 
ATOM     28  N   UNL     1      47.072   6.171  20.484  0.00  0.00    +0.000 N 
ATOM     29  C   UNL     1      47.135   5.996  19.123  0.00  0.00    +0.000 A 
ATOM     30  O   UNL     1      46.460   5.151  18.545  0.00  0.00    +0.000 OA
ATOM     31  C   UNL     1      48.051   6.905  18.468  0.00  0.00    +0.000 A 
ATOM     32  H   UNL     1      46.454   5.550  20.984  0.00  0.00    +0.000 HD
ENDBRANCH  19  22
ENDBRANCH   1  20
TORSDOF 7
ENDMDL
MODEL 4
REMARK VINA RESULT:    -7.481      1.748      2.830
REMARK INTER + INTRA:         -11.280
REMARK INTER:                 -10.527
REMARK INTRA:                  -0.753
REMARK UNBOUND:                -0.957
REMARK  Name = 
REMARK  7 active torsions:
REMARK  status: ('A' for Active; 'I' for Inactive)
REMARK    1  A    between atoms: C_2  and  C_19
REMARK    2  A    between atoms: N_3  and  C_4
REMARK    3  A    between atoms: C_4  and  C_5
REMARK    4  A    between atoms: C_8  and  C_9
REMARK    5  A    between atoms: C_9  and  O_10
REMARK    6  A    between atoms: C_9  and  C_11
REMARK    7  A    between atoms: C_11  and  C_12
REMARK                            x       y       z     vdW  Elec       q    Type
REMARK                         _______ _______ _______ _____ _____    ______ ____
ROOT
ATOM      1  C   UNL     1      47.668   7.058  13.791  0.00  0.00    +0.000 C 
ENDROOT
BRANCH   1   2
ATOM      2  C   UNL     1      46.795   6.128  12.967  0.00  0.00    +0.000 A 
ATOM      3  N   UNL     1      46.404   6.544  11.743  0.00  0.00    +0.000 NA
ATOM      4  C   UNL     1      45.583   5.713  11.059  0.00  0.00    +0.000 A 
ATOM      5  C   UNL     1      45.104   4.514  11.551  0.00  0.00    +0.000 A 
ATOM      6  C   UNL     1      45.543   4.213  12.823  0.00  0.00    +0.000 A 
ATOM      7  N   UNL     1      46.373   4.990  13.546  0.00  0.00    +0.000 NA
BRANCH   5   8
ATOM      8  C   UNL     1      44.222   3.620  10.724  0.00  0.00    +0.000 C 
BRANCH   8   9
ATOM      9  O   UNL     1      42.895   3.711  11.261  0.00  0.00    +0.000 OA
ATOM     10  H   UNL     1      42.382   2.954  10.929  0.00  0.00    +0.000 HD
ENDBRANCH   8   9
BRANCH   8  11
ATOM     11  C   UNL     1      44.169   3.912   9.213  0.00  0.00    +0.000 C 
BRANCH  11  12
ATOM     12  C   UNL     1      45.282   3.281   8.456  0.00  0.00    +0.000 A 
ATOM     13  C   UNL     1      45.755   1.988   8.517  0.00  0.00    +0.000 A 
ATOM     14  N   UNL     1      46.780   1.937   7.613  0.00  0.00    +0.000 N 
ATOM     15  C   UNL     1      46.896   3.178   7.054  0.00  0.00    +0.000 A 
ATOM     16  N   UNL     1      46.004   4.009   7.541  0.00  0.00    +0.000 NA
ATOM     17  H   UNL     1      47.353   1.134   7.395  0.00  0.00    +0.000 HD
ENDBRANCH  11  12
ENDBRANCH   8  11
ENDBRANCH   5   8
ENDBRANCH   1   2
BRANCH   1  20
ATOM     18  O   UNL     1      48.589   8.256  16.223  0.00  0.00    +0.000 OA
ATOM     19  C   UNL     1      48.746   7.062  16.014  0.00  0.00    +0.000 C 
ATOM     20  N   UNL     1      48.191   6.378  14.954  0.00  0.00    +0.000 N 
ATOM     21  H   UNL     1      48.551   5.454  14.763  0.00  0.00    +0.000 HD
BRANCH  19  22
ATOM     22  C   UNL     1      49.686   6.245  16.759  0.00  0.00    +0.000 A 
ATOM     23  C   UNL     1      50.932   6.706  17.152  0.00  0.00    +0.000 A 
ATOM     24  S   UNL     1      51.993   5.414  17.537  0.00  0.00    +0.000 S 
ATOM     25  C   UNL     1      50.758   4.258  17.312  0.00  0.00    +0.000 A 
ATOM     26  N   UNL     1      50.995   2.919  17.343  0.00  0.00    +0.000 NA
ATOM     27  C   UNL     1      49.934   2.193  17.200  0.00  0.00    +0.000 A 
ATOM     28  N   UNL     1      48.652   2.679  17.084  0.00  0.00    +0.000 N 
ATOM     29  C   UNL     1      48.363   4.022  17.069  0.00  0.00    +0.000 A 
ATOM     30  O   UNL     1      47.211   4.439  17.050  0.00  0.00    +0.000 OA
ATOM     31  C   UNL     1      49.541   4.864  17.090  0.00  0.00    +0.000 A 
ATOM     32  H   UNL     1      47.861   2.055  17.058  0.00  0.00    +0.000 HD
ENDBRANCH  19  22
ENDBRANCH   1  20
TORSDOF 7
ENDMDL
MODEL 5
REMARK VINA RESULT:    -7.376      2.264      2.812
REMARK INTER + INTRA:         -11.135
REMARK INTER:                 -10.034
REMARK INTRA:                  -1.101
REMARK UNBOUND:                -0.957
REMARK  Name = 
REMARK  7 active torsions:
REMARK  status: ('A' for Active; 'I' for Inactive)
REMARK    1  A    between atoms: C_2  and  C_19
REMARK    2  A    between atoms: N_3  and  C_4
REMARK    3  A    between atoms: C_4  and  C_5
REMARK    4  A    between atoms: C_8  and  C_9
REMARK    5  A    between atoms: C_9  and  O_10
REMARK    6  A    between atoms: C_9  and  C_11
REMARK    7  A    between atoms: C_11  and  C_12
REMARK                            x       y       z     vdW  Elec       q    Type
REMARK                         _______ _______ _______ _____ _____    ______ ____
ROOT
ATOM      1  C   UNL     1      45.049   4.616  13.901  0.00  0.00    +0.000 C 
ENDROOT
BRANCH   1   2
ATOM      2  C   UNL     1      45.144   4.473  12.393  0.00  0.00    +0.000 A 
ATOM      3  N   UNL     1      45.321   5.594  11.660  0.00  0.00    +0.000 NA
ATOM      4  C   UNL     1      45.348   5.435  10.316  0.00  0.00    +0.000 A 
ATOM      5  C   UNL     1      45.167   4.227   9.670  0.00  0.00    +0.000 A 
ATOM      6  C   UNL     1      44.960   3.162  10.520  0.00  0.00    +0.000 A 
ATOM      7  N   UNL     1      44.940   3.253  11.865  0.00  0.00    +0.000 NA
BRANCH   5   8
ATOM      8  C   UNL     1      45.244   4.115   8.174  0.00  0.00    +0.000 C 
BRANCH   8   9
ATOM      9  O   UNL     1      46.415   4.827   7.750  0.00  0.00    +0.000 OA
ATOM     10  H   UNL     1      46.320   5.756   8.022  0.00  0.00    +0.000 HD
ENDBRANCH   8   9
BRANCH   8  11
ATOM     11  C   UNL     1      45.289   2.691   7.589  0.00  0.00    +0.000 C 
BRANCH  11  12
ATOM     12  C   UNL     1      46.524   2.416   6.810  0.00  0.00    +0.000 A 
ATOM     13  C   UNL     1      47.640   1.694   7.173  0.00  0.00    +0.000 A 
ATOM     14  N   UNL     1      48.472   1.750   6.089  0.00  0.00    +0.000 N 
ATOM     15  C   UNL     1      47.848   2.496   5.130  0.00  0.00    +0.000 A 
ATOM     16  N   UNL     1      46.669   2.910   5.536  0.00  0.00    +0.000 NA
ATOM     17  H   UNL     1      49.384   1.323   6.005  0.00  0.00    +0.000 HD
ENDBRANCH  11  12
ENDBRANCH   8  11
ENDBRANCH   5   8
ENDBRANCH   1   2
BRANCH   1  20
ATOM     18  O   UNL     1      47.360   3.154  14.749  0.00  0.00    +0.000 OA
ATOM     19  C   UNL     1      47.265   4.355  14.961  0.00  0.00    +0.000 C 
ATOM     20  N   UNL     1      46.273   5.160  14.445  0.00  0.00    +0.000 N 
ATOM     21  H   UNL     1      46.172   6.080  14.847  0.00  0.00    +0.000 HD
BRANCH  19  22
ATOM     22  C   UNL     1      48.087   5.054  15.931  0.00  0.00    +0.000 A 
ATOM     23  C   UNL     1      48.223   4.632  17.243  0.00  0.00    +0.000 A 
ATOM     24  S   UNL     1      48.803   5.889  18.256  0.00  0.00    +0.000 S 
ATOM     25  C   UNL     1      49.001   6.944  16.930  0.00  0.00    +0.000 A 
ATOM     26  N   UNL     1      49.337   8.253  17.081  0.00  0.00    +0.000 NA
ATOM     27  C   UNL     1      49.489   8.890  15.966  0.00  0.00    +0.000 A 
ATOM     28  N   UNL     1      49.390   8.328  14.714  0.00  0.00    +0.000 N 
ATOM     29  C   UNL     1      49.073   7.006  14.514  0.00  0.00    +0.000 A 
ATOM     30  O   UNL     1      49.072   6.500  13.397  0.00  0.00    +0.000 OA
ATOM     31  C   UNL     1      48.763   6.298  15.737  0.00  0.00    +0.000 A 
ATOM     32  H   UNL     1      49.602   8.864  13.886  0.00  0.00    +0.000 HD
ENDBRANCH  19  22
ENDBRANCH   1  20
TORSDOF 7
ENDMDL
MODEL 6
REMARK VINA RESULT:    -7.230      2.690      3.563
REMARK INTER + INTRA:         -10.934
REMARK INTER:                 -10.038
REMARK INTRA:                  -0.896
REMARK UNBOUND:                -0.957
REMARK  Name = 
REMARK  7 active torsions:
REMARK  status: ('A' for Active; 'I' for Inactive)
REMARK    1  A    between atoms: C_2  and  C_19
REMARK    2  A    between atoms: N_3  and  C_4
REMARK    3  A    between atoms: C_4  and  C_5
REMARK    4  A    between atoms: C_8  and  C_9
REMARK    5  A    between atoms: C_9  and  O_10
REMARK    6  A    between atoms: C_9  and  C_11
REMARK    7  A    between atoms: C_11  and  C_12
REMARK                            x       y       z     vdW  Elec       q    Type
REMARK                         _______ _______ _______ _____ _____    ______ ____
ROOT
ATOM      1  C   UNL     1      47.098   4.162  15.106  0.00  0.00    +0.000 C 
ENDROOT
BRANCH   1   2
ATOM      2  C   UNL     1      46.522   4.324  13.710  0.00  0.00    +0.000 A 
ATOM      3  N   UNL     1      46.591   5.544  13.134  0.00  0.00    +0.000 NA
ATOM      4  C   UNL     1      46.021   5.665  11.913  0.00  0.00    +0.000 A 
ATOM      5  C   UNL     1      45.354   4.646  11.260  0.00  0.00    +0.000 A 
ATOM      6  C   UNL     1      45.318   3.459  11.960  0.00  0.00    +0.000 A 
ATOM      7  N   UNL     1      45.882   3.272  13.170  0.00  0.00    +0.000 NA
BRANCH   5   8
ATOM      8  C   UNL     1      44.773   4.838   9.887  0.00  0.00    +0.000 C 
BRANCH   8   9
ATOM      9  O   UNL     1      45.750   5.536   9.102  0.00  0.00    +0.000 OA
ATOM     10  H   UNL     1      45.863   6.425   9.479  0.00  0.00    +0.000 HD
ENDBRANCH   8   9
BRANCH   8  11
ATOM     11  C   UNL     1      44.346   3.565   9.134  0.00  0.00    +0.000 C 
BRANCH  11  12
ATOM     12  C   UNL     1      45.416   3.012   8.266  0.00  0.00    +0.000 A 
ATOM     13  C   UNL     1      46.116   1.830   8.390  0.00  0.00    +0.000 A 
ATOM     14  N   UNL     1      46.975   1.809   7.326  0.00  0.00    +0.000 N 
ATOM     15  C   UNL     1      46.776   2.956   6.614  0.00  0.00    +0.000 A 
ATOM     16  N   UNL     1      45.841   3.702   7.156  0.00  0.00    +0.000 NA
ATOM     17  H   UNL     1      47.640   1.080   7.102  0.00  0.00    +0.000 HD
ENDBRANCH  11  12
ENDBRANCH   8  11
ENDBRANCH   5   8
ENDBRANCH   1   2
BRANCH   1  20
ATOM     18  O   UNL     1      49.391   4.544  16.777  0.00  0.00    +0.000 OA
ATOM     19  C   UNL     1      48.641   5.475  16.519  0.00  0.00    +0.000 C 
ATOM     20  N   UNL     1      47.619   5.418  15.597  0.00  0.00    +0.000 N 
ATOM     21  H   UNL     1      46.941   6.166  15.615  0.00  0.00    +0.000 HD
BRANCH  19  22
ATOM     22  C   UNL     1      48.621   6.710  17.281  0.00  0.00    +0.000 A 
ATOM     23  C   UNL     1      48.062   6.801  18.545  0.00  0.00    +0.000 A 
ATOM     24  S   UNL     1      47.720   8.428  18.970  0.00  0.00    +0.000 S 
ATOM     25  C   UNL     1      48.439   9.013  17.538  0.00  0.00    +0.000 A 
ATOM     26  N   UNL     1      48.383  10.322  17.173  0.00  0.00    +0.000 NA
ATOM     27  C   UNL     1      49.022  10.592  16.082  0.00  0.00    +0.000 A 
ATOM     28  N   UNL     1      49.757   9.689  15.351  0.00  0.00    +0.000 N 
ATOM     29  C   UNL     1      49.859   8.362  15.692  0.00  0.00    +0.000 A 
ATOM     30  O   UNL     1      50.586   7.587  15.080  0.00  0.00    +0.000 OA
ATOM     31  C   UNL     1      49.045   7.997  16.832  0.00  0.00    +0.000 A 
ATOM     32  H   UNL     1      50.300   9.985  14.554  0.00  0.00    +0.000 HD
ENDBRANCH  19  22
ENDBRANCH   1  20
TORSDOF 7
ENDMDL
MODEL 7
REMARK VINA RESULT:    -7.170      2.776      3.929
REMARK INTER + INTRA:         -10.851
REMARK INTER:                 -10.049
REMARK INTRA:                  -0.802
REMARK UNBOUND:                -0.957
REMARK  Name = 
REMARK  7 active torsions:
REMARK  status: ('A' for Active; 'I' for Inactive)
REMARK    1  A    between atoms: C_2  and  C_19
REMARK    2  A    between atoms: N_3  and  C_4
REMARK    3  A    between atoms: C_4  and  C_5
REMARK    4  A    between atoms: C_8  and  C_9
REMARK    5  A    between atoms: C_9  and  O_10
REMARK    6  A    between atoms: C_9  and  C_11
REMARK    7  A    between atoms: C_11  and  C_12
REMARK                            x       y       z     vdW  Elec       q    Type
REMARK                         _______ _______ _______ _____ _____    ______ ____
ROOT
ATOM      1  C   UNL     1      48.810   6.822  14.071  0.00  0.00    +0.000 C 
ENDROOT
BRANCH   1   2
ATOM      2  C   UNL     1      47.465   6.281  13.619  0.00  0.00    +0.000 A 
ATOM      3  N   UNL     1      46.535   7.165  13.198  0.00  0.00    +0.000 NA
ATOM      4  C   UNL     1      45.331   6.653  12.854  0.00  0.00    +0.000 A 
ATOM      5  C   UNL     1      44.998   5.314  12.948  0.00  0.00    +0.000 A 
ATOM      6  C   UNL     1      46.015   4.515  13.424  0.00  0.00    +0.000 A 
ATOM      7  N   UNL     1      47.239   4.963  13.765  0.00  0.00    +0.000 NA
BRANCH   5   8
ATOM      8  C   UNL     1      43.651   4.806  12.515  0.00  0.00    +0.000 C 
BRANCH   8   9
ATOM      9  O   UNL     1      42.660   5.529  13.259  0.00  0.00    +0.000 OA
ATOM     10  H   UNL     1      41.829   5.508  12.755  0.00  0.00    +0.000 HD
ENDBRANCH   8   9
BRANCH   8  11
ATOM     11  C   UNL     1      43.323   4.914  11.014  0.00  0.00    +0.000 C 
BRANCH  11  12
ATOM     12  C   UNL     1      44.024   3.897  10.188  0.00  0.00    +0.000 A 
ATOM     13  C   UNL     1      44.466   2.639  10.542  0.00  0.00    +0.000 A 
ATOM     14  N   UNL     1      45.034   2.127   9.409  0.00  0.00    +0.000 N 
ATOM     15  C   UNL     1      44.927   3.074   8.431  0.00  0.00    +0.000 A 
ATOM     16  N   UNL     1      44.321   4.152   8.871  0.00  0.00    +0.000 NA
ATOM     17  H   UNL     1      45.459   1.215   9.306  0.00  0.00    +0.000 HD
ENDBRANCH  11  12
ENDBRANCH   8  11
ENDBRANCH   5   8
ENDBRANCH   1   2
BRANCH   1  20
ATOM     18  O   UNL     1      50.487   6.052  16.259  0.00  0.00    +0.000 OA
ATOM     19  C   UNL     1      49.501   6.752  16.442  0.00  0.00    +0.000 C 
ATOM     20  N   UNL     1      48.741   7.302  15.433  0.00  0.00    +0.000 N 
ATOM     21  H   UNL     1      47.842   7.684  15.690  0.00  0.00    +0.000 HD
BRANCH  19  22
ATOM     22  C   UNL     1      48.900   6.947  17.748  0.00  0.00    +0.000 A 
ATOM     23  C   UNL     1      48.645   8.202  18.276  0.00  0.00    +0.000 A 
ATOM     24  S   UNL     1      48.431   8.142  19.977  0.00  0.00    +0.000 S 
ATOM     25  C   UNL     1      48.542   6.439  19.988  0.00  0.00    +0.000 A 
ATOM     26  N   UNL     1      48.581   5.716  21.139  0.00  0.00    +0.000 NA
ATOM     27  C   UNL     1      48.618   4.436  20.956  0.00  0.00    +0.000 A 
ATOM     28  N   UNL     1      48.564   3.810  19.732  0.00  0.00    +0.000 N 
ATOM     29  C   UNL     1      48.503   4.499  18.545  0.00  0.00    +0.000 A 
ATOM     30  O   UNL     1      48.369   3.928  17.468  0.00  0.00    +0.000 OA
ATOM     31  C   UNL     1      48.597   5.934  18.708  0.00  0.00    +0.000 A 
ATOM     32  H   UNL     1      48.514   2.805  19.665  0.00  0.00    +0.000 HD
ENDBRANCH  19  22
ENDBRANCH   1  20
TORSDOF 7
ENDMDL
MODEL 8
REMARK VINA RESULT:    -7.005      2.419      3.060
REMARK INTER + INTRA:         -10.624
REMARK INTER:                  -9.828
REMARK INTRA:                  -0.795
REMARK UNBOUND:                -0.957
REMARK  Name = 
REMARK  7 active torsions:
REMARK  status: ('A' for Active; 'I' for Inactive)
REMARK    1  A    between atoms: C_2  and  C_19
REMARK    2  A    between atoms: N_3  and  C_4
REMARK    3  A    between atoms: C_4  and  C_5
REMARK    4  A    between atoms: C_8  and  C_9
REMARK    5  A    between atoms: C_9  and  O_10
REMARK    6  A    between atoms: C_9  and  C_11
REMARK    7  A    between atoms: C_11  and  C_12
REMARK                            x       y       z     vdW  Elec       q    Type
REMARK                         _______ _______ _______ _____ _____    ______ ____
ROOT
ATOM      1  C   UNL     1      47.361   7.753  13.305  0.00  0.00    +0.000 C 
ENDROOT
BRANCH   1   2
ATOM      2  C   UNL     1      46.594   6.647  12.601  0.00  0.00    +0.000 A 
ATOM      3  N   UNL     1      46.156   6.880  11.344  0.00  0.00    +0.000 NA
ATOM      4  C   UNL     1      45.431   5.894  10.768  0.00  0.00    +0.000 A 
ATOM      5  C   UNL     1      45.088   4.711  11.395  0.00  0.00    +0.000 A 
ATOM      6  C   UNL     1      45.561   4.602  12.685  0.00  0.00    +0.000 A 
ATOM      7  N   UNL     1      46.303   5.540  13.306  0.00  0.00    +0.000 NA
BRANCH   5   8
ATOM      8  C   UNL     1      44.309   3.641  10.683  0.00  0.00    +0.000 C 
BRANCH   8   9
ATOM      9  O   UNL     1      42.991   3.620  11.250  0.00  0.00    +0.000 OA
ATOM     10  H   UNL     1      43.028   4.060  12.116  0.00  0.00    +0.000 HD
ENDBRANCH   8   9
BRANCH   8  11
ATOM     11  C   UNL     1      44.191   3.775   9.154  0.00  0.00    +0.000 C 
BRANCH  11  12
ATOM     12  C   UNL     1      45.335   3.171   8.423  0.00  0.00    +0.000 A 
ATOM     13  C   UNL     1      45.816   1.879   8.471  0.00  0.00    +0.000 A 
ATOM     14  N   UNL     1      46.874   1.858   7.604  0.00  0.00    +0.000 N 
ATOM     15  C   UNL     1      47.000   3.112   7.079  0.00  0.00    +0.000 A 
ATOM     16  N   UNL     1      46.085   3.926   7.553  0.00  0.00    +0.000 NA
ATOM     17  H   UNL     1      47.461   1.064   7.388  0.00  0.00    +0.000 HD
ENDBRANCH  11  12
ENDBRANCH   8  11
ENDBRANCH   5   8
ENDBRANCH   1   2
BRANCH   1  20
ATOM     18  O   UNL     1      49.791   6.845  14.516  0.00  0.00    +0.000 OA
ATOM     19  C   UNL     1      48.743   6.855  15.146  0.00  0.00    +0.000 C 
ATOM     20  N   UNL     1      47.572   7.427  14.697  0.00  0.00    +0.000 N 
ATOM     21  H   UNL     1      46.727   7.198  15.199  0.00  0.00    +0.000 HD
BRANCH  19  22
ATOM     22  C   UNL     1      48.551   6.108  16.374  0.00  0.00    +0.000 A 
ATOM     23  C   UNL     1      48.140   4.785  16.392  0.00  0.00    +0.000 A 
ATOM     24  S   UNL     1      47.512   4.336  17.924  0.00  0.00    +0.000 S 
ATOM     25  C   UNL     1      47.912   5.852  18.595  0.00  0.00    +0.000 A 
ATOM     26  N   UNL     1      47.534   6.220  19.849  0.00  0.00    +0.000 NA
ATOM     27  C   UNL     1      47.965   7.385  20.209  0.00  0.00    +0.000 A 
ATOM     28  N   UNL     1      48.783   8.194  19.454  0.00  0.00    +0.000 N 
ATOM     29  C   UNL     1      49.207   7.855  18.192  0.00  0.00    +0.000 A 
ATOM     30  O   UNL     1      50.004   8.546  17.567  0.00  0.00    +0.000 OA
ATOM     31  C   UNL     1      48.633   6.619  17.706  0.00  0.00    +0.000 A 
ATOM     32  H   UNL     1      49.150   9.055  19.829  0.00  0.00    +0.000 HD
ENDBRANCH  19  22
ENDBRANCH   1  20
TORSDOF 7
ENDMDL
MODEL 9
REMARK VINA RESULT:    -6.657      2.547      3.896
REMARK INTER + INTRA:         -10.143
REMARK INTER:                  -9.281
REMARK INTRA:                  -0.863
REMARK UNBOUND:                -0.957
REMARK  Name = 
REMARK  7 active torsions:
REMARK  status: ('A' for Active; 'I' for Inactive)
REMARK    1  A    between atoms: C_2  and  C_19
REMARK    2  A    between atoms: N_3  and  C_4
REMARK    3  A    between atoms: C_4  and  C_5
REMARK    4  A    between atoms: C_8  and  C_9
REMARK    5  A    between atoms: C_9  and  O_10
REMARK    6  A    between atoms: C_9  and  C_11
REMARK    7  A    between atoms: C_11  and  C_12
REMARK                            x       y       z     vdW  Elec       q    Type
REMARK                         _______ _______ _______ _____ _____    ______ ____
ROOT
ATOM      1  C   UNL     1      49.537   7.679  15.207  0.00  0.00    +0.000 C 
ENDROOT
BRANCH   1   2
ATOM      2  C   UNL     1      48.349   7.370  14.313  0.00  0.00    +0.000 A 
ATOM      3  N   UNL     1      48.255   6.128  13.791  0.00  0.00    +0.000 NA
ATOM      4  C   UNL     1      47.213   5.904  12.957  0.00  0.00    +0.000 A 
ATOM      5  C   UNL     1      46.289   6.864  12.589  0.00  0.00    +0.000 A 
ATOM      6  C   UNL     1      46.509   8.101  13.157  0.00  0.00    +0.000 A 
ATOM      7  N   UNL     1      47.517   8.381  14.007  0.00  0.00    +0.000 NA
BRANCH   5   8
ATOM      8  C   UNL     1      45.134   6.539  11.685  0.00  0.00    +0.000 C 
BRANCH   8   9
ATOM      9  O   UNL     1      44.726   7.760  11.052  0.00  0.00    +0.000 OA
ATOM     10  H   UNL     1      45.512   8.322  10.945  0.00  0.00    +0.000 HD
ENDBRANCH   8   9
BRANCH   8  11
ATOM     11  C   UNL     1      45.385   5.475  10.600  0.00  0.00    +0.000 C 
BRANCH  11  12
ATOM     12  C   UNL     1      44.692   4.189  10.869  0.00  0.00    +0.000 A 
ATOM     13  C   UNL     1      44.746   3.005  10.165  0.00  0.00    +0.000 A 
ATOM     14  N   UNL     1      43.927   2.146  10.844  0.00  0.00    +0.000 N 
ATOM     15  C   UNL     1      43.410   2.826  11.909  0.00  0.00    +0.000 A 
ATOM     16  N   UNL     1      43.854   4.061  11.952  0.00  0.00    +0.000 NA
ATOM     17  H   UNL     1      43.734   1.182  10.607  0.00  0.00    +0.000 HD
ENDBRANCH  11  12
ENDBRANCH   8  11
ENDBRANCH   5   8
ENDBRANCH   1   2
BRANCH   1  20
ATOM     18  O   UNL     1      48.439   6.466  17.556  0.00  0.00    +0.000 OA
ATOM     19  C   UNL     1      49.495   6.071  17.083  0.00  0.00    +0.000 C 
ATOM     20  N   UNL     1      50.006   6.483  15.871  0.00  0.00    +0.000 N 
ATOM     21  H   UNL     1      50.970   6.256  15.678  0.00  0.00    +0.000 HD
BRANCH  19  22
ATOM     22  C   UNL     1      50.435   5.249  17.822  0.00  0.00    +0.000 A 
ATOM     23  C   UNL     1      51.427   5.784  18.627  0.00  0.00    +0.000 A 
ATOM     24  S   UNL     1      52.669   4.643  18.943  0.00  0.00    +0.000 S 
ATOM     25  C   UNL     1      51.822   3.408  18.127  0.00  0.00    +0.000 A 
ATOM     26  N   UNL     1      52.363   2.184  17.887  0.00  0.00    +0.000 NA
ATOM     27  C   UNL     1      51.560   1.359  17.299  0.00  0.00    +0.000 A 
ATOM     28  N   UNL     1      50.250   1.624  16.976  0.00  0.00    +0.000 N 
ATOM     29  C   UNL     1      49.654   2.838  17.218  0.00  0.00    +0.000 A 
ATOM     30  O   UNL     1      48.462   3.032  17.004  0.00  0.00    +0.000 OA
ATOM     31  C   UNL     1      50.564   3.828  17.752  0.00  0.00    +0.000 A 
ATOM     32  H   UNL     1      49.654   0.906  16.592  0.00  0.00    +0.000 HD
ENDBRANCH  19  22
ENDBRANCH   1  20
TORSDOF 7
ENDMDL
