MODEL 1
REMARK VINA RESULT:    -8.902      0.000      0.000
REMARK INTER + INTRA:         -12.316
REMARK INTER:                 -12.024
REMARK INTRA:                  -0.291
REMARK UNBOUND:                -0.291
REMARK  Name = 
REMARK  6 active torsions:
REMARK  status: ('A' for Active; 'I' for Inactive)
REMARK    1  A    between atoms: C_2  and  C_3
REMARK    2  A    between atoms: C_2  and  C_18
REMARK    3  A    between atoms: C_3  and  O_4
REMARK    4  A    between atoms: O_4  and  C_5
REMARK    5  A    between atoms: C_8  and  C_9
REMARK    6  A    between atoms: C_9  and  C_10
REMARK                            x       y       z     vdW  Elec       q    Type
REMARK                         _______ _______ _______ _____ _____    ______ ____
ROOT
ATOM      1  O   UNL     1      47.239   4.871  14.392  0.00  0.00    +0.000 OA
ENDROOT
BRANCH   1   2
ATOM      2  C   UNL     1      46.450   4.728  13.271  0.00  0.00    +0.000 A 
ATOM      3  C   UNL     1      46.499   5.750  12.338  0.00  0.00    +0.000 A 
ATOM      4  C   UNL     1      45.691   5.648  11.210  0.00  0.00    +0.000 A 
ATOM      5  C   UNL     1      44.906   4.507  11.023  0.00  0.00    +0.000 A 
ATOM      6  C   UNL     1      44.944   3.533  12.016  0.00  0.00    +0.000 A 
ATOM      7  N   UNL     1      45.673   3.632  13.146  0.00  0.00    +0.000 NA
BRANCH   5   8
ATOM      8  C   UNL     1      44.045   4.316   9.802  0.00  0.00    +0.000 C 
BRANCH   8   9
ATOM      9  C   UNL     1      44.678   3.427   8.716  0.00  0.00    +0.000 C 
ATOM     10  C   UNL     1      45.825   4.133   7.974  0.00  0.00    +0.000 C 
ATOM     11  C   UNL     1      46.452   3.179   6.961  0.00  0.00    +0.000 C 
ATOM     12  C   UNL     1      46.898   1.886   7.634  0.00  0.00    +0.000 C 
ATOM     13  N   UNL     1      45.793   1.239   8.343  0.00  0.00    +0.000 NA
ATOM     14  C   UNL     1      45.200   2.123   9.346  0.00  0.00    +0.000 C 
ATOM     15  H   UNL     1      46.138   0.394   8.799  0.00  0.00    +0.000 HD
ENDBRANCH   8   9
ENDBRANCH   5   8
ENDBRANCH   1   2
BRANCH   1  16
ATOM     16  C   UNL     1      47.424   3.636  15.068  0.00  0.00    +0.000 C 
BRANCH  16  18
ATOM     17  O   UNL     1      46.520   3.239  17.285  0.00  0.00    +0.000 OA
ATOM     18  C   UNL     1      47.448   3.682  16.609  0.00  0.00    +0.000 C 
BRANCH  18  19
ATOM     19  C   UNL     1      48.651   4.243  17.247  0.00  0.00    +0.000 A 
ATOM     20  C   UNL     1      48.727   5.530  17.755  0.00  0.00    +0.000 A 
ATOM     21  S   UNL     1      50.226   5.877  18.499  0.00  0.00    +0.000 S 
ATOM     22  C   UNL     1      50.820   4.317  18.159  0.00  0.00    +0.000 A 
ATOM     23  N   UNL     1      52.070   3.946  18.547  0.00  0.00    +0.000 NA
ATOM     24  C   UNL     1      52.377   2.730  18.236  0.00  0.00    +0.000 A 
ATOM     25  N   UNL     1      51.559   1.863  17.561  0.00  0.00    +0.000 N 
ATOM     26  C   UNL     1      50.333   2.231  17.049  0.00  0.00    +0.000 A 
ATOM     27  O   UNL     1      49.751   1.504  16.255  0.00  0.00    +0.000 OA
ATOM     28  C   UNL     1      49.902   3.556  17.460  0.00  0.00    +0.000 A 
ATOM     29  H   UNL     1      51.884   0.949  17.285  0.00  0.00    +0.000 HD
ENDBRANCH  18  19
ENDBRANCH  16  18
ENDBRANCH   1  16
TORSDOF 6
ENDMDL
MODEL 2
REMARK VINA RESULT:    -7.838      1.963      2.523
REMARK INTER + INTRA:         -10.878
REMARK INTER:                 -10.370
REMARK INTRA:                  -0.508
REMARK UNBOUND:                -0.291
REMARK  Name = 
REMARK  6 active torsions:
REMARK  status: ('A' for Active; 'I' for Inactive)
REMARK    1  A    between atoms: C_2  and  C_3
REMARK    2  A    between atoms: C_2  and  C_18
REMARK    3  A    between atoms: C_3  and  O_4
REMARK    4  A    between atoms: O_4  and  C_5
REMARK    5  A    between atoms: C_8  and  C_9
REMARK    6  A    between atoms: C_9  and  C_10
REMARK                            x       y       z     vdW  Elec       q    Type
REMARK                         _______ _______ _______ _____ _____    ______ ____
ROOT
ATOM      1  O   UNL     1      47.689   5.306  14.511  0.00  0.00    +0.000 OA
ENDROOT
BRANCH   1   2
ATOM      2  C   UNL     1      46.759   5.174  13.500  0.00  0.00    +0.000 A 
ATOM      3  C   UNL     1      46.880   6.037  12.425  0.00  0.00    +0.000 A 
ATOM      4  C   UNL     1      45.939   5.948  11.404  0.00  0.00    +0.000 A 
ATOM      5  C   UNL     1      44.946   4.967  11.463  0.00  0.00    +0.000 A 
ATOM      6  C   UNL     1      44.926   4.142  12.583  0.00  0.00    +0.000 A 
ATOM      7  N   UNL     1      45.789   4.243  13.614  0.00  0.00    +0.000 NA
BRANCH   5   8
ATOM      8  C   UNL     1      43.926   4.790  10.369  0.00  0.00    +0.000 C 
BRANCH   8   9
ATOM      9  C   UNL     1      44.353   3.811   9.260  0.00  0.00    +0.000 C 
ATOM     10  C   UNL     1      45.542   4.335   8.438  0.00  0.00    +0.000 C 
ATOM     11  C   UNL     1      45.958   3.293   7.404  0.00  0.00    +0.000 C 
ATOM     12  C   UNL     1      46.252   1.954   8.069  0.00  0.00    +0.000 C 
ATOM     13  N   UNL     1      45.111   1.480   8.854  0.00  0.00    +0.000 NA
ATOM     14  C   UNL     1      44.717   2.448   9.878  0.00  0.00    +0.000 C 
ATOM     15  H   UNL     1      45.357   0.597   9.301  0.00  0.00    +0.000 HD
ENDBRANCH   8   9
ENDBRANCH   5   8
ENDBRANCH   1   2
BRANCH   1  16
ATOM     16  C   UNL     1      48.246   6.611  14.549  0.00  0.00    +0.000 C 
BRANCH  16  18
ATOM     17  O   UNL     1      50.557   6.962  15.200  0.00  0.00    +0.000 OA
ATOM     18  C   UNL     1      49.386   6.852  15.559  0.00  0.00    +0.000 C 
BRANCH  18  19
ATOM     19  C   UNL     1      49.011   6.990  16.976  0.00  0.00    +0.000 A 
ATOM     20  C   UNL     1      48.557   8.170  17.544  0.00  0.00    +0.000 A 
ATOM     21  S   UNL     1      48.132   8.011  19.192  0.00  0.00    +0.000 S 
ATOM     22  C   UNL     1      48.547   6.358  19.196  0.00  0.00    +0.000 A 
ATOM     23  N   UNL     1      48.407   5.606  20.321  0.00  0.00    +0.000 NA
ATOM     24  C   UNL     1      48.745   4.368  20.170  0.00  0.00    +0.000 A 
ATOM     25  N   UNL     1      49.225   3.821  19.010  0.00  0.00    +0.000 N 
ATOM     26  C   UNL     1      49.493   4.568  17.882  0.00  0.00    +0.000 A 
ATOM     27  O   UNL     1      50.139   4.088  16.961  0.00  0.00    +0.000 OA
ATOM     28  C   UNL     1      49.034   5.944  17.971  0.00  0.00    +0.000 A 
ATOM     29  H   UNL     1      49.540   2.864  18.976  0.00  0.00    +0.000 HD
ENDBRANCH  18  19
ENDBRANCH  16  18
ENDBRANCH   1  16
TORSDOF 6
ENDMDL
MODEL 3
REMARK VINA RESULT:    -7.814      2.849      8.664
REMARK INTER + INTRA:         -10.846
REMARK INTER:                 -10.044
REMARK INTRA:                  -0.801
REMARK UNBOUND:                -0.291
REMARK  Name = 
REMARK  6 active torsions:
REMARK  status: ('A' for Active; 'I' for Inactive)
REMARK    1  A    between atoms: C_2  and  C_3
REMARK    2  A    between atoms: C_2  and  C_18
REMARK    3  A    between atoms: C_3  and  O_4
REMARK    4  A    between atoms: O_4  and  C_5
REMARK    5  A    between atoms: C_8  and  C_9
REMARK    6  A    between atoms: C_9  and  C_10
REMARK                            x       y       z     vdW  Elec       q    Type
REMARK                         _______ _______ _______ _____ _____    ______ ____
ROOT
ATOM      1  O   UNL     1      47.364   5.899  12.728  0.00  0.00    +0.000 OA
ENDROOT
BRANCH   1   2
ATOM      2  C   UNL     1      47.590   5.559  14.045  0.00  0.00    +0.000 A 
ATOM      3  C   UNL     1      46.908   4.457  14.531  0.00  0.00    +0.000 A 
ATOM      4  C   UNL     1      47.093   4.107  15.864  0.00  0.00    +0.000 A 
ATOM      5  C   UNL     1      47.992   4.833  16.651  0.00  0.00    +0.000 A 
ATOM      6  C   UNL     1      48.636   5.913  16.057  0.00  0.00    +0.000 A 
ATOM      7  N   UNL     1      48.433   6.310  14.784  0.00  0.00    +0.000 NA
BRANCH   5   8
ATOM      8  C   UNL     1      48.270   4.477  18.088  0.00  0.00    +0.000 C 
BRANCH   8   9
ATOM      9  C   UNL     1      49.440   3.494  18.280  0.00  0.00    +0.000 C 
ATOM     10  C   UNL     1      49.607   2.538  17.087  0.00  0.00    +0.000 C 
ATOM     11  C   UNL     1      50.819   1.639  17.309  0.00  0.00    +0.000 C 
ATOM     12  C   UNL     1      52.071   2.467  17.574  0.00  0.00    +0.000 C 
ATOM     13  N   UNL     1      51.885   3.376  18.706  0.00  0.00    +0.000 NA
ATOM     14  C   UNL     1      50.749   4.275  18.499  0.00  0.00    +0.000 C 
ATOM     15  H   UNL     1      52.732   3.928  18.834  0.00  0.00    +0.000 HD
ENDBRANCH   8   9
ENDBRANCH   5   8
ENDBRANCH   1   2
BRANCH   1  16
ATOM     16  C   UNL     1      46.511   7.028  12.613  0.00  0.00    +0.000 C 
BRANCH  16  18
ATOM     17  O   UNL     1      44.583   7.767  11.338  0.00  0.00    +0.000 OA
ATOM     18  C   UNL     1      45.187   6.826  11.849  0.00  0.00    +0.000 C 
BRANCH  18  19
ATOM     19  C   UNL     1      44.690   5.445  11.718  0.00  0.00    +0.000 A 
ATOM     20  C   UNL     1      43.992   4.779  12.712  0.00  0.00    +0.000 A 
ATOM     21  S   UNL     1      43.482   3.214  12.250  0.00  0.00    +0.000 S 
ATOM     22  C   UNL     1      44.186   3.380  10.707  0.00  0.00    +0.000 A 
ATOM     23  N   UNL     1      44.100   2.381   9.789  0.00  0.00    +0.000 NA
ATOM     24  C   UNL     1      44.665   2.654   8.659  0.00  0.00    +0.000 A 
ATOM     25  N   UNL     1      45.319   3.822   8.373  0.00  0.00    +0.000 N 
ATOM     26  C   UNL     1      45.531   4.814   9.307  0.00  0.00    +0.000 A 
ATOM     27  O   UNL     1      46.319   5.722   9.078  0.00  0.00    +0.000 OA
ATOM     28  C   UNL     1      44.827   4.596  10.560  0.00  0.00    +0.000 A 
ATOM     29  H   UNL     1      45.802   3.948   7.497  0.00  0.00    +0.000 HD
ENDBRANCH  18  19
ENDBRANCH  16  18
ENDBRANCH   1  16
TORSDOF 6
ENDMDL
MODEL 4
REMARK VINA RESULT:    -7.504      3.185      8.434
REMARK INTER + INTRA:         -10.427
REMARK INTER:                  -9.521
REMARK INTRA:                  -0.906
REMARK UNBOUND:                -0.291
REMARK  Name = 
REMARK  6 active torsions:
REMARK  status: ('A' for Active; 'I' for Inactive)
REMARK    1  A    between atoms: C_2  and  C_3
REMARK    2  A    between atoms: C_2  and  C_18
REMARK    3  A    between atoms: C_3  and  O_4
REMARK    4  A    between atoms: O_4  and  C_5
REMARK    5  A    between atoms: C_8  and  C_9
REMARK    6  A    between atoms: C_9  and  C_10
REMARK                            x       y       z     vdW  Elec       q    Type
REMARK                         _______ _______ _______ _____ _____    ______ ____
ROOT
ATOM      1  O   UNL     1      47.687   6.184  12.535  0.00  0.00    +0.000 OA
ENDROOT
BRANCH   1   2
ATOM      2  C   UNL     1      47.720   5.678  13.817  0.00  0.00    +0.000 A 
ATOM      3  C   UNL     1      48.417   6.412  14.761  0.00  0.00    +0.000 A 
ATOM      4  C   UNL     1      48.493   5.911  16.056  0.00  0.00    +0.000 A 
ATOM      5  C   UNL     1      47.825   4.726  16.380  0.00  0.00    +0.000 A 
ATOM      6  C   UNL     1      47.141   4.077  15.357  0.00  0.00    +0.000 A 
ATOM      7  N   UNL     1      47.099   4.509  14.081  0.00  0.00    +0.000 NA
BRANCH   5   8
ATOM      8  C   UNL     1      47.832   4.156  17.773  0.00  0.00    +0.000 C 
BRANCH   8   9
ATOM      9  C   UNL     1      49.104   3.363  18.125  0.00  0.00    +0.000 C 
ATOM     10  C   UNL     1      49.568   2.455  16.975  0.00  0.00    +0.000 C 
ATOM     11  C   UNL     1      50.866   1.751  17.361  0.00  0.00    +0.000 C 
ATOM     12  C   UNL     1      51.931   2.761  17.775  0.00  0.00    +0.000 C 
ATOM     13  N   UNL     1      51.463   3.620  18.863  0.00  0.00    +0.000 NA
ATOM     14  C   UNL     1      50.238   4.334  18.502  0.00  0.00    +0.000 C 
ATOM     15  H   UNL     1      52.191   4.295  19.093  0.00  0.00    +0.000 HD
ENDBRANCH   8   9
ENDBRANCH   5   8
ENDBRANCH   1   2
BRANCH   1  16
ATOM     16  C   UNL     1      46.923   7.379  12.459  0.00  0.00    +0.000 C 
BRANCH  16  18
ATOM     17  O   UNL     1      44.783   8.237  11.704  0.00  0.00    +0.000 OA
ATOM     18  C   UNL     1      45.582   7.302  11.703  0.00  0.00    +0.000 C 
BRANCH  18  19
ATOM     19  C   UNL     1      45.312   6.074  10.936  0.00  0.00    +0.000 A 
ATOM     20  C   UNL     1      45.780   5.846   9.652  0.00  0.00    +0.000 A 
ATOM     21  S   UNL     1      45.366   4.304   9.043  0.00  0.00    +0.000 S 
ATOM     22  C   UNL     1      44.543   3.897  10.478  0.00  0.00    +0.000 A 
ATOM     23  N   UNL     1      43.952   2.680  10.623  0.00  0.00    +0.000 NA
ATOM     24  C   UNL     1      43.380   2.507  11.769  0.00  0.00    +0.000 A 
ATOM     25  N   UNL     1      43.332   3.440  12.770  0.00  0.00    +0.000 N 
ATOM     26  C   UNL     1      43.815   4.723  12.626  0.00  0.00    +0.000 A 
ATOM     27  O   UNL     1      43.538   5.585  13.449  0.00  0.00    +0.000 OA
ATOM     28  C   UNL     1      44.555   4.933  11.393  0.00  0.00    +0.000 A 
ATOM     29  H   UNL     1      42.809   3.271  13.615  0.00  0.00    +0.000 HD
ENDBRANCH  18  19
ENDBRANCH  16  18
ENDBRANCH   1  16
TORSDOF 6
ENDMDL
MODEL 5
REMARK VINA RESULT:    -7.279      1.770      2.664
REMARK INTER + INTRA:         -10.124
REMARK INTER:                  -9.194
REMARK INTRA:                  -0.929
REMARK UNBOUND:                -0.291
REMARK  Name = 
REMARK  6 active torsions:
REMARK  status: ('A' for Active; 'I' for Inactive)
REMARK    1  A    between atoms: C_2  and  C_3
REMARK    2  A    between atoms: C_2  and  C_18
REMARK    3  A    between atoms: C_3  and  O_4
REMARK    4  A    between atoms: O_4  and  C_5
REMARK    5  A    between atoms: C_8  and  C_9
REMARK    6  A    between atoms: C_9  and  C_10
REMARK                            x       y       z     vdW  Elec       q    Type
REMARK                         _______ _______ _______ _____ _____    ______ ____
ROOT
ATOM      1  O   UNL     1      49.121   5.394  15.920  0.00  0.00    +0.000 OA
ENDROOT
BRANCH   1   2
ATOM      2  C   UNL     1      48.210   5.520  14.892  0.00  0.00    +0.000 A 
ATOM      3  C   UNL     1      47.144   4.637  14.891  0.00  0.00    +0.000 A 
ATOM      4  C   UNL     1      46.225   4.720  13.850  0.00  0.00    +0.000 A 
ATOM      5  C   UNL     1      46.369   5.714  12.878  0.00  0.00    +0.000 A 
ATOM      6  C   UNL     1      47.470   6.558  12.984  0.00  0.00    +0.000 A 
ATOM      7  N   UNL     1      48.407   6.465  13.949  0.00  0.00    +0.000 NA
BRANCH   5   8
ATOM      8  C   UNL     1      45.385   5.885  11.751  0.00  0.00    +0.000 C 
BRANCH   8   9
ATOM      9  C   UNL     1      45.470   4.794  10.668  0.00  0.00    +0.000 C 
ATOM     10  C   UNL     1      44.176   3.971  10.558  0.00  0.00    +0.000 C 
ATOM     11  C   UNL     1      44.301   2.956   9.426  0.00  0.00    +0.000 C 
ATOM     12  C   UNL     1      44.669   3.644   8.116  0.00  0.00    +0.000 C 
ATOM     13  N   UNL     1      45.897   4.429   8.248  0.00  0.00    +0.000 NA
ATOM     14  C   UNL     1      45.788   5.435   9.304  0.00  0.00    +0.000 C 
ATOM     15  H   UNL     1      46.095   4.892   7.361  0.00  0.00    +0.000 HD
ENDBRANCH   8   9
ENDBRANCH   5   8
ENDBRANCH   1   2
BRANCH   1  16
ATOM     16  C   UNL     1      48.490   5.435  17.192  0.00  0.00    +0.000 C 
BRANCH  16  18
ATOM     17  O   UNL     1      48.139   3.743  18.895  0.00  0.00    +0.000 OA
ATOM     18  C   UNL     1      48.946   4.390  18.229  0.00  0.00    +0.000 C 
BRANCH  18  19
ATOM     19  C   UNL     1      50.395   4.163  18.363  0.00  0.00    +0.000 A 
ATOM     20  C   UNL     1      51.260   5.045  18.991  0.00  0.00    +0.000 A 
ATOM     21  S   UNL     1      52.873   4.483  19.055  0.00  0.00    +0.000 S 
ATOM     22  C   UNL     1      52.462   3.045  18.240  0.00  0.00    +0.000 A 
ATOM     23  N   UNL     1      53.403   2.097  17.979  0.00  0.00    +0.000 NA
ATOM     24  C   UNL     1      52.944   1.054  17.370  0.00  0.00    +0.000 A 
ATOM     25  N   UNL     1      51.641   0.881  16.986  0.00  0.00    +0.000 N 
ATOM     26  C   UNL     1      50.680   1.860  17.126  0.00  0.00    +0.000 A 
ATOM     27  O   UNL     1      49.602   1.754  16.557  0.00  0.00    +0.000 OA
ATOM     28  C   UNL     1      51.125   3.009  17.895  0.00  0.00    +0.000 A 
ATOM     29  H   UNL     1      51.358   0.075  16.450  0.00  0.00    +0.000 HD
ENDBRANCH  18  19
ENDBRANCH  16  18
ENDBRANCH   1  16
TORSDOF 6
ENDMDL
MODEL 6
REMARK VINA RESULT:    -7.185      2.038      2.632
REMARK INTER + INTRA:          -9.997
REMARK INTER:                  -9.295
REMARK INTRA:                  -0.702
REMARK UNBOUND:                -0.291
REMARK  Name = 
REMARK  6 active torsions:
REMARK  status: ('A' for Active; 'I' for Inactive)
REMARK    1  A    between atoms: C_2  and  C_3
REMARK    2  A    between atoms: C_2  and  C_18
REMARK    3  A    between atoms: C_3  and  O_4
REMARK    4  A    between atoms: O_4  and  C_5
REMARK    5  A    between atoms: C_8  and  C_9
REMARK    6  A    between atoms: C_9  and  C_10
REMARK                            x       y       z     vdW  Elec       q    Type
REMARK                         _______ _______ _______ _____ _____    ______ ____
ROOT
ATOM      1  O   UNL     1      48.656   6.360  13.805  0.00  0.00    +0.000 OA
ENDROOT
BRANCH   1   2
ATOM      2  C   UNL     1      47.521   6.073  13.078  0.00  0.00    +0.000 A 
ATOM      3  C   UNL     1      46.830   4.925  13.424  0.00  0.00    +0.000 A 
ATOM      4  C   UNL     1      45.697   4.593  12.689  0.00  0.00    +0.000 A 
ATOM      5  C   UNL     1      45.259   5.446  11.672  0.00  0.00    +0.000 A 
ATOM      6  C   UNL     1      46.020   6.583  11.417  0.00  0.00    +0.000 A 
ATOM      7  N   UNL     1      47.153   6.899  12.075  0.00  0.00    +0.000 NA
BRANCH   5   8
ATOM      8  C   UNL     1      44.015   5.167  10.870  0.00  0.00    +0.000 C 
BRANCH   8   9
ATOM      9  C   UNL     1      44.212   4.144   9.736  0.00  0.00    +0.000 C 
ATOM     10  C   UNL     1      45.442   4.456   8.869  0.00  0.00    +0.000 C 
ATOM     11  C   UNL     1      45.619   3.373   7.810  0.00  0.00    +0.000 C 
ATOM     12  C   UNL     1      45.691   1.991   8.450  0.00  0.00    +0.000 C 
ATOM     13  N   UNL     1      44.515   1.721   9.279  0.00  0.00    +0.000 NA
ATOM     14  C   UNL     1      44.346   2.728  10.326  0.00  0.00    +0.000 C 
ATOM     15  H   UNL     1      44.613   0.801   9.708  0.00  0.00    +0.000 HD
ENDBRANCH   8   9
ENDBRANCH   5   8
ENDBRANCH   1   2
BRANCH   1  16
ATOM     16  C   UNL     1      48.547   7.601  14.487  0.00  0.00    +0.000 C 
BRANCH  16  18
ATOM     17  O   UNL     1      48.334   8.299  16.801  0.00  0.00    +0.000 OA
ATOM     18  C   UNL     1      48.938   7.612  15.979  0.00  0.00    +0.000 C 
BRANCH  18  19
ATOM     19  C   UNL     1      50.041   6.729  16.392  0.00  0.00    +0.000 A 
ATOM     20  C   UNL     1      51.379   7.088  16.337  0.00  0.00    +0.000 A 
ATOM     21  S   UNL     1      52.429   5.885  16.947  0.00  0.00    +0.000 S 
ATOM     22  C   UNL     1      51.125   4.847  17.299  0.00  0.00    +0.000 A 
ATOM     23  N   UNL     1      51.336   3.627  17.864  0.00  0.00    +0.000 NA
ATOM     24  C   UNL     1      50.254   2.957  18.088  0.00  0.00    +0.000 A 
ATOM     25  N   UNL     1      48.990   3.386  17.785  0.00  0.00    +0.000 N 
ATOM     26  C   UNL     1      48.736   4.561  17.109  0.00  0.00    +0.000 A 
ATOM     27  O   UNL     1      47.624   4.784  16.651  0.00  0.00    +0.000 OA
ATOM     28  C   UNL     1      49.913   5.394  16.926  0.00  0.00    +0.000 A 
ATOM     29  H   UNL     1      48.190   2.787  17.919  0.00  0.00    +0.000 HD
ENDBRANCH  18  19
ENDBRANCH  16  18
ENDBRANCH   1  16
TORSDOF 6
ENDMDL
MODEL 7
REMARK VINA RESULT:    -6.957      3.443      9.449
REMARK INTER + INTRA:          -9.689
REMARK INTER:                  -8.975
REMARK INTRA:                  -0.714
REMARK UNBOUND:                -0.291
REMARK  Name = 
REMARK  6 active torsions:
REMARK  status: ('A' for Active; 'I' for Inactive)
REMARK    1  A    between atoms: C_2  and  C_3
REMARK    2  A    between atoms: C_2  and  C_18
REMARK    3  A    between atoms: C_3  and  O_4
REMARK    4  A    between atoms: O_4  and  C_5
REMARK    5  A    between atoms: C_8  and  C_9
REMARK    6  A    between atoms: C_9  and  C_10
REMARK                            x       y       z     vdW  Elec       q    Type
REMARK                         _______ _______ _______ _____ _____    ______ ____
ROOT
ATOM      1  O   UNL     1      47.276   3.219  16.452  0.00  0.00    +0.000 OA
ENDROOT
BRANCH   1   2
ATOM      2  C   UNL     1      48.592   3.210  16.864  0.00  0.00    +0.000 A 
ATOM      3  C   UNL     1      49.278   2.014  16.738  0.00  0.00    +0.000 A 
ATOM      4  C   UNL     1      50.598   1.966  17.173  0.00  0.00    +0.000 A 
ATOM      5  C   UNL     1      51.206   3.124  17.666  0.00  0.00    +0.000 A 
ATOM      6  C   UNL     1      50.429   4.276  17.735  0.00  0.00    +0.000 A 
ATOM      7  N   UNL     1      49.131   4.337  17.374  0.00  0.00    +0.000 NA
BRANCH   5   8
ATOM      8  C   UNL     1      52.645   3.149  18.111  0.00  0.00    +0.000 C 
BRANCH   8   9
ATOM      9  C   UNL     1      53.215   4.563  18.326  0.00  0.00    +0.000 C 
ATOM     10  C   UNL     1      53.770   4.763  19.746  0.00  0.00    +0.000 C 
ATOM     11  C   UNL     1      54.379   6.156  19.873  0.00  0.00    +0.000 C 
ATOM     12  C   UNL     1      55.430   6.393  18.795  0.00  0.00    +0.000 C 
ATOM     13  N   UNL     1      54.881   6.186  17.454  0.00  0.00    +0.000 NA
ATOM     14  C   UNL     1      54.324   4.843  17.296  0.00  0.00    +0.000 C 
ATOM     15  H   UNL     1      55.619   6.329  16.765  0.00  0.00    +0.000 HD
ENDBRANCH   8   9
ENDBRANCH   5   8
ENDBRANCH   1   2
BRANCH   1  16
ATOM     16  C   UNL     1      46.970   4.377  15.689  0.00  0.00    +0.000 C 
BRANCH  16  18
ATOM     17  O   UNL     1      46.879   3.084  13.638  0.00  0.00    +0.000 OA
ATOM     18  C   UNL     1      46.686   4.167  14.188  0.00  0.00    +0.000 C 
BRANCH  18  19
ATOM     19  C   UNL     1      46.131   5.309  13.443  0.00  0.00    +0.000 A 
ATOM     20  C   UNL     1      46.818   6.490  13.215  0.00  0.00    +0.000 A 
ATOM     21  S   UNL     1      45.947   7.608  12.260  0.00  0.00    +0.000 S 
ATOM     22  C   UNL     1      44.621   6.547  12.127  0.00  0.00    +0.000 A 
ATOM     23  N   UNL     1      43.517   6.894  11.413  0.00  0.00    +0.000 NA
ATOM     24  C   UNL     1      42.600   5.984  11.387  0.00  0.00    +0.000 A 
ATOM     25  N   UNL     1      42.679   4.773  12.020  0.00  0.00    +0.000 N 
ATOM     26  C   UNL     1      43.726   4.425  12.848  0.00  0.00    +0.000 A 
ATOM     27  O   UNL     1      43.640   3.444  13.574  0.00  0.00    +0.000 OA
ATOM     28  C   UNL     1      44.827   5.373  12.828  0.00  0.00    +0.000 A 
ATOM     29  H   UNL     1      41.900   4.133  12.021  0.00  0.00    +0.000 HD
ENDBRANCH  18  19
ENDBRANCH  16  18
ENDBRANCH   1  16
TORSDOF 6
ENDMDL
MODEL 8
REMARK VINA RESULT:    -6.808      2.966      8.836
REMARK INTER + INTRA:          -9.488
REMARK INTER:                  -8.687
REMARK INTRA:                  -0.801
REMARK UNBOUND:                -0.291
REMARK  Name = 
REMARK  6 active torsions:
REMARK  status: ('A' for Active; 'I' for Inactive)
REMARK    1  A    between atoms: C_2  and  C_3
REMARK    2  A    between atoms: C_2  and  C_18
REMARK    3  A    between atoms: C_3  and  O_4
REMARK    4  A    between atoms: O_4  and  C_5
REMARK    5  A    between atoms: C_8  and  C_9
REMARK    6  A    between atoms: C_9  and  C_10
REMARK                            x       y       z     vdW  Elec       q    Type
REMARK                         _______ _______ _______ _____ _____    ______ ____
ROOT
ATOM      1  O   UNL     1      47.347   4.192  15.781  0.00  0.00    +0.000 OA
ENDROOT
BRANCH   1   2
ATOM      2  C   UNL     1      48.540   3.859  16.386  0.00  0.00    +0.000 A 
ATOM      3  C   UNL     1      48.844   2.511  16.468  0.00  0.00    +0.000 A 
ATOM      4  C   UNL     1      50.027   2.142  17.100  0.00  0.00    +0.000 A 
ATOM      5  C   UNL     1      50.893   3.130  17.577  0.00  0.00    +0.000 A 
ATOM      6  C   UNL     1      50.497   4.455  17.429  0.00  0.00    +0.000 A 
ATOM      7  N   UNL     1      49.330   4.839  16.873  0.00  0.00    +0.000 NA
BRANCH   5   8
ATOM      8  C   UNL     1      52.209   2.798  18.230  0.00  0.00    +0.000 C 
BRANCH   8   9
ATOM      9  C   UNL     1      53.051   1.763  17.461  0.00  0.00    +0.000 C 
ATOM     10  C   UNL     1      54.513   2.207  17.286  0.00  0.00    +0.000 C 
ATOM     11  C   UNL     1      55.307   1.113  16.579  0.00  0.00    +0.000 C 
ATOM     12  C   UNL     1      55.183  -0.214  17.318  0.00  0.00    +0.000 C 
ATOM     13  N   UNL     1      53.784  -0.611  17.482  0.00  0.00    +0.000 NA
ATOM     14  C   UNL     1      53.010   0.408  18.191  0.00  0.00    +0.000 C 
ATOM     15  H   UNL     1      53.744  -1.487  18.001  0.00  0.00    +0.000 HD
ENDBRANCH   8   9
ENDBRANCH   5   8
ENDBRANCH   1   2
BRANCH   1  16
ATOM     16  C   UNL     1      47.355   5.527  15.299  0.00  0.00    +0.000 C 
BRANCH  16  18
ATOM     17  O   UNL     1      48.605   5.661  13.224  0.00  0.00    +0.000 OA
ATOM     18  C   UNL     1      47.508   5.716  13.776  0.00  0.00    +0.000 C 
BRANCH  18  19
ATOM     19  C   UNL     1      46.276   5.925  12.997  0.00  0.00    +0.000 A 
ATOM     20  C   UNL     1      45.746   7.172  12.708  0.00  0.00    +0.000 A 
ATOM     21  S   UNL     1      44.348   7.105  11.727  0.00  0.00    +0.000 S 
ATOM     22  C   UNL     1      44.406   5.404  11.664  0.00  0.00    +0.000 A 
ATOM     23  N   UNL     1      43.480   4.699  10.960  0.00  0.00    +0.000 NA
ATOM     24  C   UNL     1      43.660   3.420  10.989  0.00  0.00    +0.000 A 
ATOM     25  N   UNL     1      44.665   2.784  11.669  0.00  0.00    +0.000 N 
ATOM     26  C   UNL     1      45.554   3.447  12.488  0.00  0.00    +0.000 A 
ATOM     27  O   UNL     1      46.273   2.821  13.254  0.00  0.00    +0.000 OA
ATOM     28  C   UNL     1      45.455   4.895  12.407  0.00  0.00    +0.000 A 
ATOM     29  H   UNL     1      44.710   1.778  11.711  0.00  0.00    +0.000 HD
ENDBRANCH  18  19
ENDBRANCH  16  18
ENDBRANCH   1  16
TORSDOF 6
ENDMDL
MODEL 9
REMARK VINA RESULT:    -6.606      2.603      4.034
REMARK INTER + INTRA:          -9.214
REMARK INTER:                  -8.025
REMARK INTRA:                  -1.189
REMARK UNBOUND:                -0.291
REMARK  Name = 
REMARK  6 active torsions:
REMARK  status: ('A' for Active; 'I' for Inactive)
REMARK    1  A    between atoms: C_2  and  C_3
REMARK    2  A    between atoms: C_2  and  C_18
REMARK    3  A    between atoms: C_3  and  O_4
REMARK    4  A    between atoms: O_4  and  C_5
REMARK    5  A    between atoms: C_8  and  C_9
REMARK    6  A    between atoms: C_9  and  C_10
REMARK                            x       y       z     vdW  Elec       q    Type
REMARK                         _______ _______ _______ _____ _____    ______ ____
ROOT
ATOM      1  O   UNL     1      49.534   8.902  14.276  0.00  0.00    +0.000 OA
ENDROOT
BRANCH   1   2
ATOM      2  C   UNL     1      48.502   8.378  13.525  0.00  0.00    +0.000 A 
ATOM      3  C   UNL     1      48.852   7.528  12.490  0.00  0.00    +0.000 A 
ATOM      4  C   UNL     1      47.835   7.008  11.697  0.00  0.00    +0.000 A 
ATOM      5  C   UNL     1      46.503   7.307  11.996  0.00  0.00    +0.000 A 
ATOM      6  C   UNL     1      46.263   8.161  13.068  0.00  0.00    +0.000 A 
ATOM      7  N   UNL     1      47.232   8.725  13.818  0.00  0.00    +0.000 NA
BRANCH   5   8
ATOM      8  C   UNL     1      45.355   6.740  11.203  0.00  0.00    +0.000 C 
BRANCH   8   9
ATOM      9  C   UNL     1      45.081   5.248  11.468  0.00  0.00    +0.000 C 
ATOM     10  C   UNL     1      44.042   5.029  12.580  0.00  0.00    +0.000 C 
ATOM     11  C   UNL     1      43.767   3.537  12.746  0.00  0.00    +0.000 C 
ATOM     12  C   UNL     1      43.348   2.910  11.422  0.00  0.00    +0.000 C 
ATOM     13  N   UNL     1      44.347   3.140  10.377  0.00  0.00    +0.000 NA
ATOM     14  C   UNL     1      44.600   4.567  10.174  0.00  0.00    +0.000 C 
ATOM     15  H   UNL     1      44.018   2.728   9.504  0.00  0.00    +0.000 HD
ENDBRANCH   8   9
ENDBRANCH   5   8
ENDBRANCH   1   2
BRANCH   1  16
ATOM     16  C   UNL     1      50.045   7.956  15.203  0.00  0.00    +0.000 C 
BRANCH  16  18
ATOM     17  O   UNL     1      48.452   8.620  16.909  0.00  0.00    +0.000 OA
ATOM     18  C   UNL     1      49.266   7.783  16.522  0.00  0.00    +0.000 C 
BRANCH  18  19
ATOM     19  C   UNL     1      49.503   6.546  17.286  0.00  0.00    +0.000 A 
ATOM     20  C   UNL     1      50.411   6.445  18.328  0.00  0.00    +0.000 A 
ATOM     21  S   UNL     1      50.420   4.906  19.072  0.00  0.00    +0.000 S 
ATOM     22  C   UNL     1      49.212   4.328  18.019  0.00  0.00    +0.000 A 
ATOM     23  N   UNL     1      48.741   3.057  18.127  0.00  0.00    +0.000 NA
ATOM     24  C   UNL     1      47.817   2.764  17.273  0.00  0.00    +0.000 A 
ATOM     25  N   UNL     1      47.336   3.616  16.316  0.00  0.00    +0.000 N 
ATOM     26  C   UNL     1      47.862   4.872  16.094  0.00  0.00    +0.000 A 
ATOM     27  O   UNL     1      47.567   5.496  15.084  0.00  0.00    +0.000 OA
ATOM     28  C   UNL     1      48.834   5.282  17.094  0.00  0.00    +0.000 A 
ATOM     29  H   UNL     1      46.664   3.306  15.632  0.00  0.00    +0.000 HD
ENDBRANCH  18  19
ENDBRANCH  16  18
ENDBRANCH   1  16
TORSDOF 6
ENDMDL
