MODEL 1
REMARK VINA RESULT:    -8.884      0.000      0.000
REMARK INTER + INTRA:         -14.159
REMARK INTER:                 -13.298
REMARK INTRA:                  -0.861
REMARK UNBOUND:                -0.861
REMARK  Name = 
REMARK  9 active torsions:
REMARK  status: ('A' for Active; 'I' for Inactive)
REMARK    1  A    between atoms: N_1  and  C_2
REMARK    2  A    between atoms: C_2  and  C_3
REMARK    3  A    between atoms: C_2  and  C_19
REMARK    4  A    between atoms: C_3  and  N_4
REMARK    5  A    between atoms: C_7  and  C_8
REMARK    6  A    between atoms: C_8  and  O_9
REMARK    7  A    between atoms: O_9  and  C_10
REMARK    8  A    between atoms: C_10  and  C_11
REMARK    9  A    between atoms: C_19  and  C_21
REMARK                            x       y       z     vdW  Elec       q    Type
REMARK                         _______ _______ _______ _____ _____    ______ ____
ROOT
ATOM      1  C   UNL     1      46.980   4.013  15.137  0.00  0.00    +0.000 C 
ENDROOT
BRANCH   1   2
ATOM      2  N   UNL     1      47.588   2.906  14.357  0.00  0.00    +0.000 NA
ATOM      3  H   UNL     1      48.539   2.744  14.684  0.00  0.00    +0.000 HD
ATOM      4  H   UNL     1      47.684   3.224  13.389  0.00  0.00    +0.000 HD
ENDBRANCH   1   2
BRANCH   1   5
ATOM      5  C   UNL     1      47.295   3.875  16.639  0.00  0.00    +0.000 C 
ATOM      6  O   UNL     1      46.466   3.387  17.406  0.00  0.00    +0.000 OA
BRANCH   5   7
ATOM      7  C   UNL     1      48.581   4.397  17.141  0.00  0.00    +0.000 A 
ATOM      8  C   UNL     1      48.764   5.708  17.561  0.00  0.00    +0.000 A 
ATOM      9  S   UNL     1      50.316   6.003  18.209  0.00  0.00    +0.000 S 
ATOM     10  C   UNL     1      50.791   4.393  17.945  0.00  0.00    +0.000 A 
ATOM     11  N   UNL     1      52.024   3.958  18.316  0.00  0.00    +0.000 NA
ATOM     12  C   UNL     1      52.242   2.710  18.072  0.00  0.00    +0.000 A 
ATOM     13  N   UNL     1      51.349   1.863  17.466  0.00  0.00    +0.000 N 
ATOM     14  C   UNL     1      50.139   2.287  16.962  0.00  0.00    +0.000 A 
ATOM     15  O   UNL     1      49.483   1.575  16.213  0.00  0.00    +0.000 OA
ATOM     16  C   UNL     1      49.801   3.650  17.321  0.00  0.00    +0.000 A 
ATOM     17  H   UNL     1      51.612   0.918  17.231  0.00  0.00    +0.000 HD
ENDBRANCH   5   7
ENDBRANCH   1   5
BRANCH   1  18
ATOM     18  C   UNL     1      47.442   5.407  14.641  0.00  0.00    +0.000 C 
BRANCH  18  19
ATOM     19  N   UNL     1      46.553   5.990  13.614  0.00  0.00    +0.000 NA
ATOM     20  C   UNL     1      47.241   6.161  12.331  0.00  0.00    +0.000 C 
ATOM     21  C   UNL     1      46.342   6.815  11.291  0.00  0.00    +0.000 C 
ATOM     22  C   UNL     1      45.033   6.057  11.116  0.00  0.00    +0.000 C 
ATOM     23  C   UNL     1      44.361   5.871  12.483  0.00  0.00    +0.000 C 
ATOM     24  C   UNL     1      45.304   5.227  13.501  0.00  0.00    +0.000 C 
BRANCH  22  25
ATOM     25  C   UNL     1      45.247   4.715  10.393  0.00  0.00    +0.000 C 
BRANCH  25  26
ATOM     26  O   UNL     1      45.498   4.891   9.000  0.00  0.00    +0.000 OA
BRANCH  26  27
ATOM     27  C   UNL     1      44.818   3.935   8.193  0.00  0.00    +0.000 C 
BRANCH  27  28
ATOM     28  C   UNL     1      45.820   2.985   7.613  0.00  0.00    +0.000 A 
ATOM     29  C   UNL     1      46.597   3.358   6.513  0.00  0.00    +0.000 A 
ATOM     30  C   UNL     1      47.558   2.476   6.052  0.00  0.00    +0.000 A 
ATOM     31  N   UNL     1      47.791   1.266   6.605  0.00  0.00    +0.000 NA
ATOM     32  C   UNL     1      47.023   0.926   7.661  0.00  0.00    +0.000 A 
ATOM     33  C   UNL     1      46.038   1.737   8.197  0.00  0.00    +0.000 A 
ENDBRANCH  27  28
ENDBRANCH  26  27
ENDBRANCH  25  26
ENDBRANCH  22  25
ENDBRANCH  18  19
ENDBRANCH   1  18
TORSDOF 9
ENDMDL
MODEL 2
REMARK VINA RESULT:    -7.870      2.408      3.249
REMARK INTER + INTRA:         -12.642
REMARK INTER:                 -11.613
REMARK INTRA:                  -1.029
REMARK UNBOUND:                -0.861
REMARK  Name = 
REMARK  9 active torsions:
REMARK  status: ('A' for Active; 'I' for Inactive)
REMARK    1  A    between atoms: N_1  and  C_2
REMARK    2  A    between atoms: C_2  and  C_3
REMARK    3  A    between atoms: C_2  and  C_19
REMARK    4  A    between atoms: C_3  and  N_4
REMARK    5  A    between atoms: C_7  and  C_8
REMARK    6  A    between atoms: C_8  and  O_9
REMARK    7  A    between atoms: O_9  and  C_10
REMARK    8  A    between atoms: C_10  and  C_11
REMARK    9  A    between atoms: C_19  and  C_21
REMARK                            x       y       z     vdW  Elec       q    Type
REMARK                         _______ _______ _______ _____ _____    ______ ____
ROOT
ATOM      1  C   UNL     1      47.191   4.436  16.224  0.00  0.00    +0.000 C 
ENDROOT
BRANCH   1   2
ATOM      2  N   UNL     1      46.795   3.291  17.083  0.00  0.00    +0.000 NA
ATOM      3  H   UNL     1      47.629   2.787  17.380  0.00  0.00    +0.000 HD
ATOM      4  H   UNL     1      46.272   2.631  16.501  0.00  0.00    +0.000 HD
ENDBRANCH   1   2
BRANCH   1   5
ATOM      5  C   UNL     1      48.567   4.993  16.638  0.00  0.00    +0.000 C 
ATOM      6  O   UNL     1      49.560   4.267  16.628  0.00  0.00    +0.000 OA
BRANCH   5   7
ATOM      7  C   UNL     1      48.650   6.390  17.106  0.00  0.00    +0.000 A 
ATOM      8  C   UNL     1      49.050   7.446  16.298  0.00  0.00    +0.000 A 
ATOM      9  S   UNL     1      48.934   8.969  17.063  0.00  0.00    +0.000 S 
ATOM     10  C   UNL     1      48.349   8.264  18.495  0.00  0.00    +0.000 A 
ATOM     11  N   UNL     1      48.009   9.033  19.564  0.00  0.00    +0.000 NA
ATOM     12  C   UNL     1      47.563   8.366  20.575  0.00  0.00    +0.000 A 
ATOM     13  N   UNL     1      47.452   7.000  20.625  0.00  0.00    +0.000 N 
ATOM     14  C   UNL     1      47.900   6.175  19.617  0.00  0.00    +0.000 A 
ATOM     15  O   UNL     1      48.019   4.969  19.794  0.00  0.00    +0.000 OA
ATOM     16  C   UNL     1      48.294   6.882  18.414  0.00  0.00    +0.000 A 
ATOM     17  H   UNL     1      47.173   6.536  21.477  0.00  0.00    +0.000 HD
ENDBRANCH   5   7
ENDBRANCH   1   5
BRANCH   1  18
ATOM     18  C   UNL     1      47.220   4.062  14.720  0.00  0.00    +0.000 C 
BRANCH  18  19
ATOM     19  N   UNL     1      45.946   4.332  14.022  0.00  0.00    +0.000 NA
ATOM     20  C   UNL     1      45.938   5.656  13.393  0.00  0.00    +0.000 C 
ATOM     21  C   UNL     1      44.605   5.955  12.723  0.00  0.00    +0.000 C 
ATOM     22  C   UNL     1      44.214   4.871  11.727  0.00  0.00    +0.000 C 
ATOM     23  C   UNL     1      44.265   3.500  12.414  0.00  0.00    +0.000 C 
ATOM     24  C   UNL     1      45.616   3.249  13.087  0.00  0.00    +0.000 C 
BRANCH  22  25
ATOM     25  C   UNL     1      45.095   4.916  10.466  0.00  0.00    +0.000 C 
BRANCH  25  26
ATOM     26  O   UNL     1      44.937   3.750   9.660  0.00  0.00    +0.000 OA
BRANCH  26  27
ATOM     27  C   UNL     1      45.055   4.023   8.267  0.00  0.00    +0.000 C 
BRANCH  27  28
ATOM     28  C   UNL     1      45.974   3.015   7.648  0.00  0.00    +0.000 A 
ATOM     29  C   UNL     1      46.730   3.345   6.520  0.00  0.00    +0.000 A 
ATOM     30  C   UNL     1      47.617   2.408   6.021  0.00  0.00    +0.000 A 
ATOM     31  N   UNL     1      47.797   1.184   6.563  0.00  0.00    +0.000 NA
ATOM     32  C   UNL     1      47.049   0.887   7.647  0.00  0.00    +0.000 A 
ATOM     33  C   UNL     1      46.137   1.754   8.221  0.00  0.00    +0.000 A 
ENDBRANCH  27  28
ENDBRANCH  26  27
ENDBRANCH  25  26
ENDBRANCH  22  25
ENDBRANCH  18  19
ENDBRANCH   1  18
TORSDOF 9
ENDMDL
MODEL 3
REMARK VINA RESULT:    -7.571      2.513      3.120
REMARK INTER + INTRA:         -12.194
REMARK INTER:                 -11.218
REMARK INTRA:                  -0.976
REMARK UNBOUND:                -0.861
REMARK  Name = 
REMARK  9 active torsions:
REMARK  status: ('A' for Active; 'I' for Inactive)
REMARK    1  A    between atoms: N_1  and  C_2
REMARK    2  A    between atoms: C_2  and  C_3
REMARK    3  A    between atoms: C_2  and  C_19
REMARK    4  A    between atoms: C_3  and  N_4
REMARK    5  A    between atoms: C_7  and  C_8
REMARK    6  A    between atoms: C_8  and  O_9
REMARK    7  A    between atoms: O_9  and  C_10
REMARK    8  A    between atoms: C_10  and  C_11
REMARK    9  A    between atoms: C_19  and  C_21
REMARK                            x       y       z     vdW  Elec       q    Type
REMARK                         _______ _______ _______ _____ _____    ______ ____
ROOT
ATOM      1  C   UNL     1      47.894   6.601  13.717  0.00  0.00    +0.000 C 
ENDROOT
BRANCH   1   2
ATOM      2  N   UNL     1      49.005   6.317  12.774  0.00  0.00    +0.000 NA
ATOM      3  H   UNL     1      49.045   7.049  12.067  0.00  0.00    +0.000 HD
ATOM      4  H   UNL     1      48.770   5.461  12.265  0.00  0.00    +0.000 HD
ENDBRANCH   1   2
BRANCH   1   5
ATOM      5  C   UNL     1      48.397   7.362  14.958  0.00  0.00    +0.000 C 
ATOM      6  O   UNL     1      48.175   8.567  15.081  0.00  0.00    +0.000 OA
BRANCH   5   7
ATOM      7  C   UNL     1      49.203   6.632  15.955  0.00  0.00    +0.000 A 
ATOM      8  C   UNL     1      48.656   5.785  16.910  0.00  0.00    +0.000 A 
ATOM      9  S   UNL     1      49.829   4.977  17.852  0.00  0.00    +0.000 S 
ATOM     10  C   UNL     1      51.100   5.735  17.016  0.00  0.00    +0.000 A 
ATOM     11  N   UNL     1      52.397   5.452  17.311  0.00  0.00    +0.000 NA
ATOM     12  C   UNL     1      53.255   6.086  16.586  0.00  0.00    +0.000 A 
ATOM     13  N   UNL     1      52.936   6.998  15.612  0.00  0.00    +0.000 N 
ATOM     14  C   UNL     1      51.644   7.408  15.364  0.00  0.00    +0.000 A 
ATOM     15  O   UNL     1      51.417   8.393  14.675  0.00  0.00    +0.000 OA
ATOM     16  C   UNL     1      50.640   6.634  16.068  0.00  0.00    +0.000 A 
ATOM     17  H   UNL     1      53.658   7.520  15.137  0.00  0.00    +0.000 HD
ENDBRANCH   5   7
ENDBRANCH   1   5
BRANCH   1  18
ATOM     18  C   UNL     1      46.748   7.405  13.051  0.00  0.00    +0.000 C 
BRANCH  18  19
ATOM     19  N   UNL     1      45.533   6.601  12.802  0.00  0.00    +0.000 NA
ATOM     20  C   UNL     1      45.155   6.608  11.385  0.00  0.00    +0.000 C 
ATOM     21  C   UNL     1      43.872   5.827  11.138  0.00  0.00    +0.000 C 
ATOM     22  C   UNL     1      43.962   4.405  11.675  0.00  0.00    +0.000 C 
ATOM     23  C   UNL     1      44.391   4.438  13.148  0.00  0.00    +0.000 C 
ATOM     24  C   UNL     1      45.674   5.247  13.352  0.00  0.00    +0.000 C 
BRANCH  22  25
ATOM     25  C   UNL     1      44.903   3.535  10.822  0.00  0.00    +0.000 C 
BRANCH  25  26
ATOM     26  O   UNL     1      44.233   2.960   9.702  0.00  0.00    +0.000 OA
BRANCH  26  27
ATOM     27  C   UNL     1      44.641   3.531   8.463  0.00  0.00    +0.000 C 
BRANCH  27  28
ATOM     28  C   UNL     1      45.816   2.766   7.936  0.00  0.00    +0.000 A 
ATOM     29  C   UNL     1      45.940   1.397   8.186  0.00  0.00    +0.000 A 
ATOM     30  C   UNL     1      47.003   0.715   7.624  0.00  0.00    +0.000 A 
ATOM     31  N   UNL     1      47.938   1.298   6.842  0.00  0.00    +0.000 NA
ATOM     32  C   UNL     1      47.801   2.623   6.621  0.00  0.00    +0.000 A 
ATOM     33  C   UNL     1      46.772   3.392   7.137  0.00  0.00    +0.000 A 
ENDBRANCH  27  28
ENDBRANCH  26  27
ENDBRANCH  25  26
ENDBRANCH  22  25
ENDBRANCH  18  19
ENDBRANCH   1  18
TORSDOF 9
ENDMDL
MODEL 4
REMARK VINA RESULT:    -7.557      1.507      2.063
REMARK INTER + INTRA:         -12.172
REMARK INTER:                 -11.302
REMARK INTRA:                  -0.871
REMARK UNBOUND:                -0.861
REMARK  Name = 
REMARK  9 active torsions:
REMARK  status: ('A' for Active; 'I' for Inactive)
REMARK    1  A    between atoms: N_1  and  C_2
REMARK    2  A    between atoms: C_2  and  C_3
REMARK    3  A    between atoms: C_2  and  C_19
REMARK    4  A    between atoms: C_3  and  N_4
REMARK    5  A    between atoms: C_7  and  C_8
REMARK    6  A    between atoms: C_8  and  O_9
REMARK    7  A    between atoms: O_9  and  C_10
REMARK    8  A    between atoms: C_10  and  C_11
REMARK    9  A    between atoms: C_19  and  C_21
REMARK                            x       y       z     vdW  Elec       q    Type
REMARK                         _______ _______ _______ _____ _____    ______ ____
ROOT
ATOM      1  C   UNL     1      47.539   4.403  14.969  0.00  0.00    +0.000 C 
ENDROOT
BRANCH   1   2
ATOM      2  N   UNL     1      47.367   5.873  15.092  0.00  0.00    +0.000 NA
ATOM      3  H   UNL     1      46.374   6.096  15.122  0.00  0.00    +0.000 HD
ATOM      4  H   UNL     1      47.714   6.299  14.229  0.00  0.00    +0.000 HD
ENDBRANCH   1   2
BRANCH   1   5
ATOM      5  C   UNL     1      47.610   3.733  16.355  0.00  0.00    +0.000 C 
ATOM      6  O   UNL     1      46.590   3.589  17.029  0.00  0.00    +0.000 OA
BRANCH   5   7
ATOM      7  C   UNL     1      48.930   3.331  16.878  0.00  0.00    +0.000 A 
ATOM      8  C   UNL     1      49.427   2.038  16.792  0.00  0.00    +0.000 A 
ATOM      9  S   UNL     1      51.028   1.886  17.366  0.00  0.00    +0.000 S 
ATOM     10  C   UNL     1      51.104   3.540  17.749  0.00  0.00    +0.000 A 
ATOM     11  N   UNL     1      52.239   4.088  18.258  0.00  0.00    +0.000 NA
ATOM     12  C   UNL     1      52.161   5.356  18.484  0.00  0.00    +0.000 A 
ATOM     13  N   UNL     1      51.042   6.121  18.274  0.00  0.00    +0.000 N 
ATOM     14  C   UNL     1      49.834   5.588  17.878  0.00  0.00    +0.000 A 
ATOM     15  O   UNL     1      48.804   6.246  17.942  0.00  0.00    +0.000 OA
ATOM     16  C   UNL     1      49.908   4.192  17.495  0.00  0.00    +0.000 A 
ATOM     17  H   UNL     1      51.022   7.092  18.548  0.00  0.00    +0.000 HD
ENDBRANCH   5   7
ENDBRANCH   1   5
BRANCH   1  18
ATOM     18  C   UNL     1      46.408   3.745  14.138  0.00  0.00    +0.000 C 
BRANCH  18  19
ATOM     19  N   UNL     1      45.602   4.715  13.369  0.00  0.00    +0.000 NA
ATOM     20  C   UNL     1      46.217   5.033  12.076  0.00  0.00    +0.000 C 
ATOM     21  C   UNL     1      45.416   6.076  11.310  0.00  0.00    +0.000 C 
ATOM     22  C   UNL     1      43.961   5.659  11.138  0.00  0.00    +0.000 C 
ATOM     23  C   UNL     1      43.363   5.305  12.507  0.00  0.00    +0.000 C 
ATOM     24  C   UNL     1      44.209   4.267  13.248  0.00  0.00    +0.000 C 
BRANCH  22  25
ATOM     25  C   UNL     1      43.817   4.504  10.131  0.00  0.00    +0.000 C 
BRANCH  25  26
ATOM     26  O   UNL     1      44.946   4.405   9.265  0.00  0.00    +0.000 OA
BRANCH  26  27
ATOM     27  C   UNL     1      44.638   3.767   8.030  0.00  0.00    +0.000 C 
BRANCH  27  28
ATOM     28  C   UNL     1      45.793   2.904   7.624  0.00  0.00    +0.000 A 
ATOM     29  C   UNL     1      46.834   3.430   6.854  0.00  0.00    +0.000 A 
ATOM     30  C   UNL     1      47.914   2.618   6.559  0.00  0.00    +0.000 A 
ATOM     31  N   UNL     1      48.024   1.338   6.974  0.00  0.00    +0.000 NA
ATOM     32  C   UNL     1      47.003   0.851   7.711  0.00  0.00    +0.000 A 
ATOM     33  C   UNL     1      45.881   1.582   8.059  0.00  0.00    +0.000 A 
ENDBRANCH  27  28
ENDBRANCH  26  27
ENDBRANCH  25  26
ENDBRANCH  22  25
ENDBRANCH  18  19
ENDBRANCH   1  18
TORSDOF 9
ENDMDL
MODEL 5
REMARK VINA RESULT:    -7.166      2.060      3.236
REMARK INTER + INTRA:         -11.588
REMARK INTER:                 -10.464
REMARK INTRA:                  -1.123
REMARK UNBOUND:                -0.861
REMARK  Name = 
REMARK  9 active torsions:
REMARK  status: ('A' for Active; 'I' for Inactive)
REMARK    1  A    between atoms: N_1  and  C_2
REMARK    2  A    between atoms: C_2  and  C_3
REMARK    3  A    between atoms: C_2  and  C_19
REMARK    4  A    between atoms: C_3  and  N_4
REMARK    5  A    between atoms: C_7  and  C_8
REMARK    6  A    between atoms: C_8  and  O_9
REMARK    7  A    between atoms: O_9  and  C_10
REMARK    8  A    between atoms: C_10  and  C_11
REMARK    9  A    between atoms: C_19  and  C_21
REMARK                            x       y       z     vdW  Elec       q    Type
REMARK                         _______ _______ _______ _____ _____    ______ ____
ROOT
ATOM      1  C   UNL     1      50.091   6.043  16.544  0.00  0.00    +0.000 C 
ENDROOT
BRANCH   1   2
ATOM      2  N   UNL     1      50.806   7.344  16.546  0.00  0.00    +0.000 NA
ATOM      3  H   UNL     1      51.287   7.464  17.436  0.00  0.00    +0.000 HD
ATOM      4  H   UNL     1      50.102   8.086  16.516  0.00  0.00    +0.000 HD
ENDBRANCH   1   2
BRANCH   1   5
ATOM      5  C   UNL     1      50.244   5.321  17.897  0.00  0.00    +0.000 C 
ATOM      6  O   UNL     1      49.374   5.429  18.761  0.00  0.00    +0.000 OA
BRANCH   5   7
ATOM      7  C   UNL     1      51.479   4.556  18.152  0.00  0.00    +0.000 A 
ATOM      8  C   UNL     1      52.614   5.104  18.735  0.00  0.00    +0.000 A 
ATOM      9  S   UNL     1      53.848   3.960  19.026  0.00  0.00    +0.000 S 
ATOM     10  C   UNL     1      52.908   2.702  18.379  0.00  0.00    +0.000 A 
ATOM     11  N   UNL     1      53.371   1.423  18.357  0.00  0.00    +0.000 NA
ATOM     12  C   UNL     1      52.545   0.569  17.855  0.00  0.00    +0.000 A 
ATOM     13  N   UNL     1      51.309   0.879  17.348  0.00  0.00    +0.000 N 
ATOM     14  C   UNL     1      50.849   2.173  17.236  0.00  0.00    +0.000 A 
ATOM     15  O   UNL     1      49.864   2.436  16.558  0.00  0.00    +0.000 OA
ATOM     16  C   UNL     1      51.689   3.152  17.897  0.00  0.00    +0.000 A 
ATOM     17  H   UNL     1      50.745   0.175  16.895  0.00  0.00    +0.000 HD
ENDBRANCH   5   7
ENDBRANCH   1   5
BRANCH   1  18
ATOM     18  C   UNL     1      48.585   6.199  16.213  0.00  0.00    +0.000 C 
BRANCH  18  19
ATOM     19  N   UNL     1      48.214   5.654  14.890  0.00  0.00    +0.000 NA
ATOM     20  C   UNL     1      47.194   4.606  14.999  0.00  0.00    +0.000 C 
ATOM     21  C   UNL     1      46.854   4.006  13.642  0.00  0.00    +0.000 C 
ATOM     22  C   UNL     1      46.441   5.073  12.637  0.00  0.00    +0.000 C 
ATOM     23  C   UNL     1      47.517   6.165  12.576  0.00  0.00    +0.000 C 
ATOM     24  C   UNL     1      47.838   6.728  13.962  0.00  0.00    +0.000 C 
BRANCH  22  25
ATOM     25  C   UNL     1      45.052   5.651  12.963  0.00  0.00    +0.000 C 
BRANCH  25  26
ATOM     26  O   UNL     1      44.004   4.908  12.344  0.00  0.00    +0.000 OA
BRANCH  26  27
ATOM     27  C   UNL     1      43.780   5.292  10.991  0.00  0.00    +0.000 C 
BRANCH  27  28
ATOM     28  C   UNL     1      44.419   4.285  10.085  0.00  0.00    +0.000 A 
ATOM     29  C   UNL     1      44.151   2.922  10.240  0.00  0.00    +0.000 A 
ATOM     30  C   UNL     1      44.708   2.032   9.340  0.00  0.00    +0.000 A 
ATOM     31  N   UNL     1      45.502   2.404   8.312  0.00  0.00    +0.000 NA
ATOM     32  C   UNL     1      45.752   3.724   8.188  0.00  0.00    +0.000 A 
ATOM     33  C   UNL     1      45.242   4.692   9.035  0.00  0.00    +0.000 A 
ENDBRANCH  27  28
ENDBRANCH  26  27
ENDBRANCH  25  26
ENDBRANCH  22  25
ENDBRANCH  18  19
ENDBRANCH   1  18
TORSDOF 9
ENDMDL
MODEL 6
REMARK VINA RESULT:    -6.643      3.985      4.863
REMARK INTER + INTRA:         -10.805
REMARK INTER:                  -9.988
REMARK INTRA:                  -0.818
REMARK UNBOUND:                -0.861
REMARK  Name = 
REMARK  9 active torsions:
REMARK  status: ('A' for Active; 'I' for Inactive)
REMARK    1  A    between atoms: N_1  and  C_2
REMARK    2  A    between atoms: C_2  and  C_3
REMARK    3  A    between atoms: C_2  and  C_19
REMARK    4  A    between atoms: C_3  and  N_4
REMARK    5  A    between atoms: C_7  and  C_8
REMARK    6  A    between atoms: C_8  and  O_9
REMARK    7  A    between atoms: O_9  and  C_10
REMARK    8  A    between atoms: C_10  and  C_11
REMARK    9  A    between atoms: C_19  and  C_21
REMARK                            x       y       z     vdW  Elec       q    Type
REMARK                         _______ _______ _______ _____ _____    ______ ____
ROOT
ATOM      1  C   UNL     1      47.275   7.595  12.745  0.00  0.00    +0.000 C 
ENDROOT
BRANCH   1   2
ATOM      2  N   UNL     1      47.823   7.116  11.450  0.00  0.00    +0.000 NA
ATOM      3  H   UNL     1      47.065   7.022  10.776  0.00  0.00    +0.000 HD
ATOM      4  H   UNL     1      48.178   6.167  11.594  0.00  0.00    +0.000 HD
ENDBRANCH   1   2
BRANCH   1   5
ATOM      5  C   UNL     1      48.093   8.781  13.291  0.00  0.00    +0.000 C 
ATOM      6  O   UNL     1      47.670   9.932  13.178  0.00  0.00    +0.000 OA
BRANCH   5   7
ATOM      7  C   UNL     1      49.415   8.512  13.888  0.00  0.00    +0.000 A 
ATOM      8  C   UNL     1      49.587   7.984  15.161  0.00  0.00    +0.000 A 
ATOM      9  S   UNL     1      51.219   7.660  15.546  0.00  0.00    +0.000 S 
ATOM     10  C   UNL     1      51.743   8.218  14.029  0.00  0.00    +0.000 A 
ATOM     11  N   UNL     1      53.059   8.182  13.688  0.00  0.00    +0.000 NA
ATOM     12  C   UNL     1      53.311   8.619  12.500  0.00  0.00    +0.000 A 
ATOM     13  N   UNL     1      52.371   9.115  11.632  0.00  0.00    +0.000 N 
ATOM     14  C   UNL     1      51.049   9.286  11.979  0.00  0.00    +0.000 A 
ATOM     15  O   UNL     1      50.296   9.955  11.284  0.00  0.00    +0.000 OA
ATOM     16  C   UNL     1      50.698   8.696  13.256  0.00  0.00    +0.000 A 
ATOM     17  H   UNL     1      52.646   9.517  10.749  0.00  0.00    +0.000 HD
ENDBRANCH   5   7
ENDBRANCH   1   5
BRANCH   1  18
ATOM     18  C   UNL     1      45.784   8.003  12.639  0.00  0.00    +0.000 C 
BRANCH  18  19
ATOM     19  N   UNL     1      44.858   6.852  12.629  0.00  0.00    +0.000 NA
ATOM     20  C   UNL     1      44.282   6.627  11.299  0.00  0.00    +0.000 C 
ATOM     21  C   UNL     1      43.285   5.477  11.304  0.00  0.00    +0.000 C 
ATOM     22  C   UNL     1      43.895   4.198  11.861  0.00  0.00    +0.000 C 
ATOM     23  C   UNL     1      44.515   4.483  13.236  0.00  0.00    +0.000 C 
ATOM     24  C   UNL     1      45.497   5.655  13.189  0.00  0.00    +0.000 C 
BRANCH  22  25
ATOM     25  C   UNL     1      44.916   3.585  10.886  0.00  0.00    +0.000 C 
BRANCH  25  26
ATOM     26  O   UNL     1      44.283   2.944   9.781  0.00  0.00    +0.000 OA
BRANCH  26  27
ATOM     27  C   UNL     1      44.645   3.518   8.529  0.00  0.00    +0.000 C 
BRANCH  27  28
ATOM     28  C   UNL     1      45.813   2.766   7.967  0.00  0.00    +0.000 A 
ATOM     29  C   UNL     1      45.946   1.394   8.189  0.00  0.00    +0.000 A 
ATOM     30  C   UNL     1      47.001   0.726   7.595  0.00  0.00    +0.000 A 
ATOM     31  N   UNL     1      47.918   1.326   6.806  0.00  0.00    +0.000 NA
ATOM     32  C   UNL     1      47.773   2.654   6.613  0.00  0.00    +0.000 A 
ATOM     33  C   UNL     1      46.752   3.410   7.161  0.00  0.00    +0.000 A 
ENDBRANCH  27  28
ENDBRANCH  26  27
ENDBRANCH  25  26
ENDBRANCH  22  25
ENDBRANCH  18  19
ENDBRANCH   1  18
TORSDOF 9
ENDMDL
MODEL 7
REMARK VINA RESULT:    -6.557      3.198      8.648
REMARK INTER + INTRA:         -10.676
REMARK INTER:                  -9.517
REMARK INTRA:                  -1.159
REMARK UNBOUND:                -0.861
REMARK  Name = 
REMARK  9 active torsions:
REMARK  status: ('A' for Active; 'I' for Inactive)
REMARK    1  A    between atoms: N_1  and  C_2
REMARK    2  A    between atoms: C_2  and  C_3
REMARK    3  A    between atoms: C_2  and  C_19
REMARK    4  A    between atoms: C_3  and  N_4
REMARK    5  A    between atoms: C_7  and  C_8
REMARK    6  A    between atoms: C_8  and  O_9
REMARK    7  A    between atoms: O_9  and  C_10
REMARK    8  A    between atoms: C_10  and  C_11
REMARK    9  A    between atoms: C_19  and  C_21
REMARK                            x       y       z     vdW  Elec       q    Type
REMARK                         _______ _______ _______ _____ _____    ______ ____
ROOT
ATOM      1  C   UNL     1      45.970   7.612  12.984  0.00  0.00    +0.000 C 
ENDROOT
BRANCH   1   2
ATOM      2  N   UNL     1      45.838   9.079  13.171  0.00  0.00    +0.000 NA
ATOM      3  H   UNL     1      46.480   9.386  13.900  0.00  0.00    +0.000 HD
ATOM      4  H   UNL     1      44.901   9.263  13.540  0.00  0.00    +0.000 HD
ENDBRANCH   1   2
BRANCH   1   5
ATOM      5  C   UNL     1      45.077   7.115  11.831  0.00  0.00    +0.000 C 
ATOM      6  O   UNL     1      44.672   7.901  10.975  0.00  0.00    +0.000 OA
BRANCH   5   7
ATOM      7  C   UNL     1      44.668   5.697  11.815  0.00  0.00    +0.000 A 
ATOM      8  C   UNL     1      44.042   5.068  12.883  0.00  0.00    +0.000 A 
ATOM      9  S   UNL     1      43.570   3.462  12.543  0.00  0.00    +0.000 S 
ATOM     10  C   UNL     1      44.190   3.558  10.964  0.00  0.00    +0.000 A 
ATOM     11  N   UNL     1      44.079   2.510  10.105  0.00  0.00    +0.000 NA
ATOM     12  C   UNL     1      44.577   2.729   8.935  0.00  0.00    +0.000 A 
ATOM     13  N   UNL     1      45.201   3.890   8.553  0.00  0.00    +0.000 N 
ATOM     14  C   UNL     1      45.447   4.928   9.425  0.00  0.00    +0.000 A 
ATOM     15  O   UNL     1      46.217   5.832   9.127  0.00  0.00    +0.000 OA
ATOM     16  C   UNL     1      44.798   4.777  10.712  0.00  0.00    +0.000 A 
ATOM     17  H   UNL     1      45.641   3.966   7.648  0.00  0.00    +0.000 HD
ENDBRANCH   5   7
ENDBRANCH   1   5
BRANCH   1  18
ATOM     18  C   UNL     1      47.435   7.181  12.722  0.00  0.00    +0.000 C 
BRANCH  18  19
ATOM     19  N   UNL     1      48.420   7.909  13.548  0.00  0.00    +0.000 NA
ATOM     20  C   UNL     1      48.204   7.683  14.981  0.00  0.00    +0.000 C 
ATOM     21  C   UNL     1      49.182   8.479  15.833  0.00  0.00    +0.000 C 
ATOM     22  C   UNL     1      50.629   8.201  15.445  0.00  0.00    +0.000 C 
ATOM     23  C   UNL     1      50.806   8.417  13.936  0.00  0.00    +0.000 C 
ATOM     24  C   UNL     1      49.792   7.612  13.120  0.00  0.00    +0.000 C 
BRANCH  22  25
ATOM     25  C   UNL     1      51.071   6.792  15.880  0.00  0.00    +0.000 C 
BRANCH  25  26
ATOM     26  O   UNL     1      50.766   6.534  17.249  0.00  0.00    +0.000 OA
BRANCH  26  27
ATOM     27  C   UNL     1      50.821   5.148  17.573  0.00  0.00    +0.000 C 
BRANCH  27  28
ATOM     28  C   UNL     1      49.444   4.567  17.469  0.00  0.00    +0.000 A 
ATOM     29  C   UNL     1      49.264   3.240  17.071  0.00  0.00    +0.000 A 
ATOM     30  C   UNL     1      47.982   2.723  17.053  0.00  0.00    +0.000 A 
ATOM     31  N   UNL     1      46.884   3.430  17.399  0.00  0.00    +0.000 NA
ATOM     32  C   UNL     1      47.083   4.712  17.773  0.00  0.00    +0.000 A 
ATOM     33  C   UNL     1      48.325   5.319  17.824  0.00  0.00    +0.000 A 
ENDBRANCH  27  28
ENDBRANCH  26  27
ENDBRANCH  25  26
ENDBRANCH  22  25
ENDBRANCH  18  19
ENDBRANCH   1  18
TORSDOF 9
ENDMDL
MODEL 8
REMARK VINA RESULT:    -6.491      3.760      8.434
REMARK INTER + INTRA:         -10.578
REMARK INTER:                  -8.735
REMARK INTRA:                  -1.843
REMARK UNBOUND:                -0.861
REMARK  Name = 
REMARK  9 active torsions:
REMARK  status: ('A' for Active; 'I' for Inactive)
REMARK    1  A    between atoms: N_1  and  C_2
REMARK    2  A    between atoms: C_2  and  C_3
REMARK    3  A    between atoms: C_2  and  C_19
REMARK    4  A    between atoms: C_3  and  N_4
REMARK    5  A    between atoms: C_7  and  C_8
REMARK    6  A    between atoms: C_8  and  O_9
REMARK    7  A    between atoms: O_9  and  C_10
REMARK    8  A    between atoms: C_10  and  C_11
REMARK    9  A    between atoms: C_19  and  C_21
REMARK                            x       y       z     vdW  Elec       q    Type
REMARK                         _______ _______ _______ _____ _____    ______ ____
ROOT
ATOM      1  C   UNL     1      48.471   6.274  14.797  0.00  0.00    +0.000 C 
ENDROOT
BRANCH   1   2
ATOM      2  N   UNL     1      47.420   5.568  15.573  0.00  0.00    +0.000 NA
ATOM      3  H   UNL     1      47.612   5.664  16.568  0.00  0.00    +0.000 HD
ATOM      4  H   UNL     1      47.507   4.567  15.376  0.00  0.00    +0.000 HD
ENDBRANCH   1   2
BRANCH   1   5
ATOM      5  C   UNL     1      48.177   6.222  13.286  0.00  0.00    +0.000 C 
ATOM      6  O   UNL     1      49.098   6.278  12.471  0.00  0.00    +0.000 OA
BRANCH   5   7
ATOM      7  C   UNL     1      46.771   6.169  12.841  0.00  0.00    +0.000 A 
ATOM      8  C   UNL     1      46.047   7.288  12.455  0.00  0.00    +0.000 A 
ATOM      9  S   UNL     1      44.486   6.919  11.870  0.00  0.00    +0.000 S 
ATOM     10  C   UNL     1      44.729   5.255  12.118  0.00  0.00    +0.000 A 
ATOM     11  N   UNL     1      43.770   4.351  11.783  0.00  0.00    +0.000 NA
ATOM     12  C   UNL     1      44.097   3.124  12.009  0.00  0.00    +0.000 A 
ATOM     13  N   UNL     1      45.284   2.719  12.565  0.00  0.00    +0.000 N 
ATOM     14  C   UNL     1      46.231   3.603  13.033  0.00  0.00    +0.000 A 
ATOM     15  O   UNL     1      47.152   3.222  13.743  0.00  0.00    +0.000 OA
ATOM     16  C   UNL     1      45.961   4.985  12.690  0.00  0.00    +0.000 A 
ATOM     17  H   UNL     1      45.443   1.748  12.790  0.00  0.00    +0.000 HD
ENDBRANCH   5   7
ENDBRANCH   1   5
BRANCH   1  18
ATOM     18  C   UNL     1      48.637   7.750  15.238  0.00  0.00    +0.000 C 
BRANCH  18  19
ATOM     19  N   UNL     1      49.908   8.015  15.943  0.00  0.00    +0.000 NA
ATOM     20  C   UNL     1      49.949   7.367  17.258  0.00  0.00    +0.000 C 
ATOM     21  C   UNL     1      51.235   7.687  18.006  0.00  0.00    +0.000 C 
ATOM     22  C   UNL     1      52.470   7.341  17.185  0.00  0.00    +0.000 C 
ATOM     23  C   UNL     1      52.375   8.011  15.807  0.00  0.00    +0.000 C 
ATOM     24  C   UNL     1      51.061   7.675  15.099  0.00  0.00    +0.000 C 
BRANCH  22  25
ATOM     25  C   UNL     1      52.668   5.819  17.072  0.00  0.00    +0.000 C 
BRANCH  25  26
ATOM     26  O   UNL     1      52.334   5.144  18.284  0.00  0.00    +0.000 OA
BRANCH  26  27
ATOM     27  C   UNL     1      52.122   3.749  18.097  0.00  0.00    +0.000 C 
BRANCH  27  28
ATOM     28  C   UNL     1      50.653   3.491  17.964  0.00  0.00    +0.000 A 
ATOM     29  C   UNL     1      49.737   4.185  18.759  0.00  0.00    +0.000 A 
ATOM     30  C   UNL     1      48.386   3.966  18.557  0.00  0.00    +0.000 A 
ATOM     31  N   UNL     1      47.896   3.115  17.630  0.00  0.00    +0.000 NA
ATOM     32  C   UNL     1      48.800   2.450  16.880  0.00  0.00    +0.000 A 
ATOM     33  C   UNL     1      50.170   2.601  17.005  0.00  0.00    +0.000 A 
ENDBRANCH  27  28
ENDBRANCH  26  27
ENDBRANCH  25  26
ENDBRANCH  22  25
ENDBRANCH  18  19
ENDBRANCH   1  18
TORSDOF 9
ENDMDL
MODEL 9
REMARK VINA RESULT:    -6.488      3.971      8.308
REMARK INTER + INTRA:         -10.573
REMARK INTER:                  -8.660
REMARK INTRA:                  -1.912
REMARK UNBOUND:                -0.861
REMARK  Name = 
REMARK  9 active torsions:
REMARK  status: ('A' for Active; 'I' for Inactive)
REMARK    1  A    between atoms: N_1  and  C_2
REMARK    2  A    between atoms: C_2  and  C_3
REMARK    3  A    between atoms: C_2  and  C_19
REMARK    4  A    between atoms: C_3  and  N_4
REMARK    5  A    between atoms: C_7  and  C_8
REMARK    6  A    between atoms: C_8  and  O_9
REMARK    7  A    between atoms: O_9  and  C_10
REMARK    8  A    between atoms: C_10  and  C_11
REMARK    9  A    between atoms: C_19  and  C_21
REMARK                            x       y       z     vdW  Elec       q    Type
REMARK                         _______ _______ _______ _____ _____    ______ ____
ROOT
ATOM      1  C   UNL     1      47.543   8.662  13.576  0.00  0.00    +0.000 C 
ENDROOT
BRANCH   1   2
ATOM      2  N   UNL     1      46.483   9.634  13.207  0.00  0.00    +0.000 NA
ATOM      3  H   UNL     1      46.250   9.523  12.222  0.00  0.00    +0.000 HD
ATOM      4  H   UNL     1      46.880  10.573  13.288  0.00  0.00    +0.000 HD
ENDBRANCH   1   2
BRANCH   1   5
ATOM      5  C   UNL     1      47.642   7.526  12.540  0.00  0.00    +0.000 C 
ATOM      6  O   UNL     1      48.237   7.704  11.477  0.00  0.00    +0.000 OA
BRANCH   5   7
ATOM      7  C   UNL     1      46.955   6.251  12.822  0.00  0.00    +0.000 A 
ATOM      8  C   UNL     1      47.594   5.137  13.350  0.00  0.00    +0.000 A 
ATOM      9  S   UNL     1      46.533   3.843  13.691  0.00  0.00    +0.000 S 
ATOM     10  C   UNL     1      45.191   4.729  13.141  0.00  0.00    +0.000 A 
ATOM     11  N   UNL     1      43.938   4.203  13.192  0.00  0.00    +0.000 NA
ATOM     12  C   UNL     1      43.014   4.993  12.759  0.00  0.00    +0.000 A 
ATOM     13  N   UNL     1      43.231   6.251  12.255  0.00  0.00    +0.000 N 
ATOM     14  C   UNL     1      44.491   6.775  12.069  0.00  0.00    +0.000 A 
ATOM     15  O   UNL     1      44.662   7.781  11.393  0.00  0.00    +0.000 OA
ATOM     16  C   UNL     1      45.550   5.975  12.653  0.00  0.00    +0.000 A 
ATOM     17  H   UNL     1      42.473   6.785  11.857  0.00  0.00    +0.000 HD
ENDBRANCH   5   7
ENDBRANCH   1   5
BRANCH   1  18
ATOM     18  C   UNL     1      48.930   9.334  13.736  0.00  0.00    +0.000 C 
BRANCH  18  19
ATOM     19  N   UNL     1      49.506   9.181  15.088  0.00  0.00    +0.000 NA
ATOM     20  C   UNL     1      48.696   9.857  16.106  0.00  0.00    +0.000 C 
ATOM     21  C   UNL     1      49.321   9.747  17.489  0.00  0.00    +0.000 C 
ATOM     22  C   UNL     1      49.594   8.299  17.876  0.00  0.00    +0.000 C 
ATOM     23  C   UNL     1      50.415   7.619  16.772  0.00  0.00    +0.000 C 
ATOM     24  C   UNL     1      49.758   7.768  15.398  0.00  0.00    +0.000 C 
BRANCH  22  25
ATOM     25  C   UNL     1      48.290   7.537  18.175  0.00  0.00    +0.000 C 
BRANCH  25  26
ATOM     26  O   UNL     1      48.537   6.263  18.767  0.00  0.00    +0.000 OA
BRANCH  26  27
ATOM     27  C   UNL     1      47.701   5.239  18.238  0.00  0.00    +0.000 C 
BRANCH  27  28
ATOM     28  C   UNL     1      48.561   4.153  17.667  0.00  0.00    +0.000 A 
ATOM     29  C   UNL     1      49.940   4.150  17.891  0.00  0.00    +0.000 A 
ATOM     30  C   UNL     1      50.687   3.093  17.404  0.00  0.00    +0.000 A 
ATOM     31  N   UNL     1      50.158   2.055  16.719  0.00  0.00    +0.000 NA
ATOM     32  C   UNL     1      48.825   2.085  16.509  0.00  0.00    +0.000 A 
ATOM     33  C   UNL     1      47.993   3.096  16.956  0.00  0.00    +0.000 A 
ENDBRANCH  27  28
ENDBRANCH  26  27
ENDBRANCH  25  26
ENDBRANCH  22  25
ENDBRANCH  18  19
ENDBRANCH   1  18
TORSDOF 9
ENDMDL
