MODEL 1
REMARK VINA RESULT:    -8.947      0.000      0.000
REMARK INTER + INTRA:         -12.180
REMARK INTER:                 -11.563
REMARK INTRA:                  -0.618
REMARK UNBOUND:                -0.618
REMARK  Name = 
REMARK  5 active torsions:
REMARK  status: ('A' for Active; 'I' for Inactive)
REMARK    1  A    between atoms: C_2  and  C_4
REMARK    2  A    between atoms: C_7  and  O_8
REMARK    3  A    between atoms: O_8  and  C_9
REMARK    4  A    between atoms: C_9  and  C_10
REMARK    5  A    between atoms: C_12  and  C_13
REMARK                            x       y       z     vdW  Elec       q    Type
REMARK                         _______ _______ _______ _____ _____    ______ ____
ROOT
ATOM      1  C   UNL     1      43.697   4.188  11.319  0.00  0.00    +0.000 C 
ENDROOT
BRANCH   1   2
ATOM      2  C   UNL     1      44.879   4.713  12.103  0.00  0.00    +0.000 A 
ATOM      3  C   UNL     1      45.467   5.940  11.790  0.00  0.00    +0.000 A 
ATOM      4  C   UNL     1      46.590   6.393  12.502  0.00  0.00    +0.000 A 
ATOM      5  C   UNL     1      47.089   5.547  13.500  0.00  0.00    +0.000 A 
ATOM      6  C   UNL     1      46.469   4.329  13.733  0.00  0.00    +0.000 A 
ATOM      7  N   UNL     1      45.385   3.900  13.063  0.00  0.00    +0.000 NA
BRANCH   4   8
ATOM      8  C   UNL     1      47.215   7.703  12.201  0.00  0.00    +0.000 A 
ATOM      9  C   UNL     1      46.506   8.913  12.346  0.00  0.00    +0.000 A 
ATOM     10  C   UNL     1      47.098  10.151  12.068  0.00  0.00    +0.000 A 
ATOM     11  C   UNL     1      48.422  10.208  11.646  0.00  0.00    +0.000 A 
ATOM     12  C   UNL     1      49.136   9.028  11.498  0.00  0.00    +0.000 A 
ATOM     13  F   UNL     1      50.413   9.075  11.099  0.00  0.00    +0.000 F 
ATOM     14  C   UNL     1      48.548   7.793  11.761  0.00  0.00    +0.000 A 
ENDBRANCH   4   8
ENDBRANCH   1   2
BRANCH   1  15
ATOM     15  O   UNL     1      43.726   4.636   9.956  0.00  0.00    +0.000 OA
BRANCH  15  19
ATOM     16  C   UNL     1      46.406   2.449   7.719  0.00  0.00    +0.000 A 
ATOM     17  C   UNL     1      45.586   1.798   8.646  0.00  0.00    +0.000 A 
ATOM     18  C   UNL     1      44.684   2.552   9.401  0.00  0.00    +0.000 A 
ATOM     19  C   UNL     1      44.635   3.923   9.199  0.00  0.00    +0.000 A 
ATOM     20  N   UNL     1      45.418   4.575   8.316  0.00  0.00    +0.000 NA
ATOM     21  C   UNL     1      46.296   3.826   7.604  0.00  0.00    +0.000 A 
BRANCH  16  23
ATOM     22  N   UNL     1      48.471   2.466   6.441  0.00  0.00    +0.000 N 
ATOM     23  C   UNL     1      47.389   1.749   6.868  0.00  0.00    +0.000 C 
ATOM     24  O   UNL     1      47.266   0.563   6.591  0.00  0.00    +0.000 OA
ATOM     25  H   UNL     1      49.190   1.939   5.959  0.00  0.00    +0.000 HD
ATOM     26  H   UNL     1      48.740   3.347   6.856  0.00  0.00    +0.000 HD
ENDBRANCH  16  23
ENDBRANCH  15  19
ENDBRANCH   1  15
TORSDOF 5
ENDMDL
MODEL 2
REMARK VINA RESULT:    -8.947      1.511      1.835
REMARK INTER + INTRA:         -12.179
REMARK INTER:                 -11.531
REMARK INTRA:                  -0.648
REMARK UNBOUND:                -0.618
REMARK  Name = 
REMARK  5 active torsions:
REMARK  status: ('A' for Active; 'I' for Inactive)
REMARK    1  A    between atoms: C_2  and  C_4
REMARK    2  A    between atoms: C_7  and  O_8
REMARK    3  A    between atoms: O_8  and  C_9
REMARK    4  A    between atoms: C_9  and  C_10
REMARK    5  A    between atoms: C_12  and  C_13
REMARK                            x       y       z     vdW  Elec       q    Type
REMARK                         _______ _______ _______ _____ _____    ______ ____
ROOT
ATOM      1  C   UNL     1      43.852   3.219  11.475  0.00  0.00    +0.000 C 
ENDROOT
BRANCH   1   2
ATOM      2  C   UNL     1      44.959   3.972  12.182  0.00  0.00    +0.000 A 
ATOM      3  C   UNL     1      45.150   5.339  11.974  0.00  0.00    +0.000 A 
ATOM      4  C   UNL     1      46.208   6.013  12.607  0.00  0.00    +0.000 A 
ATOM      5  C   UNL     1      47.054   5.244  13.415  0.00  0.00    +0.000 A 
ATOM      6  C   UNL     1      46.816   3.885  13.550  0.00  0.00    +0.000 A 
ATOM      7  N   UNL     1      45.796   3.240  12.956  0.00  0.00    +0.000 NA
BRANCH   4   8
ATOM      8  C   UNL     1      46.415   7.468  12.417  0.00  0.00    +0.000 A 
ATOM      9  C   UNL     1      47.701   8.016  12.234  0.00  0.00    +0.000 A 
ATOM     10  C   UNL     1      47.897   9.391  12.047  0.00  0.00    +0.000 A 
ATOM     11  C   UNL     1      46.804  10.251  12.030  0.00  0.00    +0.000 A 
ATOM     12  C   UNL     1      45.531   9.730  12.208  0.00  0.00    +0.000 A 
ATOM     13  F   UNL     1      44.473  10.550  12.186  0.00  0.00    +0.000 F 
ATOM     14  C   UNL     1      45.332   8.366  12.407  0.00  0.00    +0.000 A 
ENDBRANCH   4   8
ENDBRANCH   1   2
BRANCH   1  15
ATOM     15  O   UNL     1      43.597   3.758  10.170  0.00  0.00    +0.000 OA
BRANCH  15  19
ATOM     16  C   UNL     1      46.472   2.570   7.469  0.00  0.00    +0.000 A 
ATOM     17  C   UNL     1      45.899   1.628   8.327  0.00  0.00    +0.000 A 
ATOM     18  C   UNL     1      44.927   2.044   9.241  0.00  0.00    +0.000 A 
ATOM     19  C   UNL     1      44.566   3.383   9.260  0.00  0.00    +0.000 A 
ATOM     20  N   UNL     1      45.109   4.312   8.447  0.00  0.00    +0.000 NA
ATOM     21  C   UNL     1      46.058   3.889   7.578  0.00  0.00    +0.000 A 
BRANCH  16  23
ATOM     22  N   UNL     1      47.516   2.972   5.313  0.00  0.00    +0.000 N 
ATOM     23  C   UNL     1      47.502   2.238   6.464  0.00  0.00    +0.000 C 
ATOM     24  O   UNL     1      48.340   1.369   6.671  0.00  0.00    +0.000 OA
ATOM     25  H   UNL     1      48.299   2.809   4.691  0.00  0.00    +0.000 HD
ATOM     26  H   UNL     1      47.024   3.850   5.220  0.00  0.00    +0.000 HD
ENDBRANCH  16  23
ENDBRANCH  15  19
ENDBRANCH   1  15
TORSDOF 5
ENDMDL
MODEL 3
REMARK VINA RESULT:    -8.398      2.747      4.058
REMARK INTER + INTRA:         -11.470
REMARK INTER:                 -10.938
REMARK INTRA:                  -0.532
REMARK UNBOUND:                -0.618
REMARK  Name = 
REMARK  5 active torsions:
REMARK  status: ('A' for Active; 'I' for Inactive)
REMARK    1  A    between atoms: C_2  and  C_4
REMARK    2  A    between atoms: C_7  and  O_8
REMARK    3  A    between atoms: O_8  and  C_9
REMARK    4  A    between atoms: C_9  and  C_10
REMARK    5  A    between atoms: C_12  and  C_13
REMARK                            x       y       z     vdW  Elec       q    Type
REMARK                         _______ _______ _______ _____ _____    ______ ____
ROOT
ATOM      1  C   UNL     1      44.307   4.169  11.402  0.00  0.00    +0.000 C 
ENDROOT
BRANCH   1   2
ATOM      2  C   UNL     1      45.383   4.996  12.073  0.00  0.00    +0.000 A 
ATOM      3  C   UNL     1      45.928   4.614  13.301  0.00  0.00    +0.000 A 
ATOM      4  C   UNL     1      46.896   5.416  13.929  0.00  0.00    +0.000 A 
ATOM      5  C   UNL     1      47.250   6.603  13.280  0.00  0.00    +0.000 A 
ATOM      6  C   UNL     1      46.644   6.929  12.076  0.00  0.00    +0.000 A 
ATOM      7  N   UNL     1      45.728   6.157  11.466  0.00  0.00    +0.000 NA
BRANCH   4   8
ATOM      8  C   UNL     1      47.503   5.017  15.221  0.00  0.00    +0.000 A 
ATOM      9  C   UNL     1      48.545   5.760  15.810  0.00  0.00    +0.000 A 
ATOM     10  C   UNL     1      49.114   5.387  17.035  0.00  0.00    +0.000 A 
ATOM     11  C   UNL     1      48.644   4.264  17.705  0.00  0.00    +0.000 A 
ATOM     12  C   UNL     1      47.617   3.521  17.142  0.00  0.00    +0.000 A 
ATOM     13  F   UNL     1      47.154   2.441  17.784  0.00  0.00    +0.000 F 
ATOM     14  C   UNL     1      47.057   3.879  15.918  0.00  0.00    +0.000 A 
ENDBRANCH   4   8
ENDBRANCH   1   2
BRANCH   1  15
ATOM     15  O   UNL     1      44.082   4.591  10.050  0.00  0.00    +0.000 OA
BRANCH  15  19
ATOM     16  C   UNL     1      46.646   2.703   7.436  0.00  0.00    +0.000 A 
ATOM     17  C   UNL     1      45.899   1.944   8.341  0.00  0.00    +0.000 A 
ATOM     18  C   UNL     1      45.036   2.596   9.224  0.00  0.00    +0.000 A 
ATOM     19  C   UNL     1      44.952   3.980   9.168  0.00  0.00    +0.000 A 
ATOM     20  N   UNL     1      45.666   4.735   8.309  0.00  0.00    +0.000 NA
ATOM     21  C   UNL     1      46.506   4.083   7.470  0.00  0.00    +0.000 A 
BRANCH  16  23
ATOM     22  N   UNL     1      47.883   2.860   5.351  0.00  0.00    +0.000 N 
ATOM     23  C   UNL     1      47.583   2.116   6.457  0.00  0.00    +0.000 C 
ATOM     24  O   UNL     1      48.106   1.025   6.648  0.00  0.00    +0.000 OA
ATOM     25  H   UNL     1      48.614   2.492   4.754  0.00  0.00    +0.000 HD
ATOM     26  H   UNL     1      47.685   3.848   5.289  0.00  0.00    +0.000 HD
ENDBRANCH  16  23
ENDBRANCH  15  19
ENDBRANCH   1  15
TORSDOF 5
ENDMDL
MODEL 4
REMARK VINA RESULT:    -8.102      3.689      6.872
REMARK INTER + INTRA:         -11.088
REMARK INTER:                 -10.317
REMARK INTRA:                  -0.770
REMARK UNBOUND:                -0.618
REMARK  Name = 
REMARK  5 active torsions:
REMARK  status: ('A' for Active; 'I' for Inactive)
REMARK    1  A    between atoms: C_2  and  C_4
REMARK    2  A    between atoms: C_7  and  O_8
REMARK    3  A    between atoms: O_8  and  C_9
REMARK    4  A    between atoms: C_9  and  C_10
REMARK    5  A    between atoms: C_12  and  C_13
REMARK                            x       y       z     vdW  Elec       q    Type
REMARK                         _______ _______ _______ _____ _____    ______ ____
ROOT
ATOM      1  C   UNL     1      44.060   6.547  11.591  0.00  0.00    +0.000 C 
ENDROOT
BRANCH   1   2
ATOM      2  C   UNL     1      44.090   5.084  11.206  0.00  0.00    +0.000 A 
ATOM      3  C   UNL     1      44.828   4.641  10.107  0.00  0.00    +0.000 A 
ATOM      4  C   UNL     1      44.811   3.285   9.739  0.00  0.00    +0.000 A 
ATOM      5  C   UNL     1      44.007   2.433  10.505  0.00  0.00    +0.000 A 
ATOM      6  C   UNL     1      43.280   2.952  11.565  0.00  0.00    +0.000 A 
ATOM      7  N   UNL     1      43.306   4.247  11.928  0.00  0.00    +0.000 NA
BRANCH   4   8
ATOM      8  C   UNL     1      45.604   2.791   8.589  0.00  0.00    +0.000 A 
ATOM      9  C   UNL     1      46.061   3.658   7.576  0.00  0.00    +0.000 A 
ATOM     10  C   UNL     1      46.817   3.192   6.493  0.00  0.00    +0.000 A 
ATOM     11  C   UNL     1      47.144   1.844   6.403  0.00  0.00    +0.000 A 
ATOM     12  C   UNL     1      46.704   0.975   7.391  0.00  0.00    +0.000 A 
ATOM     13  F   UNL     1      47.020  -0.324   7.316  0.00  0.00    +0.000 F 
ATOM     14  C   UNL     1      45.941   1.431   8.464  0.00  0.00    +0.000 A 
ENDBRANCH   4   8
ENDBRANCH   1   2
BRANCH   1  15
ATOM     15  O   UNL     1      44.688   6.773  12.861  0.00  0.00    +0.000 OA
BRANCH  15  19
ATOM     16  C   UNL     1      48.674   7.729  12.447  0.00  0.00    +0.000 A 
ATOM     17  C   UNL     1      47.698   8.659  12.078  0.00  0.00    +0.000 A 
ATOM     18  C   UNL     1      46.350   8.322  12.220  0.00  0.00    +0.000 A 
ATOM     19  C   UNL     1      46.030   7.070  12.726  0.00  0.00    +0.000 A 
ATOM     20  N   UNL     1      46.952   6.153  13.083  0.00  0.00    +0.000 NA
ATOM     21  C   UNL     1      48.254   6.497  12.924  0.00  0.00    +0.000 A 
BRANCH  16  23
ATOM     22  N   UNL     1      50.897   7.673  13.425  0.00  0.00    +0.000 N 
ATOM     23  C   UNL     1      50.125   7.984  12.342  0.00  0.00    +0.000 C 
ATOM     24  O   UNL     1      50.625   8.416  11.311  0.00  0.00    +0.000 OA
ATOM     25  H   UNL     1      51.898   7.745  13.292  0.00  0.00    +0.000 HD
ATOM     26  H   UNL     1      50.569   7.083  14.176  0.00  0.00    +0.000 HD
ENDBRANCH  16  23
ENDBRANCH  15  19
ENDBRANCH   1  15
TORSDOF 5
ENDMDL
MODEL 5
REMARK VINA RESULT:    -8.033      1.705      2.273
REMARK INTER + INTRA:         -10.999
REMARK INTER:                 -10.317
REMARK INTRA:                  -0.682
REMARK UNBOUND:                -0.618
REMARK  Name = 
REMARK  5 active torsions:
REMARK  status: ('A' for Active; 'I' for Inactive)
REMARK    1  A    between atoms: C_2  and  C_4
REMARK    2  A    between atoms: C_7  and  O_8
REMARK    3  A    between atoms: O_8  and  C_9
REMARK    4  A    between atoms: C_9  and  C_10
REMARK    5  A    between atoms: C_12  and  C_13
REMARK                            x       y       z     vdW  Elec       q    Type
REMARK                         _______ _______ _______ _____ _____    ______ ____
ROOT
ATOM      1  C   UNL     1      44.189   4.034  11.533  0.00  0.00    +0.000 C 
ENDROOT
BRANCH   1   2
ATOM      2  C   UNL     1      44.721   5.449  11.599  0.00  0.00    +0.000 A 
ATOM      3  C   UNL     1      46.040   5.709  11.977  0.00  0.00    +0.000 A 
ATOM      4  C   UNL     1      46.505   7.031  12.073  0.00  0.00    +0.000 A 
ATOM      5  C   UNL     1      45.581   8.047  11.801  0.00  0.00    +0.000 A 
ATOM      6  C   UNL     1      44.280   7.711  11.459  0.00  0.00    +0.000 A 
ATOM      7  N   UNL     1      43.836   6.445  11.353  0.00  0.00    +0.000 NA
BRANCH   4   8
ATOM      8  C   UNL     1      47.907   7.327  12.451  0.00  0.00    +0.000 A 
ATOM      9  C   UNL     1      48.836   7.828  11.517  0.00  0.00    +0.000 A 
ATOM     10  C   UNL     1      50.160   8.115  11.876  0.00  0.00    +0.000 A 
ATOM     11  C   UNL     1      50.582   7.916  13.185  0.00  0.00    +0.000 A 
ATOM     12  C   UNL     1      49.681   7.425  14.119  0.00  0.00    +0.000 A 
ATOM     13  F   UNL     1      50.078   7.238  15.384  0.00  0.00    +0.000 F 
ATOM     14  C   UNL     1      48.368   7.126  13.765  0.00  0.00    +0.000 A 
ENDBRANCH   4   8
ENDBRANCH   1   2
BRANCH   1  15
ATOM     15  O   UNL     1      43.613   3.745  10.251  0.00  0.00    +0.000 OA
BRANCH  15  19
ATOM     16  C   UNL     1      46.467   2.653   7.489  0.00  0.00    +0.000 A 
ATOM     17  C   UNL     1      45.991   1.707   8.402  0.00  0.00    +0.000 A 
ATOM     18  C   UNL     1      45.026   2.091   9.336  0.00  0.00    +0.000 A 
ATOM     19  C   UNL     1      44.573   3.402   9.320  0.00  0.00    +0.000 A 
ATOM     20  N   UNL     1      45.021   4.334   8.455  0.00  0.00    +0.000 NA
ATOM     21  C   UNL     1      45.967   3.944   7.566  0.00  0.00    +0.000 A 
BRANCH  16  23
ATOM     22  N   UNL     1      47.490   3.136   5.339  0.00  0.00    +0.000 N 
ATOM     23  C   UNL     1      47.482   2.354   6.459  0.00  0.00    +0.000 C 
ATOM     24  O   UNL     1      48.313   1.469   6.619  0.00  0.00    +0.000 OA
ATOM     25  H   UNL     1      48.264   2.991   4.702  0.00  0.00    +0.000 HD
ATOM     26  H   UNL     1      47.006   4.021   5.289  0.00  0.00    +0.000 HD
ENDBRANCH  16  23
ENDBRANCH  15  19
ENDBRANCH   1  15
TORSDOF 5
ENDMDL
MODEL 6
REMARK VINA RESULT:    -7.995      4.418      8.026
REMARK INTER + INTRA:         -10.950
REMARK INTER:                 -10.423
REMARK INTRA:                  -0.527
REMARK UNBOUND:                -0.618
REMARK  Name = 
REMARK  5 active torsions:
REMARK  status: ('A' for Active; 'I' for Inactive)
REMARK    1  A    between atoms: C_2  and  C_4
REMARK    2  A    between atoms: C_7  and  O_8
REMARK    3  A    between atoms: O_8  and  C_9
REMARK    4  A    between atoms: C_9  and  C_10
REMARK    5  A    between atoms: C_12  and  C_13
REMARK                            x       y       z     vdW  Elec       q    Type
REMARK                         _______ _______ _______ _____ _____    ______ ____
ROOT
ATOM      1  C   UNL     1      45.684   4.640  13.642  0.00  0.00    +0.000 C 
ENDROOT
BRANCH   1   2
ATOM      2  C   UNL     1      44.995   4.531  12.299  0.00  0.00    +0.000 A 
ATOM      3  C   UNL     1      45.617   3.907  11.216  0.00  0.00    +0.000 A 
ATOM      4  C   UNL     1      44.978   3.852   9.965  0.00  0.00    +0.000 A 
ATOM      5  C   UNL     1      43.726   4.469   9.867  0.00  0.00    +0.000 A 
ATOM      6  C   UNL     1      43.186   5.094  10.980  0.00  0.00    +0.000 A 
ATOM      7  N   UNL     1      43.788   5.136  12.182  0.00  0.00    +0.000 NA
BRANCH   4   8
ATOM      8  C   UNL     1      45.612   3.175   8.809  0.00  0.00    +0.000 A 
ATOM      9  C   UNL     1      46.054   3.894   7.680  0.00  0.00    +0.000 A 
ATOM     10  C   UNL     1      46.659   3.255   6.590  0.00  0.00    +0.000 A 
ATOM     11  C   UNL     1      46.845   1.878   6.609  0.00  0.00    +0.000 A 
ATOM     12  C   UNL     1      46.417   1.153   7.711  0.00  0.00    +0.000 A 
ATOM     13  F   UNL     1      46.599  -0.173   7.740  0.00  0.00    +0.000 F 
ATOM     14  C   UNL     1      45.803   1.781   8.792  0.00  0.00    +0.000 A 
ENDBRANCH   4   8
ENDBRANCH   1   2
BRANCH   1  15
ATOM     15  O   UNL     1      46.771   3.709  13.755  0.00  0.00    +0.000 OA
BRANCH  15  19
ATOM     16  C   UNL     1      48.554   3.972  17.459  0.00  0.00    +0.000 A 
ATOM     17  C   UNL     1      48.015   5.119  16.868  0.00  0.00    +0.000 A 
ATOM     18  C   UNL     1      47.416   5.017  15.610  0.00  0.00    +0.000 A 
ATOM     19  C   UNL     1      47.378   3.775  14.993  0.00  0.00    +0.000 A 
ATOM     20  N   UNL     1      47.896   2.656  15.539  0.00  0.00    +0.000 NA
ATOM     21  C   UNL     1      48.484   2.780  16.754  0.00  0.00    +0.000 A 
BRANCH  16  23
ATOM     22  N   UNL     1      48.462   3.540  19.847  0.00  0.00    +0.000 N 
ATOM     23  C   UNL     1      49.206   3.967  18.784  0.00  0.00    +0.000 C 
ATOM     24  O   UNL     1      50.379   4.290  18.921  0.00  0.00    +0.000 OA
ATOM     25  H   UNL     1      48.960   3.433  20.723  0.00  0.00    +0.000 HD
ATOM     26  H   UNL     1      47.599   3.027  19.738  0.00  0.00    +0.000 HD
ENDBRANCH  16  23
ENDBRANCH  15  19
ENDBRANCH   1  15
TORSDOF 5
ENDMDL
MODEL 7
REMARK VINA RESULT:    -6.585      4.635      8.240
REMARK INTER + INTRA:          -9.128
REMARK INTER:                  -8.562
REMARK INTRA:                  -0.566
REMARK UNBOUND:                -0.618
REMARK  Name = 
REMARK  5 active torsions:
REMARK  status: ('A' for Active; 'I' for Inactive)
REMARK    1  A    between atoms: C_2  and  C_4
REMARK    2  A    between atoms: C_7  and  O_8
REMARK    3  A    between atoms: O_8  and  C_9
REMARK    4  A    between atoms: C_9  and  C_10
REMARK    5  A    between atoms: C_12  and  C_13
REMARK                            x       y       z     vdW  Elec       q    Type
REMARK                         _______ _______ _______ _____ _____    ______ ____
ROOT
ATOM      1  C   UNL     1      48.663   7.275  13.797  0.00  0.00    +0.000 C 
ENDROOT
BRANCH   1   2
ATOM      2  C   UNL     1      47.343   7.275  13.057  0.00  0.00    +0.000 A 
ATOM      3  C   UNL     1      46.972   6.203  12.243  0.00  0.00    +0.000 A 
ATOM      4  C   UNL     1      45.761   6.238  11.531  0.00  0.00    +0.000 A 
ATOM      5  C   UNL     1      44.983   7.394  11.662  0.00  0.00    +0.000 A 
ATOM      6  C   UNL     1      45.433   8.429  12.467  0.00  0.00    +0.000 A 
ATOM      7  N   UNL     1      46.585   8.393  13.161  0.00  0.00    +0.000 NA
BRANCH   4   8
ATOM      8  C   UNL     1      45.337   5.101  10.679  0.00  0.00    +0.000 A 
ATOM      9  C   UNL     1      44.561   4.041  11.189  0.00  0.00    +0.000 A 
ATOM     10  C   UNL     1      44.155   2.970  10.382  0.00  0.00    +0.000 A 
ATOM     11  C   UNL     1      44.510   2.941   9.038  0.00  0.00    +0.000 A 
ATOM     12  C   UNL     1      45.272   3.976   8.517  0.00  0.00    +0.000 A 
ATOM     13  F   UNL     1      45.611   3.959   7.223  0.00  0.00    +0.000 F 
ATOM     14  C   UNL     1      45.689   5.037   9.318  0.00  0.00    +0.000 A 
ENDBRANCH   4   8
ENDBRANCH   1   2
BRANCH   1  15
ATOM     15  O   UNL     1      48.565   7.961  15.053  0.00  0.00    +0.000 OA
BRANCH  15  19
ATOM     16  C   UNL     1      48.775   5.418  18.287  0.00  0.00    +0.000 A 
ATOM     17  C   UNL     1      48.747   6.799  18.495  0.00  0.00    +0.000 A 
ATOM     18  C   UNL     1      48.679   7.652  17.390  0.00  0.00    +0.000 A 
ATOM     19  C   UNL     1      48.641   7.090  16.122  0.00  0.00    +0.000 A 
ATOM     20  N   UNL     1      48.673   5.762  15.895  0.00  0.00    +0.000 NA
ATOM     21  C   UNL     1      48.752   4.954  16.980  0.00  0.00    +0.000 A 
BRANCH  16  23
ATOM     22  N   UNL     1      48.397   3.166  19.114  0.00  0.00    +0.000 N 
ATOM     23  C   UNL     1      48.842   4.429  19.382  0.00  0.00    +0.000 C 
ATOM     24  O   UNL     1      49.317   4.716  20.473  0.00  0.00    +0.000 OA
ATOM     25  H   UNL     1      48.559   2.475  19.838  0.00  0.00    +0.000 HD
ATOM     26  H   UNL     1      48.249   2.827  18.174  0.00  0.00    +0.000 HD
ENDBRANCH  16  23
ENDBRANCH  15  19
ENDBRANCH   1  15
TORSDOF 5
ENDMDL
MODEL 8
REMARK VINA RESULT:    -6.536      5.490      7.600
REMARK INTER + INTRA:          -9.064
REMARK INTER:                  -8.566
REMARK INTRA:                  -0.498
REMARK UNBOUND:                -0.618
REMARK  Name = 
REMARK  5 active torsions:
REMARK  status: ('A' for Active; 'I' for Inactive)
REMARK    1  A    between atoms: C_2  and  C_4
REMARK    2  A    between atoms: C_7  and  O_8
REMARK    3  A    between atoms: O_8  and  C_9
REMARK    4  A    between atoms: C_9  and  C_10
REMARK    5  A    between atoms: C_12  and  C_13
REMARK                            x       y       z     vdW  Elec       q    Type
REMARK                         _______ _______ _______ _____ _____    ______ ____
ROOT
ATOM      1  C   UNL     1      47.135   4.261  15.938  0.00  0.00    +0.000 C 
ENDROOT
BRANCH   1   2
ATOM      2  C   UNL     1      48.218   4.408  16.984  0.00  0.00    +0.000 A 
ATOM      3  C   UNL     1      49.352   3.594  16.969  0.00  0.00    +0.000 A 
ATOM      4  C   UNL     1      50.329   3.716  17.973  0.00  0.00    +0.000 A 
ATOM      5  C   UNL     1      50.087   4.660  18.977  0.00  0.00    +0.000 A 
ATOM      6  C   UNL     1      48.923   5.412  18.940  0.00  0.00    +0.000 A 
ATOM      7  N   UNL     1      47.993   5.307  17.973  0.00  0.00    +0.000 NA
BRANCH   4   8
ATOM      8  C   UNL     1      51.550   2.877  17.962  0.00  0.00    +0.000 A 
ATOM      9  C   UNL     1      51.539   1.558  17.466  0.00  0.00    +0.000 A 
ATOM     10  C   UNL     1      52.695   0.767  17.450  0.00  0.00    +0.000 A 
ATOM     11  C   UNL     1      53.896   1.284  17.923  0.00  0.00    +0.000 A 
ATOM     12  C   UNL     1      53.927   2.581  18.414  0.00  0.00    +0.000 A 
ATOM     13  F   UNL     1      55.081   3.089  18.865  0.00  0.00    +0.000 F 
ATOM     14  C   UNL     1      52.778   3.367  18.444  0.00  0.00    +0.000 A 
ENDBRANCH   4   8
ENDBRANCH   1   2
BRANCH   1  15
ATOM     15  O   UNL     1      47.686   4.140  14.619  0.00  0.00    +0.000 OA
BRANCH  15  19
ATOM     16  C   UNL     1      44.874   4.818  11.686  0.00  0.00    +0.000 A 
ATOM     17  C   UNL     1      45.713   5.859  12.093  0.00  0.00    +0.000 A 
ATOM     18  C   UNL     1      46.660   5.617  13.090  0.00  0.00    +0.000 A 
ATOM     19  C   UNL     1      46.733   4.347  13.641  0.00  0.00    +0.000 A 
ATOM     20  N   UNL     1      45.931   3.328  13.271  0.00  0.00    +0.000 NA
ATOM     21  C   UNL     1      45.011   3.587  12.311  0.00  0.00    +0.000 A 
BRANCH  16  23
ATOM     22  N   UNL     1      44.199   4.647   9.359  0.00  0.00    +0.000 N 
ATOM     23  C   UNL     1      43.843   4.963  10.639  0.00  0.00    +0.000 C 
ATOM     24  O   UNL     1      42.700   5.310  10.911  0.00  0.00    +0.000 OA
ATOM     25  H   UNL     1      43.449   4.641   8.678  0.00  0.00    +0.000 HD
ATOM     26  H   UNL     1      45.031   4.118   9.139  0.00  0.00    +0.000 HD
ENDBRANCH  16  23
ENDBRANCH  15  19
ENDBRANCH   1  15
TORSDOF 5
ENDMDL
