MODEL 1
REMARK VINA RESULT:    -7.654      0.000      0.000
REMARK INTER + INTRA:         -11.658
REMARK INTER:                 -10.786
REMARK INTRA:                  -0.872
REMARK UNBOUND:                -0.872
REMARK  Name = 
REMARK  9 active torsions:
REMARK  status: ('A' for Active; 'I' for Inactive)
REMARK    1  A    between atoms: C_1  and  N_2
REMARK    2  A    between atoms: C_3  and  C_5
REMARK    3  A    between atoms: C_8  and  N_9
REMARK    4  A    between atoms: N_9  and  C_10
REMARK    5  A    between atoms: C_10  and  C_11
REMARK    6  A    between atoms: C_11  and  O_12
REMARK    7  A    between atoms: C_11  and  C_13
REMARK    8  A    between atoms: C_17  and  C_18
REMARK    9  A    between atoms: C_18  and  N_19
REMARK                            x       y       z     vdW  Elec       q    Type
REMARK                         _______ _______ _______ _____ _____    ______ ____
ROOT
ATOM      1  C   UNL     1      43.045   4.167  11.506  0.00  0.00    +0.000 C 
ENDROOT
BRANCH   1   2
ATOM      2  N   UNL     1      43.417   4.798  12.780  0.00  0.00    +0.000 N 
ATOM      3  H   UNL     1      42.711   5.481  13.073  0.00  0.00    +0.000 HD
BRANCH   2   7
ATOM      4  C   UNL     1      47.286   6.362  12.883  0.00  0.00    +0.000 A 
ATOM      5  C   UNL     1      46.332   6.959  12.065  0.00  0.00    +0.000 A 
ATOM      6  C   UNL     1      45.040   6.426  12.046  0.00  0.00    +0.000 A 
ATOM      7  C   UNL     1      44.707   5.345  12.864  0.00  0.00    +0.000 A 
ATOM      8  C   UNL     1      45.752   4.818  13.631  0.00  0.00    +0.000 A 
ATOM      9  N   UNL     1      47.025   5.289  13.674  0.00  0.00    +0.000 NA
BRANCH   4  12
ATOM     10  C   UNL     1      50.431   8.094  11.668  0.00  0.00    +0.000 C 
ATOM     11  N   UNL     1      49.106   7.547  11.772  0.00  0.00    +0.000 N 
ATOM     12  C   UNL     1      48.691   6.879  12.905  0.00  0.00    +0.000 C 
ATOM     13  O   UNL     1      49.411   6.715  13.893  0.00  0.00    +0.000 OA
ATOM     14  H   UNL     1      48.406   7.717  11.054  0.00  0.00    +0.000 HD
ENDBRANCH   4  12
ENDBRANCH   2   7
ENDBRANCH   1   2
BRANCH   1  15
ATOM     15  C   UNL     1      43.878   2.891  11.225  0.00  0.00    +0.000 C 
BRANCH  15  16
ATOM     16  C   UNL     1      44.558   3.021   9.874  0.00  0.00    +0.000 A 
ATOM     17  C   UNL     1      44.700   4.260   9.228  0.00  0.00    +0.000 A 
ATOM     18  C   UNL     1      45.482   4.374   8.078  0.00  0.00    +0.000 A 
ATOM     19  C   UNL     1      46.143   3.258   7.563  0.00  0.00    +0.000 A 
ATOM     20  C   UNL     1      46.016   2.008   8.183  0.00  0.00    +0.000 A 
ATOM     21  C   UNL     1      45.193   1.899   9.316  0.00  0.00    +0.000 A 
BRANCH  20  22
ATOM     22  C   UNL     1      46.750   0.795   7.664  0.00  0.00    +0.000 C 
BRANCH  22  23
ATOM     23  N   UNL     1      47.910   1.166   6.857  0.00  0.00    +0.000 NA
ATOM     24  H   UNL     1      48.663   1.467   7.475  0.00  0.00    +0.000 HD
ATOM     25  H   UNL     1      47.673   1.971   6.281  0.00  0.00    +0.000 HD
ENDBRANCH  22  23
ENDBRANCH  20  22
ENDBRANCH  15  16
BRANCH  15  26
ATOM     26  O   UNL     1      43.048   1.726  11.276  0.00  0.00    +0.000 OA
ATOM     27  H   UNL     1      42.486   1.788  12.064  0.00  0.00    +0.000 HD
ENDBRANCH  15  26
ENDBRANCH   1  15
TORSDOF 8
ENDMDL
MODEL 2
REMARK VINA RESULT:    -7.343      2.457      5.915
REMARK INTER + INTRA:         -11.220
REMARK INTER:                 -10.354
REMARK INTRA:                  -0.866
REMARK UNBOUND:                -0.872
REMARK  Name = 
REMARK  9 active torsions:
REMARK  status: ('A' for Active; 'I' for Inactive)
REMARK    1  A    between atoms: C_1  and  N_2
REMARK    2  A    between atoms: C_3  and  C_5
REMARK    3  A    between atoms: C_8  and  N_9
REMARK    4  A    between atoms: N_9  and  C_10
REMARK    5  A    between atoms: C_10  and  C_11
REMARK    6  A    between atoms: C_11  and  O_12
REMARK    7  A    between atoms: C_11  and  C_13
REMARK    8  A    between atoms: C_17  and  C_18
REMARK    9  A    between atoms: C_18  and  N_19
REMARK                            x       y       z     vdW  Elec       q    Type
REMARK                         _______ _______ _______ _____ _____    ______ ____
ROOT
ATOM      1  C   UNL     1      43.018   5.413  10.966  0.00  0.00    +0.000 C 
ENDROOT
BRANCH   1   2
ATOM      2  N   UNL     1      43.270   3.965  10.964  0.00  0.00    +0.000 N 
ATOM      3  H   UNL     1      43.479   3.626  11.908  0.00  0.00    +0.000 HD
BRANCH   2   7
ATOM      4  C   UNL     1      45.970   2.580   8.097  0.00  0.00    +0.000 A 
ATOM      5  C   UNL     1      45.786   3.949   8.254  0.00  0.00    +0.000 A 
ATOM      6  C   UNL     1      44.883   4.397   9.221  0.00  0.00    +0.000 A 
ATOM      7  C   UNL     1      44.213   3.486  10.040  0.00  0.00    +0.000 A 
ATOM      8  C   UNL     1      44.464   2.134   9.780  0.00  0.00    +0.000 A 
ATOM      9  N   UNL     1      45.320   1.649   8.844  0.00  0.00    +0.000 NA
BRANCH   4  12
ATOM     10  C   UNL     1      47.988   2.503   4.890  0.00  0.00    +0.000 C 
ATOM     11  N   UNL     1      47.114   2.885   5.965  0.00  0.00    +0.000 N 
ATOM     12  C   UNL     1      46.900   2.057   7.048  0.00  0.00    +0.000 C 
ATOM     13  O   UNL     1      47.441   0.956   7.171  0.00  0.00    +0.000 OA
ATOM     14  H   UNL     1      46.701   3.814   6.005  0.00  0.00    +0.000 HD
ENDBRANCH   4  12
ENDBRANCH   2   7
ENDBRANCH   1   2
BRANCH   1  15
ATOM     15  C   UNL     1      43.427   6.071  12.308  0.00  0.00    +0.000 C 
BRANCH  15  16
ATOM     16  C   UNL     1      44.938   6.031  12.448  0.00  0.00    +0.000 A 
ATOM     17  C   UNL     1      45.778   6.860  11.688  0.00  0.00    +0.000 A 
ATOM     18  C   UNL     1      47.144   6.928  11.965  0.00  0.00    +0.000 A 
ATOM     19  C   UNL     1      47.689   6.180  13.009  0.00  0.00    +0.000 A 
ATOM     20  C   UNL     1      46.876   5.340  13.781  0.00  0.00    +0.000 A 
ATOM     21  C   UNL     1      45.510   5.250  13.467  0.00  0.00    +0.000 A 
BRANCH  20  22
ATOM     22  C   UNL     1      47.438   4.549  14.939  0.00  0.00    +0.000 C 
BRANCH  22  23
ATOM     23  N   UNL     1      47.486   3.118  14.646  0.00  0.00    +0.000 NA
ATOM     24  H   UNL     1      47.531   2.986  13.637  0.00  0.00    +0.000 HD
ATOM     25  H   UNL     1      46.618   2.685  14.954  0.00  0.00    +0.000 HD
ENDBRANCH  22  23
ENDBRANCH  20  22
ENDBRANCH  15  16
BRANCH  15  26
ATOM     26  O   UNL     1      42.788   5.412  13.407  0.00  0.00    +0.000 OA
ATOM     27  H   UNL     1      43.010   4.468  13.364  0.00  0.00    +0.000 HD
ENDBRANCH  15  26
ENDBRANCH   1  15
TORSDOF 8
ENDMDL
MODEL 3
REMARK VINA RESULT:    -7.085      2.315      3.209
REMARK INTER + INTRA:         -10.856
REMARK INTER:                 -10.304
REMARK INTRA:                  -0.553
REMARK UNBOUND:                -0.872
REMARK  Name = 
REMARK  9 active torsions:
REMARK  status: ('A' for Active; 'I' for Inactive)
REMARK    1  A    between atoms: C_1  and  N_2
REMARK    2  A    between atoms: C_3  and  C_5
REMARK    3  A    between atoms: C_8  and  N_9
REMARK    4  A    between atoms: N_9  and  C_10
REMARK    5  A    between atoms: C_10  and  C_11
REMARK    6  A    between atoms: C_11  and  O_12
REMARK    7  A    between atoms: C_11  and  C_13
REMARK    8  A    between atoms: C_17  and  C_18
REMARK    9  A    between atoms: C_18  and  N_19
REMARK                            x       y       z     vdW  Elec       q    Type
REMARK                         _______ _______ _______ _____ _____    ______ ____
ROOT
ATOM      1  C   UNL     1      43.919   4.444   9.991  0.00  0.00    +0.000 C 
ENDROOT
BRANCH   1   2
ATOM      2  N   UNL     1      44.121   5.602  10.874  0.00  0.00    +0.000 N 
ATOM      3  H   UNL     1      44.453   6.415  10.344  0.00  0.00    +0.000 HD
BRANCH   2   7
ATOM      4  C   UNL     1      46.577   4.952  14.186  0.00  0.00    +0.000 A 
ATOM      5  C   UNL     1      46.769   6.090  13.409  0.00  0.00    +0.000 A 
ATOM      6  C   UNL     1      45.935   6.296  12.307  0.00  0.00    +0.000 A 
ATOM      7  C   UNL     1      44.905   5.397  12.020  0.00  0.00    +0.000 A 
ATOM      8  C   UNL     1      44.819   4.282  12.860  0.00  0.00    +0.000 A 
ATOM      9  N   UNL     1      45.612   4.030  13.934  0.00  0.00    +0.000 NA
BRANCH   4  12
ATOM     10  C   UNL     1      47.865   3.264  17.326  0.00  0.00    +0.000 C 
ATOM     11  N   UNL     1      47.090   3.634  16.173  0.00  0.00    +0.000 N 
ATOM     12  C   UNL     1      47.472   4.676  15.354  0.00  0.00    +0.000 C 
ATOM     13  O   UNL     1      48.490   5.345  15.544  0.00  0.00    +0.000 OA
ATOM     14  H   UNL     1      46.291   3.080  15.873  0.00  0.00    +0.000 HD
ENDBRANCH   4  12
ENDBRANCH   2   7
ENDBRANCH   1   2
BRANCH   1  15
ATOM     15  C   UNL     1      44.722   4.573   8.672  0.00  0.00    +0.000 C 
BRANCH  15  16
ATOM     16  C   UNL     1      45.490   3.288   8.423  0.00  0.00    +0.000 A 
ATOM     17  C   UNL     1      44.974   2.031   8.779  0.00  0.00    +0.000 A 
ATOM     18  C   UNL     1      45.619   0.861   8.377  0.00  0.00    +0.000 A 
ATOM     19  C   UNL     1      46.781   0.927   7.607  0.00  0.00    +0.000 A 
ATOM     20  C   UNL     1      47.322   2.166   7.241  0.00  0.00    +0.000 A 
ATOM     21  C   UNL     1      46.685   3.336   7.685  0.00  0.00    +0.000 A 
BRANCH  20  22
ATOM     22  C   UNL     1      48.557   2.261   6.378  0.00  0.00    +0.000 C 
BRANCH  22  23
ATOM     23  N   UNL     1      48.290   1.852   5.000  0.00  0.00    +0.000 NA
ATOM     24  H   UNL     1      48.873   1.047   4.773  0.00  0.00    +0.000 HD
ATOM     25  H   UNL     1      48.571   2.599   4.369  0.00  0.00    +0.000 HD
ENDBRANCH  22  23
ENDBRANCH  20  22
ENDBRANCH  15  16
BRANCH  15  26
ATOM     26  O   UNL     1      45.604   5.700   8.728  0.00  0.00    +0.000 OA
ATOM     27  H   UNL     1      45.098   6.465   9.042  0.00  0.00    +0.000 HD
ENDBRANCH  15  26
ENDBRANCH   1  15
TORSDOF 8
ENDMDL
MODEL 4
REMARK VINA RESULT:    -6.934      2.000      2.383
REMARK INTER + INTRA:         -10.644
REMARK INTER:                 -10.120
REMARK INTRA:                  -0.523
REMARK UNBOUND:                -0.872
REMARK  Name = 
REMARK  9 active torsions:
REMARK  status: ('A' for Active; 'I' for Inactive)
REMARK    1  A    between atoms: C_1  and  N_2
REMARK    2  A    between atoms: C_3  and  C_5
REMARK    3  A    between atoms: C_8  and  N_9
REMARK    4  A    between atoms: N_9  and  C_10
REMARK    5  A    between atoms: C_10  and  C_11
REMARK    6  A    between atoms: C_11  and  O_12
REMARK    7  A    between atoms: C_11  and  C_13
REMARK    8  A    between atoms: C_17  and  C_18
REMARK    9  A    between atoms: C_18  and  N_19
REMARK                            x       y       z     vdW  Elec       q    Type
REMARK                         _______ _______ _______ _____ _____    ______ ____
ROOT
ATOM      1  C   UNL     1      44.737   3.978  12.248  0.00  0.00    +0.000 C 
ENDROOT
BRANCH   1   2
ATOM      2  N   UNL     1      45.929   3.448  12.924  0.00  0.00    +0.000 N 
ATOM      3  H   UNL     1      45.704   2.602  13.458  0.00  0.00    +0.000 HD
BRANCH   2   7
ATOM      4  C   UNL     1      48.266   6.097  15.147  0.00  0.00    +0.000 A 
ATOM      5  C   UNL     1      47.853   6.461  13.870  0.00  0.00    +0.000 A 
ATOM      6  C   UNL     1      47.067   5.565  13.140  0.00  0.00    +0.000 A 
ATOM      7  C   UNL     1      46.672   4.350  13.703  0.00  0.00    +0.000 A 
ATOM      8  C   UNL     1      47.160   4.085  14.987  0.00  0.00    +0.000 A 
ATOM      9  N   UNL     1      47.937   4.915  15.730  0.00  0.00    +0.000 NA
BRANCH   4  12
ATOM     10  C   UNL     1      49.208   8.830  17.599  0.00  0.00    +0.000 C 
ATOM     11  N   UNL     1      48.485   7.900  16.776  0.00  0.00    +0.000 N 
ATOM     12  C   UNL     1      49.139   7.012  15.948  0.00  0.00    +0.000 C 
ATOM     13  O   UNL     1      50.368   6.949  15.864  0.00  0.00    +0.000 OA
ATOM     14  H   UNL     1      47.474   7.804  16.848  0.00  0.00    +0.000 HD
ENDBRANCH   4  12
ENDBRANCH   2   7
ENDBRANCH   1   2
BRANCH   1  15
ATOM     15  C   UNL     1      44.153   2.970  11.227  0.00  0.00    +0.000 C 
BRANCH  15  16
ATOM     16  C   UNL     1      44.828   3.167   9.881  0.00  0.00    +0.000 A 
ATOM     17  C   UNL     1      45.068   4.444   9.349  0.00  0.00    +0.000 A 
ATOM     18  C   UNL     1      45.846   4.599   8.201  0.00  0.00    +0.000 A 
ATOM     19  C   UNL     1      46.405   3.483   7.575  0.00  0.00    +0.000 A 
ATOM     20  C   UNL     1      46.179   2.196   8.080  0.00  0.00    +0.000 A 
ATOM     21  C   UNL     1      45.361   2.052   9.213  0.00  0.00    +0.000 A 
BRANCH  20  22
ATOM     22  C   UNL     1      46.803   0.980   7.440  0.00  0.00    +0.000 C 
BRANCH  22  23
ATOM     23  N   UNL     1      48.000   1.323   6.675  0.00  0.00    +0.000 NA
ATOM     24  H   UNL     1      48.258   0.530   6.088  0.00  0.00    +0.000 HD
ATOM     25  H   UNL     1      48.776   1.470   7.315  0.00  0.00    +0.000 HD
ENDBRANCH  22  23
ENDBRANCH  20  22
ENDBRANCH  15  16
BRANCH  15  26
ATOM     26  O   UNL     1      42.734   3.127  11.120  0.00  0.00    +0.000 OA
ATOM     27  H   UNL     1      42.312   2.465  11.691  0.00  0.00    +0.000 HD
ENDBRANCH  15  26
ENDBRANCH   1  15
TORSDOF 8
ENDMDL
MODEL 5
REMARK VINA RESULT:    -6.390      2.321      2.992
REMARK INTER + INTRA:          -9.877
REMARK INTER:                  -9.459
REMARK INTRA:                  -0.418
REMARK UNBOUND:                -0.872
REMARK  Name = 
REMARK  9 active torsions:
REMARK  status: ('A' for Active; 'I' for Inactive)
REMARK    1  A    between atoms: C_1  and  N_2
REMARK    2  A    between atoms: C_3  and  C_5
REMARK    3  A    between atoms: C_8  and  N_9
REMARK    4  A    between atoms: N_9  and  C_10
REMARK    5  A    between atoms: C_10  and  C_11
REMARK    6  A    between atoms: C_11  and  O_12
REMARK    7  A    between atoms: C_11  and  C_13
REMARK    8  A    between atoms: C_17  and  C_18
REMARK    9  A    between atoms: C_18  and  N_19
REMARK                            x       y       z     vdW  Elec       q    Type
REMARK                         _______ _______ _______ _____ _____    ______ ____
ROOT
ATOM      1  C   UNL     1      45.115   4.505  10.609  0.00  0.00    +0.000 C 
ENDROOT
BRANCH   1   2
ATOM      2  N   UNL     1      44.794   5.939  10.659  0.00  0.00    +0.000 N 
ATOM      3  H   UNL     1      44.769   6.343   9.717  0.00  0.00    +0.000 HD
BRANCH   2   7
ATOM      4  C   UNL     1      47.030   8.205  13.358  0.00  0.00    +0.000 A 
ATOM      5  C   UNL     1      47.467   6.931  13.013  0.00  0.00    +0.000 A 
ATOM      6  C   UNL     1      46.710   6.186  12.104  0.00  0.00    +0.000 A 
ATOM      7  C   UNL     1      45.563   6.732  11.525  0.00  0.00    +0.000 A 
ATOM      8  C   UNL     1      45.211   8.014  11.960  0.00  0.00    +0.000 A 
ATOM      9  N   UNL     1      45.905   8.771  12.850  0.00  0.00    +0.000 NA
BRANCH   4  12
ATOM     10  C   UNL     1      48.461   9.249  16.709  0.00  0.00    +0.000 C 
ATOM     11  N   UNL     1      47.767   8.560  15.656  0.00  0.00    +0.000 N 
ATOM     12  C   UNL     1      47.791   9.020  14.356  0.00  0.00    +0.000 C 
ATOM     13  O   UNL     1      48.406  10.032  14.011  0.00  0.00    +0.000 OA
ATOM     14  H   UNL     1      47.317   7.662  15.819  0.00  0.00    +0.000 HD
ENDBRANCH   4  12
ENDBRANCH   2   7
ENDBRANCH   1   2
BRANCH   1  15
ATOM     15  C   UNL     1      44.333   3.774   9.489  0.00  0.00    +0.000 C 
BRANCH  15  16
ATOM     16  C   UNL     1      45.293   2.925   8.675  0.00  0.00    +0.000 A 
ATOM     17  C   UNL     1      45.480   1.558   8.934  0.00  0.00    +0.000 A 
ATOM     18  C   UNL     1      46.229   0.767   8.062  0.00  0.00    +0.000 A 
ATOM     19  C   UNL     1      46.794   1.327   6.914  0.00  0.00    +0.000 A 
ATOM     20  C   UNL     1      46.629   2.690   6.633  0.00  0.00    +0.000 A 
ATOM     21  C   UNL     1      45.906   3.481   7.540  0.00  0.00    +0.000 A 
BRANCH  20  22
ATOM     22  C   UNL     1      47.200   3.308   5.380  0.00  0.00    +0.000 C 
BRANCH  22  23
ATOM     23  N   UNL     1      48.285   2.503   4.823  0.00  0.00    +0.000 NA
ATOM     24  H   UNL     1      48.988   2.348   5.544  0.00  0.00    +0.000 HD
ATOM     25  H   UNL     1      48.745   3.028   4.082  0.00  0.00    +0.000 HD
ENDBRANCH  22  23
ENDBRANCH  20  22
ENDBRANCH  15  16
BRANCH  15  26
ATOM     26  O   UNL     1      43.645   4.716   8.658  0.00  0.00    +0.000 OA
ATOM     27  H   UNL     1      43.062   4.222   8.059  0.00  0.00    +0.000 HD
ENDBRANCH  15  26
ENDBRANCH   1  15
TORSDOF 8
ENDMDL
MODEL 6
REMARK VINA RESULT:    -6.254      2.284      6.250
REMARK INTER + INTRA:          -9.685
REMARK INTER:                  -9.127
REMARK INTRA:                  -0.558
REMARK UNBOUND:                -0.872
REMARK  Name = 
REMARK  9 active torsions:
REMARK  status: ('A' for Active; 'I' for Inactive)
REMARK    1  A    between atoms: C_1  and  N_2
REMARK    2  A    between atoms: C_3  and  C_5
REMARK    3  A    between atoms: C_8  and  N_9
REMARK    4  A    between atoms: N_9  and  C_10
REMARK    5  A    between atoms: C_10  and  C_11
REMARK    6  A    between atoms: C_11  and  O_12
REMARK    7  A    between atoms: C_11  and  C_13
REMARK    8  A    between atoms: C_17  and  C_18
REMARK    9  A    between atoms: C_18  and  N_19
REMARK                            x       y       z     vdW  Elec       q    Type
REMARK                         _______ _______ _______ _____ _____    ______ ____
ROOT
ATOM      1  C   UNL     1      43.574   6.046  11.420  0.00  0.00    +0.000 C 
ENDROOT
BRANCH   1   2
ATOM      2  N   UNL     1      43.324   4.633  11.104  0.00  0.00    +0.000 N 
ATOM      3  H   UNL     1      43.328   4.059  11.953  0.00  0.00    +0.000 HD
BRANCH   2   7
ATOM      4  C   UNL     1      45.811   2.873   8.251  0.00  0.00    +0.000 A 
ATOM      5  C   UNL     1      45.072   2.060   9.103  0.00  0.00    +0.000 A 
ATOM      6  C   UNL     1      44.240   2.664  10.050  0.00  0.00    +0.000 A 
ATOM      7  C   UNL     1      44.125   4.055  10.106  0.00  0.00    +0.000 A 
ATOM      8  C   UNL     1      44.928   4.769   9.210  0.00  0.00    +0.000 A 
ATOM      9  N   UNL     1      45.762   4.229   8.283  0.00  0.00    +0.000 NA
BRANCH   4  12
ATOM     10  C   UNL     1      47.860   2.548   5.078  0.00  0.00    +0.000 C 
ATOM     11  N   UNL     1      46.983   3.016   6.116  0.00  0.00    +0.000 N 
ATOM     12  C   UNL     1      46.742   2.266   7.248  0.00  0.00    +0.000 C 
ATOM     13  O   UNL     1      47.260   1.165   7.448  0.00  0.00    +0.000 OA
ATOM     14  H   UNL     1      46.588   3.954   6.091  0.00  0.00    +0.000 HD
ENDBRANCH   4  12
ENDBRANCH   2   7
ENDBRANCH   1   2
BRANCH   1  15
ATOM     15  C   UNL     1      44.454   6.210  12.685  0.00  0.00    +0.000 C 
BRANCH  15  16
ATOM     16  C   UNL     1      45.562   7.209  12.401  0.00  0.00    +0.000 A 
ATOM     17  C   UNL     1      45.328   8.593  12.374  0.00  0.00    +0.000 A 
ATOM     18  C   UNL     1      46.394   9.490  12.289  0.00  0.00    +0.000 A 
ATOM     19  C   UNL     1      47.707   9.019  12.239  0.00  0.00    +0.000 A 
ATOM     20  C   UNL     1      47.971   7.643  12.258  0.00  0.00    +0.000 A 
ATOM     21  C   UNL     1      46.887   6.751  12.304  0.00  0.00    +0.000 A 
BRANCH  20  22
ATOM     22  C   UNL     1      49.384   7.114  12.241  0.00  0.00    +0.000 C 
BRANCH  22  23
ATOM     23  N   UNL     1      50.090   7.409  13.487  0.00  0.00    +0.000 NA
ATOM     24  H   UNL     1      50.324   6.533  13.952  0.00  0.00    +0.000 HD
ATOM     25  H   UNL     1      49.465   7.910  14.115  0.00  0.00    +0.000 HD
ENDBRANCH  22  23
ENDBRANCH  20  22
ENDBRANCH  15  16
BRANCH  15  26
ATOM     26  O   UNL     1      44.989   4.947  13.094  0.00  0.00    +0.000 OA
ATOM     27  H   UNL     1      45.924   4.916  12.836  0.00  0.00    +0.000 HD
ENDBRANCH  15  26
ENDBRANCH   1  15
TORSDOF 8
ENDMDL
MODEL 7
REMARK VINA RESULT:    -6.153      3.321      7.668
REMARK INTER + INTRA:          -9.543
REMARK INTER:                  -8.950
REMARK INTRA:                  -0.593
REMARK UNBOUND:                -0.872
REMARK  Name = 
REMARK  9 active torsions:
REMARK  status: ('A' for Active; 'I' for Inactive)
REMARK    1  A    between atoms: C_1  and  N_2
REMARK    2  A    between atoms: C_3  and  C_5
REMARK    3  A    between atoms: C_8  and  N_9
REMARK    4  A    between atoms: N_9  and  C_10
REMARK    5  A    between atoms: C_10  and  C_11
REMARK    6  A    between atoms: C_11  and  O_12
REMARK    7  A    between atoms: C_11  and  C_13
REMARK    8  A    between atoms: C_17  and  C_18
REMARK    9  A    between atoms: C_18  and  N_19
REMARK                            x       y       z     vdW  Elec       q    Type
REMARK                         _______ _______ _______ _____ _____    ______ ____
ROOT
ATOM      1  C   UNL     1      48.632   7.003  14.215  0.00  0.00    +0.000 C 
ENDROOT
BRANCH   1   2
ATOM      2  N   UNL     1      47.179   7.134  14.030  0.00  0.00    +0.000 N 
ATOM      3  H   UNL     1      46.703   7.256  14.930  0.00  0.00    +0.000 HD
BRANCH   2   7
ATOM      4  C   UNL     1      45.160   4.282  11.747  0.00  0.00    +0.000 A 
ATOM      5  C   UNL     1      45.495   5.503  11.171  0.00  0.00    +0.000 A 
ATOM      6  C   UNL     1      46.175   6.445  11.947  0.00  0.00    +0.000 A 
ATOM      7  C   UNL     1      46.547   6.146  13.259  0.00  0.00    +0.000 A 
ATOM      8  C   UNL     1      46.141   4.895  13.737  0.00  0.00    +0.000 A 
ATOM      9  N   UNL     1      45.467   3.952  13.028  0.00  0.00    +0.000 NA
BRANCH   4  12
ATOM     10  C   UNL     1      44.486   1.618   9.136  0.00  0.00    +0.000 C 
ATOM     11  N   UNL     1      45.101   2.623   9.961  0.00  0.00    +0.000 N 
ATOM     12  C   UNL     1      44.398   3.260  10.962  0.00  0.00    +0.000 C 
ATOM     13  O   UNL     1      43.219   3.012  11.221  0.00  0.00    +0.000 OA
ATOM     14  H   UNL     1      46.095   2.826   9.893  0.00  0.00    +0.000 HD
ENDBRANCH   4  12
ENDBRANCH   2   7
ENDBRANCH   1   2
BRANCH   1  15
ATOM     15  C   UNL     1      49.063   7.329  15.667  0.00  0.00    +0.000 C 
BRANCH  15  16
ATOM     16  C   UNL     1      49.560   6.063  16.342  0.00  0.00    +0.000 A 
ATOM     17  C   UNL     1      50.876   5.940  16.817  0.00  0.00    +0.000 A 
ATOM     18  C   UNL     1      51.251   4.838  17.587  0.00  0.00    +0.000 A 
ATOM     19  C   UNL     1      50.317   3.850  17.903  0.00  0.00    +0.000 A 
ATOM     20  C   UNL     1      48.998   3.943  17.438  0.00  0.00    +0.000 A 
ATOM     21  C   UNL     1      48.645   5.037  16.631  0.00  0.00    +0.000 A 
BRANCH  20  22
ATOM     22  C   UNL     1      47.963   2.905  17.798  0.00  0.00    +0.000 C 
BRANCH  22  23
ATOM     23  N   UNL     1      46.609   3.360  17.492  0.00  0.00    +0.000 NA
ATOM     24  H   UNL     1      46.322   2.972  16.594  0.00  0.00    +0.000 HD
ATOM     25  H   UNL     1      46.612   4.372  17.380  0.00  0.00    +0.000 HD
ENDBRANCH  22  23
ENDBRANCH  20  22
ENDBRANCH  15  16
BRANCH  15  26
ATOM     26  O   UNL     1      47.977   7.910  16.397  0.00  0.00    +0.000 OA
ATOM     27  H   UNL     1      47.295   8.179  15.761  0.00  0.00    +0.000 HD
ENDBRANCH  15  26
ENDBRANCH   1  15
TORSDOF 8
ENDMDL
MODEL 8
REMARK VINA RESULT:    -6.110      4.657      6.181
REMARK INTER + INTRA:          -9.482
REMARK INTER:                  -8.948
REMARK INTRA:                  -0.534
REMARK UNBOUND:                -0.872
REMARK  Name = 
REMARK  9 active torsions:
REMARK  status: ('A' for Active; 'I' for Inactive)
REMARK    1  A    between atoms: C_1  and  N_2
REMARK    2  A    between atoms: C_3  and  C_5
REMARK    3  A    between atoms: C_8  and  N_9
REMARK    4  A    between atoms: N_9  and  C_10
REMARK    5  A    between atoms: C_10  and  C_11
REMARK    6  A    between atoms: C_11  and  O_12
REMARK    7  A    between atoms: C_11  and  C_13
REMARK    8  A    between atoms: C_17  and  C_18
REMARK    9  A    between atoms: C_18  and  N_19
REMARK                            x       y       z     vdW  Elec       q    Type
REMARK                         _______ _______ _______ _____ _____    ______ ____
ROOT
ATOM      1  C   UNL     1      46.784   4.009  14.811  0.00  0.00    +0.000 C 
ENDROOT
BRANCH   1   2
ATOM      2  N   UNL     1      47.115   4.125  16.238  0.00  0.00    +0.000 N 
ATOM      3  H   UNL     1      47.046   5.098  16.554  0.00  0.00    +0.000 HD
BRANCH   2   7
ATOM      4  C   UNL     1      50.786   2.499  17.381  0.00  0.00    +0.000 A 
ATOM      5  C   UNL     1      50.455   3.787  17.790  0.00  0.00    +0.000 A 
ATOM      6  C   UNL     1      49.220   4.315  17.403  0.00  0.00    +0.000 A 
ATOM      7  C   UNL     1      48.324   3.547  16.658  0.00  0.00    +0.000 A 
ATOM      8  C   UNL     1      48.772   2.273  16.291  0.00  0.00    +0.000 A 
ATOM      9  N   UNL     1      49.966   1.721  16.629  0.00  0.00    +0.000 NA
BRANCH   4  12
ATOM     10  C   UNL     1      53.556  -0.076  17.632  0.00  0.00    +0.000 C 
ATOM     11  N   UNL     1      52.322   0.605  17.349  0.00  0.00    +0.000 N 
ATOM     12  C   UNL     1      52.114   1.911  17.742  0.00  0.00    +0.000 C 
ATOM     13  O   UNL     1      52.959   2.575  18.345  0.00  0.00    +0.000 OA
ATOM     14  H   UNL     1      51.603   0.177  16.770  0.00  0.00    +0.000 HD
ENDBRANCH   4  12
ENDBRANCH   2   7
ENDBRANCH   1   2
BRANCH   1  15
ATOM     15  C   UNL     1      46.921   5.364  14.072  0.00  0.00    +0.000 C 
BRANCH  15  16
ATOM     16  C   UNL     1      46.108   5.323  12.790  0.00  0.00    +0.000 A 
ATOM     17  C   UNL     1      46.437   6.109  11.675  0.00  0.00    +0.000 A 
ATOM     18  C   UNL     1      45.783   5.920  10.457  0.00  0.00    +0.000 A 
ATOM     19  C   UNL     1      44.800   4.937  10.331  0.00  0.00    +0.000 A 
ATOM     20  C   UNL     1      44.447   4.140  11.428  0.00  0.00    +0.000 A 
ATOM     21  C   UNL     1      45.085   4.369  12.659  0.00  0.00    +0.000 A 
BRANCH  20  22
ATOM     22  C   UNL     1      43.413   3.047  11.306  0.00  0.00    +0.000 C 
BRANCH  22  23
ATOM     23  N   UNL     1      43.518   2.076  12.393  0.00  0.00    +0.000 NA
ATOM     24  H   UNL     1      43.918   2.534  13.211  0.00  0.00    +0.000 HD
ATOM     25  H   UNL     1      44.173   1.344  12.125  0.00  0.00    +0.000 HD
ENDBRANCH  22  23
ENDBRANCH  20  22
ENDBRANCH  15  16
BRANCH  15  26
ATOM     26  O   UNL     1      48.296   5.654  13.802  0.00  0.00    +0.000 OA
ATOM     27  H   UNL     1      48.460   5.497  12.859  0.00  0.00    +0.000 HD
ENDBRANCH  15  26
ENDBRANCH   1  15
TORSDOF 8
ENDMDL
MODEL 9
REMARK VINA RESULT:    -5.867      2.717      6.709
REMARK INTER + INTRA:          -9.140
REMARK INTER:                  -8.710
REMARK INTRA:                  -0.430
REMARK UNBOUND:                -0.872
REMARK  Name = 
REMARK  9 active torsions:
REMARK  status: ('A' for Active; 'I' for Inactive)
REMARK    1  A    between atoms: C_1  and  N_2
REMARK    2  A    between atoms: C_3  and  C_5
REMARK    3  A    between atoms: C_8  and  N_9
REMARK    4  A    between atoms: N_9  and  C_10
REMARK    5  A    between atoms: C_10  and  C_11
REMARK    6  A    between atoms: C_11  and  O_12
REMARK    7  A    between atoms: C_11  and  C_13
REMARK    8  A    between atoms: C_17  and  C_18
REMARK    9  A    between atoms: C_18  and  N_19
REMARK                            x       y       z     vdW  Elec       q    Type
REMARK                         _______ _______ _______ _____ _____    ______ ____
ROOT
ATOM      1  C   UNL     1      43.895   6.239  11.501  0.00  0.00    +0.000 C 
ENDROOT
BRANCH   1   2
ATOM      2  N   UNL     1      43.502   4.871  11.132  0.00  0.00    +0.000 N 
ATOM      3  H   UNL     1      43.428   4.274  11.961  0.00  0.00    +0.000 HD
BRANCH   2   7
ATOM      4  C   UNL     1      45.846   2.952   8.261  0.00  0.00    +0.000 A 
ATOM      5  C   UNL     1      45.034   2.191   9.095  0.00  0.00    +0.000 A 
ATOM      6  C   UNL     1      44.252   2.850  10.048  0.00  0.00    +0.000 A 
ATOM      7  C   UNL     1      44.256   4.243  10.128  0.00  0.00    +0.000 A 
ATOM      8  C   UNL     1      45.124   4.901   9.248  0.00  0.00    +0.000 A 
ATOM      9  N   UNL     1      45.913   4.307   8.316  0.00  0.00    +0.000 NA
BRANCH   4  12
ATOM     10  C   UNL     1      47.869   2.501   5.087  0.00  0.00    +0.000 C 
ATOM     11  N   UNL     1      47.030   3.026   6.129  0.00  0.00    +0.000 N 
ATOM     12  C   UNL     1      46.727   2.284   7.252  0.00  0.00    +0.000 C 
ATOM     13  O   UNL     1      47.155   1.143   7.440  0.00  0.00    +0.000 OA
ATOM     14  H   UNL     1      46.712   3.992   6.115  0.00  0.00    +0.000 HD
ENDBRANCH   4  12
ENDBRANCH   2   7
ENDBRANCH   1   2
BRANCH   1  15
ATOM     15  C   UNL     1      44.802   6.263  12.756  0.00  0.00    +0.000 C 
BRANCH  15  16
ATOM     16  C   UNL     1      45.821   7.381  12.620  0.00  0.00    +0.000 A 
ATOM     17  C   UNL     1      47.197   7.125  12.514  0.00  0.00    +0.000 A 
ATOM     18  C   UNL     1      48.088   8.156  12.212  0.00  0.00    +0.000 A 
ATOM     19  C   UNL     1      47.617   9.454  12.002  0.00  0.00    +0.000 A 
ATOM     20  C   UNL     1      46.250   9.740  12.107  0.00  0.00    +0.000 A 
ATOM     21  C   UNL     1      45.369   8.701  12.450  0.00  0.00    +0.000 A 
BRANCH  20  22
ATOM     22  C   UNL     1      45.715  11.128  11.848  0.00  0.00    +0.000 C 
BRANCH  22  23
ATOM     23  N   UNL     1      45.254  11.284  10.471  0.00  0.00    +0.000 NA
ATOM     24  H   UNL     1      44.427  10.705  10.329  0.00  0.00    +0.000 HD
ATOM     25  H   UNL     1      45.966  10.927   9.837  0.00  0.00    +0.000 HD
ENDBRANCH  22  23
ENDBRANCH  20  22
ENDBRANCH  15  16
BRANCH  15  26
ATOM     26  O   UNL     1      45.446   4.997  12.936  0.00  0.00    +0.000 OA
ATOM     27  H   UNL     1      44.812   4.391  13.351  0.00  0.00    +0.000 HD
ENDBRANCH  15  26
ENDBRANCH   1  15
TORSDOF 8
ENDMDL
