MODEL 1
REMARK VINA RESULT:    -9.577      0.000      0.000
REMARK INTER + INTRA:         -14.349
REMARK INTER:                 -13.776
REMARK INTRA:                  -0.573
REMARK UNBOUND:                -0.573
REMARK  Name = 
REMARK  9 active torsions:
REMARK  status: ('A' for Active; 'I' for Inactive)
REMARK    1  A    between atoms: C_1  and  C_2
REMARK    2  A    between atoms: C_2  and  O_3
REMARK    3  A    between atoms: C_5  and  O_6
REMARK    4  A    between atoms: O_6  and  C_7
REMARK    5  A    between atoms: C_9  and  C_10
REMARK    6  A    between atoms: C_10  and  C_13
REMARK    7  A    between atoms: C_13  and  N_14
REMARK    8  A    between atoms: N_14  and  C_15
REMARK    9  A    between atoms: C_18  and  C_19
REMARK                            x       y       z     vdW  Elec       q    Type
REMARK                         _______ _______ _______ _____ _____    ______ ____
ROOT
ATOM      1  C   UNL     1      44.085   5.696  12.231  0.00  0.00    +0.000 C 
ATOM      2  F   UNL     1      43.196   5.686  13.271  0.00  0.00    +0.000 F 
ATOM      3  F   UNL     1      43.818   6.852  11.546  0.00  0.00    +0.000 F 
ENDROOT
BRANCH   1   6
ATOM      4  C   UNL     1      47.202   4.692  14.144  0.00  0.00    +0.000 A 
ATOM      5  C   UNL     1      45.884   4.735  13.714  0.00  0.00    +0.000 A 
ATOM      6  C   UNL     1      45.518   5.684  12.748  0.00  0.00    +0.000 A 
ATOM      7  C   UNL     1      46.517   6.558  12.293  0.00  0.00    +0.000 A 
ATOM      8  C   UNL     1      47.803   6.442  12.798  0.00  0.00    +0.000 A 
ATOM      9  N   UNL     1      48.169   5.522  13.708  0.00  0.00    +0.000 NA
BRANCH   4  10
ATOM     10  O   UNL     1      47.535   3.717  15.062  0.00  0.00    +0.000 OA
BRANCH  10  14
ATOM     11  C   UNL     1      49.123   3.985  19.250  0.00  0.00    +0.000 C 
ATOM     12  C   UNL     1      48.762   3.863  17.779  0.00  0.00    +0.000 C 
ATOM     13  C   UNL     1      47.887   5.019  17.231  0.00  0.00    +0.000 C 
ATOM     14  C   UNL     1      47.092   3.961  16.420  0.00  0.00    +0.000 C 
ATOM     15  C   UNL     1      47.573   2.917  17.460  0.00  0.00    +0.000 C 
BRANCH  12  16
ATOM     16  O   UNL     1      49.965   3.583  17.028  0.00  0.00    +0.000 OA
ATOM     17  H   UNL     1      50.068   2.616  17.055  0.00  0.00    +0.000 HD
ENDBRANCH  12  16
ENDBRANCH  10  14
ENDBRANCH   4  10
ENDBRANCH   1   6
BRANCH   1  18
ATOM     18  C   UNL     1      43.753   4.511  11.290  0.00  0.00    +0.000 C 
BRANCH  18  19
ATOM     19  N   UNL     1      43.729   4.828   9.848  0.00  0.00    +0.000 N 
ATOM     20  H   UNL     1      43.870   5.818   9.652  0.00  0.00    +0.000 HD
BRANCH  19  21
ATOM     21  C   UNL     1      44.643   4.049   9.106  0.00  0.00    +0.000 A 
ATOM     22  N   UNL     1      45.515   4.666   8.271  0.00  0.00    +0.000 NA
ATOM     23  C   UNL     1      46.401   3.894   7.591  0.00  0.00    +0.000 A 
ATOM     24  C   UNL     1      46.494   2.517   7.723  0.00  0.00    +0.000 A 
ATOM     25  C   UNL     1      45.605   1.885   8.589  0.00  0.00    +0.000 A 
ATOM     26  C   UNL     1      44.677   2.659   9.279  0.00  0.00    +0.000 A 
ATOM     27  F   UNL     1      43.809   2.052  10.103  0.00  0.00    +0.000 F 
BRANCH  24  28
ATOM     28  C   UNL     1      47.502   1.796   6.920  0.00  0.00    +0.000 C 
ATOM     29  N   UNL     1      48.581   2.508   6.476  0.00  0.00    +0.000 N 
ATOM     30  O   UNL     1      47.365   0.613   6.642  0.00  0.00    +0.000 OA
ATOM     31  H   UNL     1      48.625   3.517   6.485  0.00  0.00    +0.000 HD
ATOM     32  H   UNL     1      49.220   2.020   5.860  0.00  0.00    +0.000 HD
ENDBRANCH  24  28
ENDBRANCH  19  21
ENDBRANCH  18  19
ENDBRANCH   1  18
TORSDOF 8
ENDMDL
MODEL 2
REMARK VINA RESULT:    -8.579      2.230      3.821
REMARK INTER + INTRA:         -12.914
REMARK INTER:                 -12.064
REMARK INTRA:                  -0.850
REMARK UNBOUND:                -0.573
REMARK  Name = 
REMARK  9 active torsions:
REMARK  status: ('A' for Active; 'I' for Inactive)
REMARK    1  A    between atoms: C_1  and  C_2
REMARK    2  A    between atoms: C_2  and  O_3
REMARK    3  A    between atoms: C_5  and  O_6
REMARK    4  A    between atoms: O_6  and  C_7
REMARK    5  A    between atoms: C_9  and  C_10
REMARK    6  A    between atoms: C_10  and  C_13
REMARK    7  A    between atoms: C_13  and  N_14
REMARK    8  A    between atoms: N_14  and  C_15
REMARK    9  A    between atoms: C_18  and  C_19
REMARK                            x       y       z     vdW  Elec       q    Type
REMARK                         _______ _______ _______ _____ _____    ______ ____
ROOT
ATOM      1  C   UNL     1      44.611   6.126  11.925  0.00  0.00    +0.000 C 
ATOM      2  F   UNL     1      43.598   6.730  12.617  0.00  0.00    +0.000 F 
ATOM      3  F   UNL     1      44.896   6.979  10.892  0.00  0.00    +0.000 F 
ENDROOT
BRANCH   1   6
ATOM      4  C   UNL     1      47.917   6.738  13.680  0.00  0.00    +0.000 A 
ATOM      5  C   UNL     1      46.837   6.898  12.825  0.00  0.00    +0.000 A 
ATOM      6  C   UNL     1      45.828   5.924  12.821  0.00  0.00    +0.000 A 
ATOM      7  C   UNL     1      45.992   4.822  13.674  0.00  0.00    +0.000 A 
ATOM      8  C   UNL     1      47.118   4.748  14.479  0.00  0.00    +0.000 A 
ATOM      9  N   UNL     1      48.080   5.687  14.508  0.00  0.00    +0.000 NA
BRANCH   4  10
ATOM     10  O   UNL     1      48.868   7.738  13.690  0.00  0.00    +0.000 OA
BRANCH  10  14
ATOM     11  C   UNL     1      52.250   9.026  11.037  0.00  0.00    +0.000 C 
ATOM     12  C   UNL     1      51.236   8.525  12.052  0.00  0.00    +0.000 C 
ATOM     13  C   UNL     1      50.102   7.654  11.455  0.00  0.00    +0.000 C 
ATOM     14  C   UNL     1      49.116   8.376  12.413  0.00  0.00    +0.000 C 
ATOM     15  C   UNL     1      50.135   9.543  12.454  0.00  0.00    +0.000 C 
BRANCH  12  16
ATOM     16  O   UNL     1      51.946   7.943  13.169  0.00  0.00    +0.000 OA
ATOM     17  H   UNL     1      51.702   8.483  13.940  0.00  0.00    +0.000 HD
ENDBRANCH  12  16
ENDBRANCH  10  14
ENDBRANCH   4  10
ENDBRANCH   1   6
BRANCH   1  18
ATOM     18  C   UNL     1      44.069   4.812  11.308  0.00  0.00    +0.000 C 
BRANCH  18  19
ATOM     19  N   UNL     1      43.794   4.855   9.858  0.00  0.00    +0.000 N 
ATOM     20  H   UNL     1      43.766   5.802   9.481  0.00  0.00    +0.000 HD
BRANCH  19  21
ATOM     21  C   UNL     1      44.689   4.059   9.112  0.00  0.00    +0.000 A 
ATOM     22  N   UNL     1      45.543   4.657   8.246  0.00  0.00    +0.000 NA
ATOM     23  C   UNL     1      46.412   3.869   7.562  0.00  0.00    +0.000 A 
ATOM     24  C   UNL     1      46.506   2.495   7.720  0.00  0.00    +0.000 A 
ATOM     25  C   UNL     1      45.635   1.882   8.618  0.00  0.00    +0.000 A 
ATOM     26  C   UNL     1      44.724   2.673   9.312  0.00  0.00    +0.000 A 
ATOM     27  F   UNL     1      43.873   2.085  10.168  0.00  0.00    +0.000 F 
BRANCH  24  28
ATOM     28  C   UNL     1      47.495   1.755   6.910  0.00  0.00    +0.000 C 
ATOM     29  N   UNL     1      48.556   2.459   6.413  0.00  0.00    +0.000 N 
ATOM     30  O   UNL     1      47.356   0.564   6.671  0.00  0.00    +0.000 OA
ATOM     31  H   UNL     1      48.594   3.467   6.391  0.00  0.00    +0.000 HD
ATOM     32  H   UNL     1      49.180   1.956   5.794  0.00  0.00    +0.000 HD
ENDBRANCH  24  28
ENDBRANCH  19  21
ENDBRANCH  18  19
ENDBRANCH   1  18
TORSDOF 8
ENDMDL
MODEL 3
REMARK VINA RESULT:    -7.853      2.086      2.467
REMARK INTER + INTRA:         -11.868
REMARK INTER:                 -11.447
REMARK INTRA:                  -0.422
REMARK UNBOUND:                -0.573
REMARK  Name = 
REMARK  9 active torsions:
REMARK  status: ('A' for Active; 'I' for Inactive)
REMARK    1  A    between atoms: C_1  and  C_2
REMARK    2  A    between atoms: C_2  and  O_3
REMARK    3  A    between atoms: C_5  and  O_6
REMARK    4  A    between atoms: O_6  and  C_7
REMARK    5  A    between atoms: C_9  and  C_10
REMARK    6  A    between atoms: C_10  and  C_13
REMARK    7  A    between atoms: C_13  and  N_14
REMARK    8  A    between atoms: N_14  and  C_15
REMARK    9  A    between atoms: C_18  and  C_19
REMARK                            x       y       z     vdW  Elec       q    Type
REMARK                         _______ _______ _______ _____ _____    ______ ____
ROOT
ATOM      1  C   UNL     1      45.042   5.281  12.130  0.00  0.00    +0.000 C 
ATOM      2  F   UNL     1      45.690   4.087  11.973  0.00  0.00    +0.000 F 
ATOM      3  F   UNL     1      43.949   4.994  12.904  0.00  0.00    +0.000 F 
ENDROOT
BRANCH   1   6
ATOM      4  C   UNL     1      47.967   6.783  14.022  0.00  0.00    +0.000 A 
ATOM      5  C   UNL     1      47.118   5.850  13.445  0.00  0.00    +0.000 A 
ATOM      6  C   UNL     1      45.947   6.298  12.816  0.00  0.00    +0.000 A 
ATOM      7  C   UNL     1      45.693   7.678  12.835  0.00  0.00    +0.000 A 
ATOM      8  C   UNL     1      46.598   8.527  13.453  0.00  0.00    +0.000 A 
ATOM      9  N   UNL     1      47.734   8.110  14.039  0.00  0.00    +0.000 NA
BRANCH   4  10
ATOM     10  O   UNL     1      49.130   6.310  14.592  0.00  0.00    +0.000 OA
BRANCH  10  14
ATOM     11  C   UNL     1      50.859   5.729  18.692  0.00  0.00    +0.000 C 
ATOM     12  C   UNL     1      50.270   5.739  17.292  0.00  0.00    +0.000 C 
ATOM     13  C   UNL     1      51.011   6.655  16.286  0.00  0.00    +0.000 C 
ATOM     14  C   UNL     1      49.625   7.069  15.723  0.00  0.00    +0.000 C 
ATOM     15  C   UNL     1      49.033   6.657  17.094  0.00  0.00    +0.000 C 
BRANCH  12  16
ATOM     16  O   UNL     1      50.072   4.373  16.861  0.00  0.00    +0.000 OA
ATOM     17  H   UNL     1      50.598   3.830  17.473  0.00  0.00    +0.000 HD
ENDBRANCH  12  16
ENDBRANCH  10  14
ENDBRANCH   4  10
ENDBRANCH   1   6
BRANCH   1  18
ATOM     18  C   UNL     1      44.524   5.744  10.745  0.00  0.00    +0.000 C 
BRANCH  18  19
ATOM     19  N   UNL     1      43.770   4.734   9.976  0.00  0.00    +0.000 N 
ATOM     20  H   UNL     1      43.121   5.143   9.304  0.00  0.00    +0.000 HD
BRANCH  19  21
ATOM     21  C   UNL     1      44.611   3.799   9.336  0.00  0.00    +0.000 A 
ATOM     22  N   UNL     1      44.356   2.475   9.472  0.00  0.00    +0.000 NA
ATOM     23  C   UNL     1      45.165   1.600   8.822  0.00  0.00    +0.000 A 
ATOM     24  C   UNL     1      46.215   1.976   7.998  0.00  0.00    +0.000 A 
ATOM     25  C   UNL     1      46.470   3.337   7.849  0.00  0.00    +0.000 A 
ATOM     26  C   UNL     1      45.662   4.248   8.524  0.00  0.00    +0.000 A 
ATOM     27  F   UNL     1      45.913   5.559   8.395  0.00  0.00    +0.000 F 
BRANCH  24  28
ATOM     28  C   UNL     1      47.020   0.920   7.352  0.00  0.00    +0.000 C 
ATOM     29  N   UNL     1      46.746  -0.376   7.687  0.00  0.00    +0.000 N 
ATOM     30  O   UNL     1      47.916   1.196   6.566  0.00  0.00    +0.000 OA
ATOM     31  H   UNL     1      46.183  -0.639   8.483  0.00  0.00    +0.000 HD
ATOM     32  H   UNL     1      47.360  -1.082   7.298  0.00  0.00    +0.000 HD
ENDBRANCH  24  28
ENDBRANCH  19  21
ENDBRANCH  18  19
ENDBRANCH   1  18
TORSDOF 8
ENDMDL
MODEL 4
REMARK VINA RESULT:    -7.509      3.125      4.248
REMARK INTER + INTRA:         -11.374
REMARK INTER:                  -9.751
REMARK INTRA:                  -1.623
REMARK UNBOUND:                -0.573
REMARK  Name = 
REMARK  9 active torsions:
REMARK  status: ('A' for Active; 'I' for Inactive)
REMARK    1  A    between atoms: C_1  and  C_2
REMARK    2  A    between atoms: C_2  and  O_3
REMARK    3  A    between atoms: C_5  and  O_6
REMARK    4  A    between atoms: O_6  and  C_7
REMARK    5  A    between atoms: C_9  and  C_10
REMARK    6  A    between atoms: C_10  and  C_13
REMARK    7  A    between atoms: C_13  and  N_14
REMARK    8  A    between atoms: N_14  and  C_15
REMARK    9  A    between atoms: C_18  and  C_19
REMARK                            x       y       z     vdW  Elec       q    Type
REMARK                         _______ _______ _______ _____ _____    ______ ____
ROOT
ATOM      1  C   UNL     1      47.608   8.223  12.203  0.00  0.00    +0.000 C 
ATOM      2  F   UNL     1      48.208   9.180  11.431  0.00  0.00    +0.000 F 
ATOM      3  F   UNL     1      47.868   7.038  11.566  0.00  0.00    +0.000 F 
ENDROOT
BRANCH   1   6
ATOM      4  C   UNL     1      49.275   7.050  15.401  0.00  0.00    +0.000 A 
ATOM      5  C   UNL     1      48.698   7.032  14.140  0.00  0.00    +0.000 A 
ATOM      6  C   UNL     1      48.190   8.227  13.612  0.00  0.00    +0.000 A 
ATOM      7  C   UNL     1      48.275   9.374  14.416  0.00  0.00    +0.000 A 
ATOM      8  C   UNL     1      48.857   9.283  15.670  0.00  0.00    +0.000 A 
ATOM      9  N   UNL     1      49.367   8.147  16.177  0.00  0.00    +0.000 NA
BRANCH   4  10
ATOM     10  O   UNL     1      49.804   5.865  15.870  0.00  0.00    +0.000 OA
BRANCH  10  14
ATOM     11  C   UNL     1      47.306   2.634  17.729  0.00  0.00    +0.000 C 
ATOM     12  C   UNL     1      48.122   3.641  16.936  0.00  0.00    +0.000 C 
ATOM     13  C   UNL     1      49.529   3.933  17.518  0.00  0.00    +0.000 C 
ATOM     14  C   UNL     1      49.308   5.427  17.160  0.00  0.00    +0.000 C 
ATOM     15  C   UNL     1      47.788   5.133  17.208  0.00  0.00    +0.000 C 
BRANCH  12  16
ATOM     16  O   UNL     1      48.090   3.268  15.540  0.00  0.00    +0.000 OA
ATOM     17  H   UNL     1      47.274   2.750  15.429  0.00  0.00    +0.000 HD
ENDBRANCH  12  16
ENDBRANCH  10  14
ENDBRANCH   4  10
ENDBRANCH   1   6
BRANCH   1  18
ATOM     18  C   UNL     1      46.076   8.449  12.162  0.00  0.00    +0.000 C 
BRANCH  18  19
ATOM     19  N   UNL     1      45.289   7.663  13.133  0.00  0.00    +0.000 N 
ATOM     20  H   UNL     1      44.473   8.162  13.486  0.00  0.00    +0.000 HD
BRANCH  19  21
ATOM     21  C   UNL     1      44.910   6.401  12.630  0.00  0.00    +0.000 A 
ATOM     22  N   UNL     1      44.120   6.335  11.531  0.00  0.00    +0.000 NA
ATOM     23  C   UNL     1      43.793   5.106  11.053  0.00  0.00    +0.000 A 
ATOM     24  C   UNL     1      44.247   3.914  11.597  0.00  0.00    +0.000 A 
ATOM     25  C   UNL     1      45.068   3.983  12.720  0.00  0.00    +0.000 A 
ATOM     26  C   UNL     1      45.396   5.234  13.235  0.00  0.00    +0.000 A 
ATOM     27  F   UNL     1      46.175   5.303  14.326  0.00  0.00    +0.000 F 
BRANCH  24  28
ATOM     28  C   UNL     1      43.813   2.645  10.980  0.00  0.00    +0.000 C 
ATOM     29  N   UNL     1      44.475   2.230   9.859  0.00  0.00    +0.000 N 
ATOM     30  O   UNL     1      42.881   2.001  11.441  0.00  0.00    +0.000 OA
ATOM     31  H   UNL     1      45.087   2.825   9.320  0.00  0.00    +0.000 HD
ATOM     32  H   UNL     1      44.113   1.401   9.403  0.00  0.00    +0.000 HD
ENDBRANCH  24  28
ENDBRANCH  19  21
ENDBRANCH  18  19
ENDBRANCH   1  18
TORSDOF 8
ENDMDL
MODEL 5
REMARK VINA RESULT:    -7.450      2.629      8.041
REMARK INTER + INTRA:         -11.289
REMARK INTER:                 -10.567
REMARK INTRA:                  -0.722
REMARK UNBOUND:                -0.573
REMARK  Name = 
REMARK  9 active torsions:
REMARK  status: ('A' for Active; 'I' for Inactive)
REMARK    1  A    between atoms: C_1  and  C_2
REMARK    2  A    between atoms: C_2  and  O_3
REMARK    3  A    between atoms: C_5  and  O_6
REMARK    4  A    between atoms: O_6  and  C_7
REMARK    5  A    between atoms: C_9  and  C_10
REMARK    6  A    between atoms: C_10  and  C_13
REMARK    7  A    between atoms: C_13  and  N_14
REMARK    8  A    between atoms: N_14  and  C_15
REMARK    9  A    between atoms: C_18  and  C_19
REMARK                            x       y       z     vdW  Elec       q    Type
REMARK                         _______ _______ _______ _____ _____    ______ ____
ROOT
ATOM      1  C   UNL     1      46.221   7.330  12.388  0.00  0.00    +0.000 C 
ATOM      2  F   UNL     1      46.129   8.297  11.425  0.00  0.00    +0.000 F 
ATOM      3  F   UNL     1      45.924   7.969  13.563  0.00  0.00    +0.000 F 
ENDROOT
BRANCH   1   6
ATOM      4  C   UNL     1      44.610   4.272  10.826  0.00  0.00    +0.000 A 
ATOM      5  C   UNL     1      45.480   5.331  11.042  0.00  0.00    +0.000 A 
ATOM      6  C   UNL     1      45.235   6.201  12.113  0.00  0.00    +0.000 A 
ATOM      7  C   UNL     1      44.093   5.958  12.892  0.00  0.00    +0.000 A 
ATOM      8  C   UNL     1      43.277   4.881  12.584  0.00  0.00    +0.000 A 
ATOM      9  N   UNL     1      43.515   4.027  11.573  0.00  0.00    +0.000 NA
BRANCH   4  10
ATOM     10  O   UNL     1      44.907   3.411   9.790  0.00  0.00    +0.000 OA
BRANCH  10  14
ATOM     11  C   UNL     1      46.821   2.809   5.777  0.00  0.00    +0.000 C 
ATOM     12  C   UNL     1      46.259   2.854   7.188  0.00  0.00    +0.000 C 
ATOM     13  C   UNL     1      44.727   3.079   7.264  0.00  0.00    +0.000 C 
ATOM     14  C   UNL     1      44.979   4.016   8.476  0.00  0.00    +0.000 C 
ATOM     15  C   UNL     1      46.414   4.211   7.926  0.00  0.00    +0.000 C 
BRANCH  12  16
ATOM     16  O   UNL     1      46.759   1.715   7.924  0.00  0.00    +0.000 OA
ATOM     17  H   UNL     1      46.714   1.972   8.861  0.00  0.00    +0.000 HD
ENDBRANCH  12  16
ENDBRANCH  10  14
ENDBRANCH   4  10
ENDBRANCH   1   6
BRANCH   1  18
ATOM     18  C   UNL     1      47.696   6.861  12.473  0.00  0.00    +0.000 C 
BRANCH  18  19
ATOM     19  N   UNL     1      48.405   7.210  13.720  0.00  0.00    +0.000 N 
ATOM     20  H   UNL     1      48.199   8.153  14.050  0.00  0.00    +0.000 HD
BRANCH  19  21
ATOM     21  C   UNL     1      48.183   6.273  14.752  0.00  0.00    +0.000 A 
ATOM     22  N   UNL     1      47.522   5.124  14.472  0.00  0.00    +0.000 NA
ATOM     23  C   UNL     1      47.347   4.228  15.478  0.00  0.00    +0.000 A 
ATOM     24  C   UNL     1      47.835   4.399  16.765  0.00  0.00    +0.000 A 
ATOM     25  C   UNL     1      48.524   5.576  17.049  0.00  0.00    +0.000 A 
ATOM     26  C   UNL     1      48.694   6.514  16.034  0.00  0.00    +0.000 A 
ATOM     27  F   UNL     1      49.345   7.655  16.307  0.00  0.00    +0.000 F 
BRANCH  24  28
ATOM     28  C   UNL     1      47.571   3.347  17.767  0.00  0.00    +0.000 C 
ATOM     29  N   UNL     1      48.420   3.266  18.835  0.00  0.00    +0.000 N 
ATOM     30  O   UNL     1      46.643   2.561  17.633  0.00  0.00    +0.000 OA
ATOM     31  H   UNL     1      49.314   3.734  18.873  0.00  0.00    +0.000 HD
ATOM     32  H   UNL     1      48.274   2.489  19.469  0.00  0.00    +0.000 HD
ENDBRANCH  24  28
ENDBRANCH  19  21
ENDBRANCH  18  19
ENDBRANCH   1  18
TORSDOF 8
ENDMDL
MODEL 6
REMARK VINA RESULT:    -7.418      2.734      3.310
REMARK INTER + INTRA:         -11.244
REMARK INTER:                 -10.505
REMARK INTRA:                  -0.739
REMARK UNBOUND:                -0.573
REMARK  Name = 
REMARK  9 active torsions:
REMARK  status: ('A' for Active; 'I' for Inactive)
REMARK    1  A    between atoms: C_1  and  C_2
REMARK    2  A    between atoms: C_2  and  O_3
REMARK    3  A    between atoms: C_5  and  O_6
REMARK    4  A    between atoms: O_6  and  C_7
REMARK    5  A    between atoms: C_9  and  C_10
REMARK    6  A    between atoms: C_10  and  C_13
REMARK    7  A    between atoms: C_13  and  N_14
REMARK    8  A    between atoms: N_14  and  C_15
REMARK    9  A    between atoms: C_18  and  C_19
REMARK                            x       y       z     vdW  Elec       q    Type
REMARK                         _______ _______ _______ _____ _____    ______ ____
ROOT
ATOM      1  C   UNL     1      45.263   5.897  12.005  0.00  0.00    +0.000 C 
ATOM      2  F   UNL     1      46.018   4.758  12.060  0.00  0.00    +0.000 F 
ATOM      3  F   UNL     1      44.163   5.632  12.777  0.00  0.00    +0.000 F 
ENDROOT
BRANCH   1   6
ATOM      4  C   UNL     1      47.725   7.948  14.034  0.00  0.00    +0.000 A 
ATOM      5  C   UNL     1      46.978   6.873  13.575  0.00  0.00    +0.000 A 
ATOM      6  C   UNL     1      46.044   7.086  12.551  0.00  0.00    +0.000 A 
ATOM      7  C   UNL     1      45.904   8.397  12.070  0.00  0.00    +0.000 A 
ATOM      8  C   UNL     1      46.688   9.406  12.607  0.00  0.00    +0.000 A 
ATOM      9  N   UNL     1      47.602   9.208  13.573  0.00  0.00    +0.000 NA
BRANCH   4  10
ATOM     10  O   UNL     1      48.665   7.693  15.011  0.00  0.00    +0.000 OA
BRANCH  10  14
ATOM     11  C   UNL     1      52.905   9.063  15.540  0.00  0.00    +0.000 C 
ATOM     12  C   UNL     1      51.424   8.726  15.490  0.00  0.00    +0.000 C 
ATOM     13  C   UNL     1      51.102   7.215  15.612  0.00  0.00    +0.000 C 
ATOM     14  C   UNL     1      50.005   7.417  14.532  0.00  0.00    +0.000 C 
ATOM     15  C   UNL     1      50.801   8.664  14.070  0.00  0.00    +0.000 C 
BRANCH  12  16
ATOM     16  O   UNL     1      50.721   9.589  16.412  0.00  0.00    +0.000 OA
ATOM     17  H   UNL     1      50.427  10.350  15.882  0.00  0.00    +0.000 HD
ENDBRANCH  12  16
ENDBRANCH  10  14
ENDBRANCH   4  10
ENDBRANCH   1   6
BRANCH   1  18
ATOM     18  C   UNL     1      44.774   6.091  10.548  0.00  0.00    +0.000 C 
BRANCH  18  19
ATOM     19  N   UNL     1      44.029   4.955   9.968  0.00  0.00    +0.000 N 
ATOM     20  H   UNL     1      43.202   5.242   9.445  0.00  0.00    +0.000 HD
BRANCH  19  21
ATOM     21  C   UNL     1      44.843   4.120   9.175  0.00  0.00    +0.000 A 
ATOM     22  N   UNL     1      45.706   4.680   8.291  0.00  0.00    +0.000 NA
ATOM     23  C   UNL     1      46.497   3.853   7.560  0.00  0.00    +0.000 A 
ATOM     24  C   UNL     1      46.504   2.472   7.687  0.00  0.00    +0.000 A 
ATOM     25  C   UNL     1      45.626   1.898   8.603  0.00  0.00    +0.000 A 
ATOM     26  C   UNL     1      44.794   2.730   9.345  0.00  0.00    +0.000 A 
ATOM     27  F   UNL     1      43.936   2.180  10.218  0.00  0.00    +0.000 F 
BRANCH  24  28
ATOM     28  C   UNL     1      47.414   1.688   6.827  0.00  0.00    +0.000 C 
ATOM     29  N   UNL     1      48.499   2.334   6.304  0.00  0.00    +0.000 N 
ATOM     30  O   UNL     1      47.191   0.513   6.572  0.00  0.00    +0.000 OA
ATOM     31  H   UNL     1      48.602   3.338   6.299  0.00  0.00    +0.000 HD
ATOM     32  H   UNL     1      49.067   1.805   5.653  0.00  0.00    +0.000 HD
ENDBRANCH  24  28
ENDBRANCH  19  21
ENDBRANCH  18  19
ENDBRANCH   1  18
TORSDOF 8
ENDMDL
MODEL 7
REMARK VINA RESULT:    -7.342      2.078      2.630
REMARK INTER + INTRA:         -11.134
REMARK INTER:                 -10.485
REMARK INTRA:                  -0.649
REMARK UNBOUND:                -0.573
REMARK  Name = 
REMARK  9 active torsions:
REMARK  status: ('A' for Active; 'I' for Inactive)
REMARK    1  A    between atoms: C_1  and  C_2
REMARK    2  A    between atoms: C_2  and  O_3
REMARK    3  A    between atoms: C_5  and  O_6
REMARK    4  A    between atoms: O_6  and  C_7
REMARK    5  A    between atoms: C_9  and  C_10
REMARK    6  A    between atoms: C_10  and  C_13
REMARK    7  A    between atoms: C_13  and  N_14
REMARK    8  A    between atoms: N_14  and  C_15
REMARK    9  A    between atoms: C_18  and  C_19
REMARK                            x       y       z     vdW  Elec       q    Type
REMARK                         _______ _______ _______ _____ _____    ______ ____
ROOT
ATOM      1  C   UNL     1      44.474   6.541  11.422  0.00  0.00    +0.000 C 
ATOM      2  F   UNL     1      43.567   7.278  12.134  0.00  0.00    +0.000 F 
ATOM      3  F   UNL     1      45.034   7.425  10.538  0.00  0.00    +0.000 F 
ENDROOT
BRANCH   1   6
ATOM      4  C   UNL     1      47.803   5.888  13.117  0.00  0.00    +0.000 A 
ATOM      5  C   UNL     1      46.855   6.390  12.238  0.00  0.00    +0.000 A 
ATOM      6  C   UNL     1      45.529   5.948  12.348  0.00  0.00    +0.000 A 
ATOM      7  C   UNL     1      45.249   4.993  13.338  0.00  0.00    +0.000 A 
ATOM      8  C   UNL     1      46.272   4.543  14.157  0.00  0.00    +0.000 A 
ATOM      9  N   UNL     1      47.542   4.976  14.074  0.00  0.00    +0.000 NA
BRANCH   4  10
ATOM     10  O   UNL     1      49.088   6.379  13.008  0.00  0.00    +0.000 OA
BRANCH  10  14
ATOM     11  C   UNL     1      50.225   8.258  16.920  0.00  0.00    +0.000 C 
ATOM     12  C   UNL     1      49.859   7.457  15.683  0.00  0.00    +0.000 C 
ATOM     13  C   UNL     1      50.636   7.856  14.402  0.00  0.00    +0.000 C 
ATOM     14  C   UNL     1      49.314   7.678  13.608  0.00  0.00    +0.000 C 
ATOM     15  C   UNL     1      48.571   7.916  14.947  0.00  0.00    +0.000 C 
BRANCH  12  16
ATOM     16  O   UNL     1      49.886   6.051  16.015  0.00  0.00    +0.000 OA
ATOM     17  H   UNL     1      50.742   5.724  15.688  0.00  0.00    +0.000 HD
ENDBRANCH  12  16
ENDBRANCH  10  14
ENDBRANCH   4  10
ENDBRANCH   1   6
BRANCH   1  18
ATOM     18  C   UNL     1      43.705   5.481  10.596  0.00  0.00    +0.000 C 
BRANCH  18  19
ATOM     19  N   UNL     1      44.247   4.108  10.655  0.00  0.00    +0.000 N 
ATOM     20  H   UNL     1      43.536   3.403  10.843  0.00  0.00    +0.000 HD
BRANCH  19  21
ATOM     21  C   UNL     1      44.983   3.764   9.501  0.00  0.00    +0.000 A 
ATOM     22  N   UNL     1      45.654   4.732   8.830  0.00  0.00    +0.000 NA
ATOM     23  C   UNL     1      46.375   4.367   7.739  0.00  0.00    +0.000 A 
ATOM     24  C   UNL     1      46.498   3.061   7.289  0.00  0.00    +0.000 A 
ATOM     25  C   UNL     1      45.817   2.066   7.985  0.00  0.00    +0.000 A 
ATOM     26  C   UNL     1      45.056   2.426   9.094  0.00  0.00    +0.000 A 
ATOM     27  F   UNL     1      44.387   1.472   9.759  0.00  0.00    +0.000 F 
BRANCH  24  28
ATOM     28  C   UNL     1      47.313   2.802   6.084  0.00  0.00    +0.000 C 
ATOM     29  N   UNL     1      48.626   2.470   6.271  0.00  0.00    +0.000 N 
ATOM     30  O   UNL     1      46.838   2.905   4.962  0.00  0.00    +0.000 OA
ATOM     31  H   UNL     1      49.112   2.591   7.147  0.00  0.00    +0.000 HD
ATOM     32  H   UNL     1      49.189   2.375   5.434  0.00  0.00    +0.000 HD
ENDBRANCH  24  28
ENDBRANCH  19  21
ENDBRANCH  18  19
ENDBRANCH   1  18
TORSDOF 8
ENDMDL
MODEL 8
REMARK VINA RESULT:    -7.073      3.711      7.897
REMARK INTER + INTRA:         -10.746
REMARK INTER:                  -9.663
REMARK INTRA:                  -1.083
REMARK UNBOUND:                -0.573
REMARK  Name = 
REMARK  9 active torsions:
REMARK  status: ('A' for Active; 'I' for Inactive)
REMARK    1  A    between atoms: C_1  and  C_2
REMARK    2  A    between atoms: C_2  and  O_3
REMARK    3  A    between atoms: C_5  and  O_6
REMARK    4  A    between atoms: O_6  and  C_7
REMARK    5  A    between atoms: C_9  and  C_10
REMARK    6  A    between atoms: C_10  and  C_13
REMARK    7  A    between atoms: C_13  and  N_14
REMARK    8  A    between atoms: N_14  and  C_15
REMARK    9  A    between atoms: C_18  and  C_19
REMARK                            x       y       z     vdW  Elec       q    Type
REMARK                         _______ _______ _______ _____ _____    ______ ____
ROOT
ATOM      1  C   UNL     1      49.209   8.108  12.079  0.00  0.00    +0.000 C 
ATOM      2  F   UNL     1      49.660   7.397  11.001  0.00  0.00    +0.000 F 
ATOM      3  F   UNL     1      49.766   9.352  11.942  0.00  0.00    +0.000 F 
ENDROOT
BRANCH   1   6
ATOM      4  C   UNL     1      45.563   7.066  12.061  0.00  0.00    +0.000 A 
ATOM      5  C   UNL     1      46.947   6.996  12.010  0.00  0.00    +0.000 A 
ATOM      6  C   UNL     1      47.687   8.185  12.075  0.00  0.00    +0.000 A 
ATOM      7  C   UNL     1      46.969   9.387  12.159  0.00  0.00    +0.000 A 
ATOM      8  C   UNL     1      45.583   9.351  12.187  0.00  0.00    +0.000 A 
ATOM      9  N   UNL     1      44.864   8.215  12.148  0.00  0.00    +0.000 NA
BRANCH   4  10
ATOM     10  O   UNL     1      44.869   5.874  12.040  0.00  0.00    +0.000 OA
BRANCH  10  14
ATOM     11  C   UNL     1      44.496   2.274   9.387  0.00  0.00    +0.000 C 
ATOM     12  C   UNL     1      44.706   3.379  10.409  0.00  0.00    +0.000 C 
ATOM     13  C   UNL     1      43.440   4.217  10.721  0.00  0.00    +0.000 C 
ATOM     14  C   UNL     1      44.347   5.477  10.748  0.00  0.00    +0.000 C 
ATOM     15  C   UNL     1      45.339   4.686   9.859  0.00  0.00    +0.000 C 
BRANCH  12  16
ATOM     16  O   UNL     1      45.386   2.826  11.558  0.00  0.00    +0.000 OA
ATOM     17  H   UNL     1      45.049   3.324  12.323  0.00  0.00    +0.000 HD
ENDBRANCH  12  16
ENDBRANCH  10  14
ENDBRANCH   4  10
ENDBRANCH   1   6
BRANCH   1  18
ATOM     18  C   UNL     1      49.796   7.474  13.365  0.00  0.00    +0.000 C 
BRANCH  18  19
ATOM     19  N   UNL     1      49.190   7.925  14.634  0.00  0.00    +0.000 N 
ATOM     20  H   UNL     1      48.426   8.588  14.500  0.00  0.00    +0.000 HD
BRANCH  19  21
ATOM     21  C   UNL     1      48.768   6.852  15.446  0.00  0.00    +0.000 A 
ATOM     22  N   UNL     1      48.153   5.788  14.873  0.00  0.00    +0.000 NA
ATOM     23  C   UNL     1      47.783   4.758  15.676  0.00  0.00    +0.000 A 
ATOM     24  C   UNL     1      48.027   4.708  17.040  0.00  0.00    +0.000 A 
ATOM     25  C   UNL     1      48.669   5.796  17.627  0.00  0.00    +0.000 A 
ATOM     26  C   UNL     1      49.036   6.870  16.822  0.00  0.00    +0.000 A 
ATOM     27  F   UNL     1      49.642   7.927  17.385  0.00  0.00    +0.000 F 
BRANCH  24  28
ATOM     28  C   UNL     1      47.568   3.527  17.798  0.00  0.00    +0.000 C 
ATOM     29  N   UNL     1      48.314   3.141  18.877  0.00  0.00    +0.000 N 
ATOM     30  O   UNL     1      46.573   2.903  17.459  0.00  0.00    +0.000 OA
ATOM     31  H   UNL     1      49.248   3.478  19.058  0.00  0.00    +0.000 HD
ATOM     32  H   UNL     1      48.031   2.283  19.336  0.00  0.00    +0.000 HD
ENDBRANCH  24  28
ENDBRANCH  19  21
ENDBRANCH  18  19
ENDBRANCH   1  18
TORSDOF 8
ENDMDL
MODEL 9
REMARK VINA RESULT:    -6.962      3.625      6.792
REMARK INTER + INTRA:         -10.588
REMARK INTER:                  -8.374
REMARK INTRA:                  -2.213
REMARK UNBOUND:                -0.573
REMARK  Name = 
REMARK  9 active torsions:
REMARK  status: ('A' for Active; 'I' for Inactive)
REMARK    1  A    between atoms: C_1  and  C_2
REMARK    2  A    between atoms: C_2  and  O_3
REMARK    3  A    between atoms: C_5  and  O_6
REMARK    4  A    between atoms: O_6  and  C_7
REMARK    5  A    between atoms: C_9  and  C_10
REMARK    6  A    between atoms: C_10  and  C_13
REMARK    7  A    between atoms: C_13  and  N_14
REMARK    8  A    between atoms: N_14  and  C_15
REMARK    9  A    between atoms: C_18  and  C_19
REMARK                            x       y       z     vdW  Elec       q    Type
REMARK                         _______ _______ _______ _____ _____    ______ ____
ROOT
ATOM      1  C   UNL     1      46.424   7.389  12.120  0.00  0.00    +0.000 C 
ATOM      2  F   UNL     1      47.544   7.603  11.365  0.00  0.00    +0.000 F 
ATOM      3  F   UNL     1      45.382   7.814  11.339  0.00  0.00    +0.000 F 
ENDROOT
BRANCH   1   6
ATOM      4  C   UNL     1      46.911   4.041  13.834  0.00  0.00    +0.000 A 
ATOM      5  C   UNL     1      47.080   5.373  13.486  0.00  0.00    +0.000 A 
ATOM      6  C   UNL     1      46.282   5.911  12.466  0.00  0.00    +0.000 A 
ATOM      7  C   UNL     1      45.372   5.049  11.836  0.00  0.00    +0.000 A 
ATOM      8  C   UNL     1      45.291   3.728  12.248  0.00  0.00    +0.000 A 
ATOM      9  N   UNL     1      46.035   3.207  13.240  0.00  0.00    +0.000 NA
BRANCH   4  10
ATOM     10  O   UNL     1      47.681   3.558  14.872  0.00  0.00    +0.000 OA
BRANCH  10  14
ATOM     11  C   UNL     1      49.043   4.215  19.096  0.00  0.00    +0.000 C 
ATOM     12  C   UNL     1      48.763   3.985  17.621  0.00  0.00    +0.000 C 
ATOM     13  C   UNL     1      47.754   4.980  16.992  0.00  0.00    +0.000 C 
ATOM     14  C   UNL     1      47.153   3.787  16.201  0.00  0.00    +0.000 C 
ATOM     15  C   UNL     1      47.736   2.865  17.302  0.00  0.00    +0.000 C 
BRANCH  12  16
ATOM     16  O   UNL     1      50.023   3.853  16.925  0.00  0.00    +0.000 OA
ATOM     17  H   UNL     1      50.426   4.737  16.948  0.00  0.00    +0.000 HD
ENDBRANCH  12  16
ENDBRANCH  10  14
ENDBRANCH   4  10
ENDBRANCH   1   6
BRANCH   1  18
ATOM     18  C   UNL     1      46.484   8.315  13.361  0.00  0.00    +0.000 C 
BRANCH  18  19
ATOM     19  N   UNL     1      47.730   9.093  13.516  0.00  0.00    +0.000 N 
ATOM     20  H   UNL     1      47.568  10.095  13.610  0.00  0.00    +0.000 HD
BRANCH  19  21
ATOM     21  C   UNL     1      48.532   8.627  14.579  0.00  0.00    +0.000 A 
ATOM     22  N   UNL     1      48.244   9.013  15.846  0.00  0.00    +0.000 NA
ATOM     23  C   UNL     1      49.016   8.527  16.852  0.00  0.00    +0.000 A 
ATOM     24  C   UNL     1      50.058   7.631  16.668  0.00  0.00    +0.000 A 
ATOM     25  C   UNL     1      50.347   7.225  15.367  0.00  0.00    +0.000 A 
ATOM     26  C   UNL     1      49.578   7.730  14.323  0.00  0.00    +0.000 A 
ATOM     27  F   UNL     1      49.861   7.353  13.066  0.00  0.00    +0.000 F 
BRANCH  24  28
ATOM     28  C   UNL     1      50.822   7.182  17.850  0.00  0.00    +0.000 C 
ATOM     29  N   UNL     1      51.836   6.289  17.644  0.00  0.00    +0.000 N 
ATOM     30  O   UNL     1      50.541   7.575  18.974  0.00  0.00    +0.000 OA
ATOM     31  H   UNL     1      51.958   5.772  16.786  0.00  0.00    +0.000 HD
ATOM     32  H   UNL     1      52.296   5.931  18.473  0.00  0.00    +0.000 HD
ENDBRANCH  24  28
ENDBRANCH  19  21
ENDBRANCH  18  19
ENDBRANCH   1  18
TORSDOF 8
ENDMDL
