MODEL 1
REMARK VINA RESULT:    -7.821      0.000      0.000
REMARK INTER + INTRA:         -10.791
REMARK INTER:                 -10.107
REMARK INTRA:                  -0.684
REMARK UNBOUND:                -0.684
REMARK  Name = 
REMARK  6 active torsions:
REMARK  status: ('A' for Active; 'I' for Inactive)
REMARK    1  A    between atoms: C_1  and  N_2
REMARK    2  A    between atoms: C_8  and  C_9
REMARK    3  A    between atoms: C_9  and  C_10
REMARK    4  A    between atoms: C_10  and  N_11
REMARK    5  A    between atoms: N_11  and  C_12
REMARK    6  A    between atoms: C_15  and  C_16
REMARK                            x       y       z     vdW  Elec       q    Type
REMARK                         _______ _______ _______ _____ _____    ______ ____
ROOT
ATOM      1  C   UNL     1      50.617  10.886  12.617  0.00  0.00    +0.000 C 
ATOM      2  N   UNL     1      50.338   9.457  12.510  0.00  0.00    +0.000 NA
ATOM      3  C   UNL     1      50.044   8.879  13.849  0.00  0.00    +0.000 C 
ATOM      4  C   UNL     1      49.615   7.388  13.792  0.00  0.00    +0.000 C 
ATOM      5  N   UNL     1      48.464   7.302  12.892  0.00  0.00    +0.000 N 
ATOM      6  C   UNL     1      47.556   6.275  13.054  0.00  0.00    +0.000 A 
ATOM      7  C   UNL     1      46.271   6.441  12.530  0.00  0.00    +0.000 A 
ATOM      8  C   UNL     1      45.280   5.476  12.721  0.00  0.00    +0.000 A 
ATOM      9  C   UNL     1      45.630   4.344  13.454  0.00  0.00    +0.000 A 
ATOM     10  C   UNL     1      46.919   4.247  13.952  0.00  0.00    +0.000 A 
ATOM     11  N   UNL     1      47.875   5.185  13.778  0.00  0.00    +0.000 NA
ATOM     12  C   UNL     1      48.772   7.747  11.529  0.00  0.00    +0.000 C 
ATOM     13  C   UNL     1      49.190   9.231  11.599  0.00  0.00    +0.000 C 
ENDROOT
BRANCH   8  14
ATOM     14  C   UNL     1      43.911   5.742  12.138  0.00  0.00    +0.000 C 
BRANCH  14  15
ATOM     15  C   UNL     1      43.778   5.387  10.659  0.00  0.00    +0.000 C 
BRANCH  15  16
ATOM     16  N   UNL     1      43.814   3.942  10.437  0.00  0.00    +0.000 N 
ATOM     17  H   UNL     1      42.885   3.540  10.324  0.00  0.00    +0.000 HD
BRANCH  16  18
ATOM     18  C   UNL     1      44.694   3.495   9.434  0.00  0.00    +0.000 A 
ATOM     19  C   UNL     1      45.420   4.367   8.614  0.00  0.00    +0.000 A 
ATOM     20  C   UNL     1      46.344   3.891   7.680  0.00  0.00    +0.000 A 
ATOM     21  C   UNL     1      46.577   2.523   7.568  0.00  0.00    +0.000 A 
ATOM     22  C   UNL     1      45.880   1.637   8.391  0.00  0.00    +0.000 A 
ATOM     23  C   UNL     1      44.958   2.124   9.325  0.00  0.00    +0.000 A 
BRANCH  21  24
ATOM     24  C   UNL     1      47.545   2.036   6.631  0.00  0.00    +0.000 C 
ATOM     25  N   UNL     1      48.332   1.650   5.875  0.00  0.00    +0.000 NA
ENDBRANCH  21  24
ENDBRANCH  16  18
ENDBRANCH  15  16
ENDBRANCH  14  15
ENDBRANCH   8  14
TORSDOF 5
ENDMDL
MODEL 2
REMARK VINA RESULT:    -7.422      2.221      3.601
REMARK INTER + INTRA:         -10.275
REMARK INTER:                  -9.988
REMARK INTRA:                  -0.288
REMARK UNBOUND:                -0.684
REMARK  Name = 
REMARK  6 active torsions:
REMARK  status: ('A' for Active; 'I' for Inactive)
REMARK    1  A    between atoms: C_1  and  N_2
REMARK    2  A    between atoms: C_8  and  C_9
REMARK    3  A    between atoms: C_9  and  C_10
REMARK    4  A    between atoms: C_10  and  N_11
REMARK    5  A    between atoms: N_11  and  C_12
REMARK    6  A    between atoms: C_15  and  C_16
REMARK                            x       y       z     vdW  Elec       q    Type
REMARK                         _______ _______ _______ _____ _____    ______ ____
ROOT
ATOM      1  C   UNL     1      50.895   4.126  18.555  0.00  0.00    +0.000 C 
ATOM      2  N   UNL     1      49.791   4.862  17.947  0.00  0.00    +0.000 NA
ATOM      3  C   UNL     1      50.262   5.629  16.762  0.00  0.00    +0.000 C 
ATOM      4  C   UNL     1      49.114   6.337  15.993  0.00  0.00    +0.000 C 
ATOM      5  N   UNL     1      48.138   5.308  15.630  0.00  0.00    +0.000 N 
ATOM      6  C   UNL     1      47.332   5.502  14.526  0.00  0.00    +0.000 A 
ATOM      7  C   UNL     1      46.753   4.381  13.925  0.00  0.00    +0.000 A 
ATOM      8  C   UNL     1      45.989   4.495  12.763  0.00  0.00    +0.000 A 
ATOM      9  C   UNL     1      45.828   5.773  12.232  0.00  0.00    +0.000 A 
ATOM     10  C   UNL     1      46.436   6.840  12.873  0.00  0.00    +0.000 A 
ATOM     11  N   UNL     1      47.186   6.729  13.991  0.00  0.00    +0.000 NA
ATOM     12  C   UNL     1      47.564   4.629  16.797  0.00  0.00    +0.000 C 
ATOM     13  C   UNL     1      48.713   3.925  17.547  0.00  0.00    +0.000 C 
ENDROOT
BRANCH   8  14
ATOM     14  C   UNL     1      45.414   3.230  12.166  0.00  0.00    +0.000 C 
BRANCH  14  15
ATOM     15  C   UNL     1      43.928   3.314  11.828  0.00  0.00    +0.000 C 
BRANCH  15  16
ATOM     16  N   UNL     1      43.700   3.854  10.489  0.00  0.00    +0.000 N 
ATOM     17  H   UNL     1      43.600   4.868  10.486  0.00  0.00    +0.000 HD
BRANCH  16  18
ATOM     18  C   UNL     1      44.594   3.423   9.490  0.00  0.00    +0.000 A 
ATOM     19  C   UNL     1      45.356   4.308   8.718  0.00  0.00    +0.000 A 
ATOM     20  C   UNL     1      46.292   3.845   7.789  0.00  0.00    +0.000 A 
ATOM     21  C   UNL     1      46.500   2.477   7.634  0.00  0.00    +0.000 A 
ATOM     22  C   UNL     1      45.766   1.578   8.410  0.00  0.00    +0.000 A 
ATOM     23  C   UNL     1      44.833   2.051   9.339  0.00  0.00    +0.000 A 
BRANCH  21  24
ATOM     24  C   UNL     1      47.479   2.003   6.703  0.00  0.00    +0.000 C 
ATOM     25  N   UNL     1      48.267   1.612   5.950  0.00  0.00    +0.000 NA
ENDBRANCH  21  24
ENDBRANCH  16  18
ENDBRANCH  15  16
ENDBRANCH  14  15
ENDBRANCH   8  14
TORSDOF 5
ENDMDL
MODEL 3
REMARK VINA RESULT:    -7.254      2.088      2.779
REMARK INTER + INTRA:         -10.059
REMARK INTER:                  -9.428
REMARK INTRA:                  -0.631
REMARK UNBOUND:                -0.684
REMARK  Name = 
REMARK  6 active torsions:
REMARK  status: ('A' for Active; 'I' for Inactive)
REMARK    1  A    between atoms: C_1  and  N_2
REMARK    2  A    between atoms: C_8  and  C_9
REMARK    3  A    between atoms: C_9  and  C_10
REMARK    4  A    between atoms: C_10  and  N_11
REMARK    5  A    between atoms: N_11  and  C_12
REMARK    6  A    between atoms: C_15  and  C_16
REMARK                            x       y       z     vdW  Elec       q    Type
REMARK                         _______ _______ _______ _____ _____    ______ ____
ROOT
ATOM      1  C   UNL     1      49.570   8.814  18.319  0.00  0.00    +0.000 C 
ATOM      2  N   UNL     1      49.626   7.705  17.372  0.00  0.00    +0.000 NA
ATOM      3  C   UNL     1      48.707   6.612  17.790  0.00  0.00    +0.000 C 
ATOM      4  C   UNL     1      48.623   5.453  16.759  0.00  0.00    +0.000 C 
ATOM      5  N   UNL     1      48.231   6.041  15.477  0.00  0.00    +0.000 N 
ATOM      6  C   UNL     1      47.566   5.262  14.553  0.00  0.00    +0.000 A 
ATOM      7  C   UNL     1      46.811   5.904  13.568  0.00  0.00    +0.000 A 
ATOM      8  C   UNL     1      46.053   5.179  12.647  0.00  0.00    +0.000 A 
ATOM      9  C   UNL     1      46.084   3.791  12.753  0.00  0.00    +0.000 A 
ATOM     10  C   UNL     1      46.847   3.218  13.758  0.00  0.00    +0.000 A 
ATOM     11  N   UNL     1      47.571   3.919  14.657  0.00  0.00    +0.000 NA
ATOM     12  C   UNL     1      49.196   7.030  14.985  0.00  0.00    +0.000 C 
ATOM     13  C   UNL     1      49.265   8.178  16.014  0.00  0.00    +0.000 C 
ENDROOT
BRANCH   8  14
ATOM     14  C   UNL     1      45.250   5.952  11.626  0.00  0.00    +0.000 C 
BRANCH  14  15
ATOM     15  C   UNL     1      43.799   5.496  11.491  0.00  0.00    +0.000 C 
BRANCH  15  16
ATOM     16  N   UNL     1      43.479   5.085  10.125  0.00  0.00    +0.000 N 
ATOM     17  H   UNL     1      43.265   5.873   9.518  0.00  0.00    +0.000 HD
BRANCH  16  18
ATOM     18  C   UNL     1      44.392   4.202   9.517  0.00  0.00    +0.000 A 
ATOM     19  C   UNL     1      44.335   2.813   9.687  0.00  0.00    +0.000 A 
ATOM     20  C   UNL     1      45.208   1.959   9.008  0.00  0.00    +0.000 A 
ATOM     21  C   UNL     1      46.145   2.484   8.120  0.00  0.00    +0.000 A 
ATOM     22  C   UNL     1      46.203   3.863   7.920  0.00  0.00    +0.000 A 
ATOM     23  C   UNL     1      45.323   4.711   8.603  0.00  0.00    +0.000 A 
BRANCH  21  24
ATOM     24  C   UNL     1      47.019   1.607   7.403  0.00  0.00    +0.000 C 
ATOM     25  N   UNL     1      47.725   0.901   6.815  0.00  0.00    +0.000 NA
ENDBRANCH  21  24
ENDBRANCH  16  18
ENDBRANCH  15  16
ENDBRANCH  14  15
ENDBRANCH   8  14
TORSDOF 5
ENDMDL
MODEL 4
REMARK VINA RESULT:    -7.134      2.936      8.032
REMARK INTER + INTRA:          -9.904
REMARK INTER:                  -9.502
REMARK INTRA:                  -0.402
REMARK UNBOUND:                -0.684
REMARK  Name = 
REMARK  6 active torsions:
REMARK  status: ('A' for Active; 'I' for Inactive)
REMARK    1  A    between atoms: C_1  and  N_2
REMARK    2  A    between atoms: C_8  and  C_9
REMARK    3  A    between atoms: C_9  and  C_10
REMARK    4  A    between atoms: C_10  and  N_11
REMARK    5  A    between atoms: N_11  and  C_12
REMARK    6  A    between atoms: C_15  and  C_16
REMARK                            x       y       z     vdW  Elec       q    Type
REMARK                         _______ _______ _______ _____ _____    ______ ____
ROOT
ATOM      1  C   UNL     1      47.934   2.153   5.961  0.00  0.00    +0.000 C 
ATOM      2  N   UNL     1      46.683   2.413   6.668  0.00  0.00    +0.000 NA
ATOM      3  C   UNL     1      46.437   1.367   7.697  0.00  0.00    +0.000 C 
ATOM      4  C   UNL     1      45.186   1.651   8.572  0.00  0.00    +0.000 C 
ATOM      5  N   UNL     1      45.365   2.976   9.167  0.00  0.00    +0.000 N 
ATOM      6  C   UNL     1      44.739   3.270  10.362  0.00  0.00    +0.000 A 
ATOM      7  C   UNL     1      45.252   4.313  11.137  0.00  0.00    +0.000 A 
ATOM      8  C   UNL     1      44.716   4.616  12.390  0.00  0.00    +0.000 A 
ATOM      9  C   UNL     1      43.650   3.835  12.830  0.00  0.00    +0.000 A 
ATOM     10  C   UNL     1      43.196   2.810  12.015  0.00  0.00    +0.000 A 
ATOM     11  N   UNL     1      43.722   2.509  10.808  0.00  0.00    +0.000 NA
ATOM     12  C   UNL     1      45.480   4.040   8.165  0.00  0.00    +0.000 C 
ATOM     13  C   UNL     1      46.729   3.750   7.307  0.00  0.00    +0.000 C 
ENDROOT
BRANCH   8  14
ATOM     14  C   UNL     1      45.342   5.748  13.173  0.00  0.00    +0.000 C 
BRANCH  14  15
ATOM     15  C   UNL     1      46.671   5.394  13.837  0.00  0.00    +0.000 C 
BRANCH  15  16
ATOM     16  N   UNL     1      46.499   4.444  14.935  0.00  0.00    +0.000 N 
ATOM     17  H   UNL     1      46.256   3.510  14.611  0.00  0.00    +0.000 HD
BRANCH  16  18
ATOM     18  C   UNL     1      47.537   4.406  15.885  0.00  0.00    +0.000 A 
ATOM     19  C   UNL     1      47.937   3.228  16.528  0.00  0.00    +0.000 A 
ATOM     20  C   UNL     1      49.022   3.210  17.407  0.00  0.00    +0.000 A 
ATOM     21  C   UNL     1      49.748   4.376  17.641  0.00  0.00    +0.000 A 
ATOM     22  C   UNL     1      49.380   5.555  16.993  0.00  0.00    +0.000 A 
ATOM     23  C   UNL     1      48.292   5.563  16.112  0.00  0.00    +0.000 A 
BRANCH  21  24
ATOM     24  C   UNL     1      50.878   4.351  18.520  0.00  0.00    +0.000 C 
ATOM     25  N   UNL     1      51.790   4.338  19.233  0.00  0.00    +0.000 NA
ENDBRANCH  21  24
ENDBRANCH  16  18
ENDBRANCH  15  16
ENDBRANCH  14  15
ENDBRANCH   8  14
TORSDOF 5
ENDMDL
MODEL 5
REMARK VINA RESULT:    -6.868      1.777      6.979
REMARK INTER + INTRA:          -9.560
REMARK INTER:                  -9.035
REMARK INTRA:                  -0.526
REMARK UNBOUND:                -0.684
REMARK  Name = 
REMARK  6 active torsions:
REMARK  status: ('A' for Active; 'I' for Inactive)
REMARK    1  A    between atoms: C_1  and  N_2
REMARK    2  A    between atoms: C_8  and  C_9
REMARK    3  A    between atoms: C_9  and  C_10
REMARK    4  A    between atoms: C_10  and  N_11
REMARK    5  A    between atoms: N_11  and  C_12
REMARK    6  A    between atoms: C_15  and  C_16
REMARK                            x       y       z     vdW  Elec       q    Type
REMARK                         _______ _______ _______ _____ _____    ______ ____
ROOT
ATOM      1  C   UNL     1      47.909   2.193   6.061  0.00  0.00    +0.000 C 
ATOM      2  N   UNL     1      46.647   2.393   6.767  0.00  0.00    +0.000 NA
ATOM      3  C   UNL     1      46.529   1.446   7.908  0.00  0.00    +0.000 C 
ATOM      4  C   UNL     1      45.267   1.689   8.779  0.00  0.00    +0.000 C 
ATOM      5  N   UNL     1      45.309   3.083   9.224  0.00  0.00    +0.000 N 
ATOM      6  C   UNL     1      44.671   3.437  10.396  0.00  0.00    +0.000 A 
ATOM      7  C   UNL     1      45.077   4.607  11.041  0.00  0.00    +0.000 A 
ATOM      8  C   UNL     1      44.528   4.987  12.267  0.00  0.00    +0.000 A 
ATOM      9  C   UNL     1      43.560   4.149  12.815  0.00  0.00    +0.000 A 
ATOM     10  C   UNL     1      43.209   2.999  12.126  0.00  0.00    +0.000 A 
ATOM     11  N   UNL     1      43.748   2.625  10.946  0.00  0.00    +0.000 NA
ATOM     12  C   UNL     1      45.294   4.037   8.110  0.00  0.00    +0.000 C 
ATOM     13  C   UNL     1      46.556   3.790   7.258  0.00  0.00    +0.000 C 
ENDROOT
BRANCH   8  14
ATOM     14  C   UNL     1      45.038   6.258  12.908  0.00  0.00    +0.000 C 
BRANCH  14  15
ATOM     15  C   UNL     1      45.474   7.332  11.915  0.00  0.00    +0.000 C 
BRANCH  15  16
ATOM     16  N   UNL     1      46.249   8.392  12.559  0.00  0.00    +0.000 N 
ATOM     17  H   UNL     1      46.191   8.357  13.575  0.00  0.00    +0.000 HD
BRANCH  16  18
ATOM     18  C   UNL     1      47.580   8.533  12.124  0.00  0.00    +0.000 A 
ATOM     19  C   UNL     1      48.163   9.776  11.850  0.00  0.00    +0.000 A 
ATOM     20  C   UNL     1      49.510   9.887  11.495  0.00  0.00    +0.000 A 
ATOM     21  C   UNL     1      50.309   8.748  11.432  0.00  0.00    +0.000 A 
ATOM     22  C   UNL     1      49.753   7.502  11.722  0.00  0.00    +0.000 A 
ATOM     23  C   UNL     1      48.403   7.401  12.079  0.00  0.00    +0.000 A 
BRANCH  21  24
ATOM     24  C   UNL     1      51.696   8.865  11.096  0.00  0.00    +0.000 C 
ATOM     25  N   UNL     1      52.818   8.952  10.822  0.00  0.00    +0.000 NA
ENDBRANCH  21  24
ENDBRANCH  16  18
ENDBRANCH  15  16
ENDBRANCH  14  15
ENDBRANCH   8  14
TORSDOF 5
ENDMDL
MODEL 6
REMARK VINA RESULT:    -6.856      2.209      7.390
REMARK INTER + INTRA:          -9.545
REMARK INTER:                  -8.863
REMARK INTRA:                  -0.682
REMARK UNBOUND:                -0.684
REMARK  Name = 
REMARK  6 active torsions:
REMARK  status: ('A' for Active; 'I' for Inactive)
REMARK    1  A    between atoms: C_1  and  N_2
REMARK    2  A    between atoms: C_8  and  C_9
REMARK    3  A    between atoms: C_9  and  C_10
REMARK    4  A    between atoms: C_10  and  N_11
REMARK    5  A    between atoms: N_11  and  C_12
REMARK    6  A    between atoms: C_15  and  C_16
REMARK                            x       y       z     vdW  Elec       q    Type
REMARK                         _______ _______ _______ _____ _____    ______ ____
ROOT
ATOM      1  C   UNL     1      47.860   1.684   6.221  0.00  0.00    +0.000 C 
ATOM      2  N   UNL     1      46.585   2.059   6.827  0.00  0.00    +0.000 NA
ATOM      3  C   UNL     1      46.439   1.434   8.168  0.00  0.00    +0.000 C 
ATOM      4  C   UNL     1      45.160   1.891   8.922  0.00  0.00    +0.000 C 
ATOM      5  N   UNL     1      45.202   3.352   8.999  0.00  0.00    +0.000 N 
ATOM      6  C   UNL     1      44.543   3.993  10.028  0.00  0.00    +0.000 A 
ATOM      7  C   UNL     1      44.944   5.289  10.363  0.00  0.00    +0.000 A 
ATOM      8  C   UNL     1      44.373   5.968  11.441  0.00  0.00    +0.000 A 
ATOM      9  C   UNL     1      43.388   5.299  12.164  0.00  0.00    +0.000 A 
ATOM     10  C   UNL     1      43.044   4.011  11.783  0.00  0.00    +0.000 A 
ATOM     11  N   UNL     1      43.604   3.349  10.747  0.00  0.00    +0.000 NA
ATOM     12  C   UNL     1      45.215   3.991   7.679  0.00  0.00    +0.000 C 
ATOM     13  C   UNL     1      46.493   3.534   6.944  0.00  0.00    +0.000 C 
ENDROOT
BRANCH   8  14
ATOM     14  C   UNL     1      44.877   7.360  11.748  0.00  0.00    +0.000 C 
BRANCH  14  15
ATOM     15  C   UNL     1      45.771   7.447  12.982  0.00  0.00    +0.000 C 
BRANCH  15  16
ATOM     16  N   UNL     1      46.983   6.643  12.838  0.00  0.00    +0.000 N 
ATOM     17  H   UNL     1      47.756   7.167  12.433  0.00  0.00    +0.000 HD
BRANCH  16  18
ATOM     18  C   UNL     1      47.389   5.930  13.982  0.00  0.00    +0.000 A 
ATOM     19  C   UNL     1      48.279   6.453  14.929  0.00  0.00    +0.000 A 
ATOM     20  C   UNL     1      48.601   5.751  16.093  0.00  0.00    +0.000 A 
ATOM     21  C   UNL     1      48.014   4.513  16.344  0.00  0.00    +0.000 A 
ATOM     22  C   UNL     1      47.108   3.984  15.424  0.00  0.00    +0.000 A 
ATOM     23  C   UNL     1      46.790   4.695  14.261  0.00  0.00    +0.000 A 
BRANCH  21  24
ATOM     24  C   UNL     1      48.322   3.807  17.550  0.00  0.00    +0.000 C 
ATOM     25  N   UNL     1      48.575   3.230  18.522  0.00  0.00    +0.000 NA
ENDBRANCH  21  24
ENDBRANCH  16  18
ENDBRANCH  15  16
ENDBRANCH  14  15
ENDBRANCH   8  14
TORSDOF 5
ENDMDL
MODEL 7
REMARK VINA RESULT:    -6.262      3.035      7.459
REMARK INTER + INTRA:          -8.776
REMARK INTER:                  -8.020
REMARK INTRA:                  -0.756
REMARK UNBOUND:                -0.684
REMARK  Name = 
REMARK  6 active torsions:
REMARK  status: ('A' for Active; 'I' for Inactive)
REMARK    1  A    between atoms: C_1  and  N_2
REMARK    2  A    between atoms: C_8  and  C_9
REMARK    3  A    between atoms: C_9  and  C_10
REMARK    4  A    between atoms: C_10  and  N_11
REMARK    5  A    between atoms: N_11  and  C_12
REMARK    6  A    between atoms: C_15  and  C_16
REMARK                            x       y       z     vdW  Elec       q    Type
REMARK                         _______ _______ _______ _____ _____    ______ ____
ROOT
ATOM      1  C   UNL     1      43.411   2.630  12.085  0.00  0.00    +0.000 C 
ATOM      2  N   UNL     1      43.567   3.887  11.360  0.00  0.00    +0.000 NA
ATOM      3  C   UNL     1      42.730   4.953  11.974  0.00  0.00    +0.000 C 
ATOM      4  C   UNL     1      42.943   6.349  11.328  0.00  0.00    +0.000 C 
ATOM      5  N   UNL     1      44.372   6.653  11.417  0.00  0.00    +0.000 N 
ATOM      6  C   UNL     1      44.782   7.971  11.442  0.00  0.00    +0.000 A 
ATOM      7  C   UNL     1      46.042   8.261  11.972  0.00  0.00    +0.000 A 
ATOM      8  C   UNL     1      46.490   9.578  12.096  0.00  0.00    +0.000 A 
ATOM      9  C   UNL     1      45.627  10.585  11.670  0.00  0.00    +0.000 A 
ATOM     10  C   UNL     1      44.388  10.228  11.162  0.00  0.00    +0.000 A 
ATOM     11  N   UNL     1      43.949   8.955  11.052  0.00  0.00    +0.000 NA
ATOM     12  C   UNL     1      45.207   5.681  10.705  0.00  0.00    +0.000 C 
ATOM     13  C   UNL     1      44.991   4.300  11.360  0.00  0.00    +0.000 C 
ENDROOT
BRANCH   8  14
ATOM     14  C   UNL     1      47.858   9.806  12.698  0.00  0.00    +0.000 C 
BRANCH  14  15
ATOM     15  C   UNL     1      48.105   9.055  14.004  0.00  0.00    +0.000 C 
BRANCH  15  16
ATOM     16  N   UNL     1      48.890   7.839  13.796  0.00  0.00    +0.000 N 
ATOM     17  H   UNL     1      49.894   8.011  13.821  0.00  0.00    +0.000 HD
BRANCH  16  18
ATOM     18  C   UNL     1      48.538   6.734  14.593  0.00  0.00    +0.000 A 
ATOM     19  C   UNL     1      48.999   6.563  15.904  0.00  0.00    +0.000 A 
ATOM     20  C   UNL     1      48.568   5.496  16.696  0.00  0.00    +0.000 A 
ATOM     21  C   UNL     1      47.640   4.586  16.192  0.00  0.00    +0.000 A 
ATOM     22  C   UNL     1      47.151   4.751  14.896  0.00  0.00    +0.000 A 
ATOM     23  C   UNL     1      47.587   5.825  14.111  0.00  0.00    +0.000 A 
BRANCH  21  24
ATOM     24  C   UNL     1      47.176   3.509  17.013  0.00  0.00    +0.000 C 
ATOM     25  N   UNL     1      46.805   2.632  17.672  0.00  0.00    +0.000 NA
ENDBRANCH  21  24
ENDBRANCH  16  18
ENDBRANCH  15  16
ENDBRANCH  14  15
ENDBRANCH   8  14
TORSDOF 5
ENDMDL
MODEL 8
REMARK VINA RESULT:    -5.981      2.195      7.478
REMARK INTER + INTRA:          -8.413
REMARK INTER:                  -7.687
REMARK INTRA:                  -0.727
REMARK UNBOUND:                -0.684
REMARK  Name = 
REMARK  6 active torsions:
REMARK  status: ('A' for Active; 'I' for Inactive)
REMARK    1  A    between atoms: C_1  and  N_2
REMARK    2  A    between atoms: C_8  and  C_9
REMARK    3  A    between atoms: C_9  and  C_10
REMARK    4  A    between atoms: C_10  and  N_11
REMARK    5  A    between atoms: N_11  and  C_12
REMARK    6  A    between atoms: C_15  and  C_16
REMARK                            x       y       z     vdW  Elec       q    Type
REMARK                         _______ _______ _______ _____ _____    ______ ____
ROOT
ATOM      1  C   UNL     1      44.930   1.392   8.764  0.00  0.00    +0.000 C 
ATOM      2  N   UNL     1      44.629   2.804   8.981  0.00  0.00    +0.000 NA
ATOM      3  C   UNL     1      44.190   3.036  10.383  0.00  0.00    +0.000 C 
ATOM      4  C   UNL     1      43.974   4.537  10.718  0.00  0.00    +0.000 C 
ATOM      5  N   UNL     1      45.224   5.234  10.411  0.00  0.00    +0.000 N 
ATOM      6  C   UNL     1      45.527   6.402  11.080  0.00  0.00    +0.000 A 
ATOM      7  C   UNL     1      46.864   6.805  11.133  0.00  0.00    +0.000 A 
ATOM      8  C   UNL     1      47.253   7.934  11.855  0.00  0.00    +0.000 A 
ATOM      9  C   UNL     1      46.252   8.639  12.518  0.00  0.00    +0.000 A 
ATOM     10  C   UNL     1      44.947   8.180  12.431  0.00  0.00    +0.000 A 
ATOM     11  N   UNL     1      44.571   7.081  11.743  0.00  0.00    +0.000 NA
ATOM     12  C   UNL     1      45.605   5.124   8.999  0.00  0.00    +0.000 C 
ATOM     13  C   UNL     1      45.823   3.630   8.682  0.00  0.00    +0.000 C 
ENDROOT
BRANCH   8  14
ATOM     14  C   UNL     1      48.722   8.291  11.876  0.00  0.00    +0.000 C 
BRANCH  14  15
ATOM     15  C   UNL     1      49.568   7.416  12.798  0.00  0.00    +0.000 C 
BRANCH  15  16
ATOM     16  N   UNL     1      49.318   7.705  14.209  0.00  0.00    +0.000 N 
ATOM     17  H   UNL     1      48.840   8.593  14.348  0.00  0.00    +0.000 HD
BRANCH  16  18
ATOM     18  C   UNL     1      48.714   6.673  14.952  0.00  0.00    +0.000 A 
ATOM     19  C   UNL     1      47.767   5.798  14.407  0.00  0.00    +0.000 A 
ATOM     20  C   UNL     1      47.245   4.735  15.149  0.00  0.00    +0.000 A 
ATOM     21  C   UNL     1      47.684   4.514  16.452  0.00  0.00    +0.000 A 
ATOM     22  C   UNL     1      48.644   5.361  17.006  0.00  0.00    +0.000 A 
ATOM     23  C   UNL     1      49.163   6.422  16.254  0.00  0.00    +0.000 A 
BRANCH  21  24
ATOM     24  C   UNL     1      47.170   3.408  17.202  0.00  0.00    +0.000 C 
ATOM     25  N   UNL     1      46.757   2.508  17.803  0.00  0.00    +0.000 NA
ENDBRANCH  21  24
ENDBRANCH  16  18
ENDBRANCH  15  16
ENDBRANCH  14  15
ENDBRANCH   8  14
TORSDOF 5
ENDMDL
MODEL 9
REMARK VINA RESULT:    -5.711      2.860      5.094
REMARK INTER + INTRA:          -8.065
REMARK INTER:                  -7.343
REMARK INTRA:                  -0.722
REMARK UNBOUND:                -0.684
REMARK  Name = 
REMARK  6 active torsions:
REMARK  status: ('A' for Active; 'I' for Inactive)
REMARK    1  A    between atoms: C_1  and  N_2
REMARK    2  A    between atoms: C_8  and  C_9
REMARK    3  A    between atoms: C_9  and  C_10
REMARK    4  A    between atoms: C_10  and  N_11
REMARK    5  A    between atoms: N_11  and  C_12
REMARK    6  A    between atoms: C_15  and  C_16
REMARK                            x       y       z     vdW  Elec       q    Type
REMARK                         _______ _______ _______ _____ _____    ______ ____
ROOT
ATOM      1  C   UNL     1      50.578   1.743  17.403  0.00  0.00    +0.000 C 
ATOM      2  N   UNL     1      49.916   3.032  17.580  0.00  0.00    +0.000 NA
ATOM      3  C   UNL     1      50.883   4.147  17.390  0.00  0.00    +0.000 C 
ATOM      4  C   UNL     1      50.218   5.550  17.441  0.00  0.00    +0.000 C 
ATOM      5  N   UNL     1      49.158   5.563  16.432  0.00  0.00    +0.000 N 
ATOM      6  C   UNL     1      48.775   6.765  15.871  0.00  0.00    +0.000 A 
ATOM      7  C   UNL     1      48.126   6.740  14.634  0.00  0.00    +0.000 A 
ATOM      8  C   UNL     1      47.777   7.920  13.974  0.00  0.00    +0.000 A 
ATOM      9  C   UNL     1      48.104   9.119  14.603  0.00  0.00    +0.000 A 
ATOM     10  C   UNL     1      48.755   9.072  15.826  0.00  0.00    +0.000 A 
ATOM     11  N   UNL     1      49.103   7.931  16.459  0.00  0.00    +0.000 NA
ATOM     12  C   UNL     1      48.124   4.552  16.678  0.00  0.00    +0.000 C 
ATOM     13  C   UNL     1      48.796   3.164  16.618  0.00  0.00    +0.000 C 
ENDROOT
BRANCH   8  14
ATOM     14  C   UNL     1      47.094   7.804  12.630  0.00  0.00    +0.000 C 
BRANCH  14  15
ATOM     15  C   UNL     1      45.591   8.069  12.664  0.00  0.00    +0.000 C 
BRANCH  15  16
ATOM     16  N   UNL     1      44.847   6.932  13.203  0.00  0.00    +0.000 N 
ATOM     17  H   UNL     1      43.950   7.204  13.601  0.00  0.00    +0.000 HD
BRANCH  16  18
ATOM     18  C   UNL     1      44.715   5.821  12.349  0.00  0.00    +0.000 A 
ATOM     19  C   UNL     1      44.071   5.888  11.107  0.00  0.00    +0.000 A 
ATOM     20  C   UNL     1      44.025   4.787  10.249  0.00  0.00    +0.000 A 
ATOM     21  C   UNL     1      44.650   3.596  10.611  0.00  0.00    +0.000 A 
ATOM     22  C   UNL     1      45.317   3.515  11.834  0.00  0.00    +0.000 A 
ATOM     23  C   UNL     1      45.359   4.624  12.687  0.00  0.00    +0.000 A 
BRANCH  21  24
ATOM     24  C   UNL     1      44.628   2.477   9.719  0.00  0.00    +0.000 C 
ATOM     25  N   UNL     1      44.619   1.569   8.999  0.00  0.00    +0.000 NA
ENDBRANCH  21  24
ENDBRANCH  16  18
ENDBRANCH  15  16
ENDBRANCH  14  15
ENDBRANCH   8  14
TORSDOF 5
ENDMDL
