MODEL 1
REMARK VINA RESULT:    -7.764      0.000      0.000
REMARK INTER + INTRA:         -10.330
REMARK INTER:                  -9.807
REMARK INTRA:                  -0.523
REMARK UNBOUND:                -0.523
REMARK  Name = 
REMARK  5 active torsions:
REMARK  status: ('A' for Active; 'I' for Inactive)
REMARK    1  A    between atoms: N_1  and  C_2
REMARK    2  A    between atoms: C_2  and  C_3
REMARK    3  A    between atoms: C_3  and  C_4
REMARK    4  A    between atoms: N_10  and  C_11
REMARK    5  A    between atoms: C_11  and  C_12
REMARK                            x       y       z     vdW  Elec       q    Type
REMARK                         _______ _______ _______ _____ _____    ______ ____
ROOT
ATOM      1  C   UNL     1      46.696   6.329  11.956  0.00  0.00    +0.000 A 
ATOM      2  C   UNL     1      46.403   5.796  13.211  0.00  0.00    +0.000 A 
ATOM      3  N   UNL     1      45.514   4.818  13.469  0.00  0.00    +0.000 NA
ATOM      4  C   UNL     1      44.888   4.314  12.375  0.00  0.00    +0.000 A 
ATOM      5  C   UNL     1      43.940   3.271  12.312  0.00  0.00    +0.000 A 
ATOM      6  C   UNL     1      43.623   3.084  10.985  0.00  0.00    +0.000 A 
ATOM      7  N   UNL     1      44.344   3.989  10.242  0.00  0.00    +0.000 N 
ATOM      8  C   UNL     1      45.116   4.772  11.077  0.00  0.00    +0.000 A 
ATOM      9  C   UNL     1      46.012   5.823  10.844  0.00  0.00    +0.000 A 
ENDROOT
BRANCH   1  10
ATOM     10  C   UNL     1      47.742   7.402  11.803  0.00  0.00    +0.000 C 
BRANCH  10  11
ATOM     11  C   UNL     1      48.511   7.675  13.097  0.00  0.00    +0.000 C 
BRANCH  11  12
ATOM     12  N   UNL     1      49.791   6.965  13.095  0.00  0.00    +0.000 NA
ATOM     13  H   UNL     1      50.461   7.473  13.671  0.00  0.00    +0.000 HD
ATOM     14  H   UNL     1      50.178   6.951  12.153  0.00  0.00    +0.000 HD
ENDBRANCH  11  12
ENDBRANCH  10  11
ENDBRANCH   1  10
BRANCH   7  15
ATOM     15  C   UNL     1      44.365   4.009   8.781  0.00  0.00    +0.000 C 
BRANCH  15  16
ATOM     16  C   UNL     1      45.489   3.164   8.239  0.00  0.00    +0.000 A 
ATOM     17  C   UNL     1      46.469   3.728   7.409  0.00  0.00    +0.000 A 
ATOM     18  C   UNL     1      47.459   2.930   6.838  0.00  0.00    +0.000 A 
ATOM     19  C   UNL     1      47.483   1.558   7.095  0.00  0.00    +0.000 A 
ATOM     20  C   UNL     1      46.539   0.995   7.948  0.00  0.00    +0.000 A 
ATOM     21  C   UNL     1      45.549   1.791   8.521  0.00  0.00    +0.000 A 
ENDBRANCH  15  16
ENDBRANCH   7  15
TORSDOF 5
ENDMDL
MODEL 2
REMARK VINA RESULT:    -7.088      1.935      2.747
REMARK INTER + INTRA:          -9.476
REMARK INTER:                  -9.215
REMARK INTRA:                  -0.261
REMARK UNBOUND:                -0.523
REMARK  Name = 
REMARK  5 active torsions:
REMARK  status: ('A' for Active; 'I' for Inactive)
REMARK    1  A    between atoms: N_1  and  C_2
REMARK    2  A    between atoms: C_2  and  C_3
REMARK    3  A    between atoms: C_3  and  C_4
REMARK    4  A    between atoms: N_10  and  C_11
REMARK    5  A    between atoms: C_11  and  C_12
REMARK                            x       y       z     vdW  Elec       q    Type
REMARK                         _______ _______ _______ _____ _____    ______ ____
ROOT
ATOM      1  C   UNL     1      46.409   4.061  13.615  0.00  0.00    +0.000 A 
ATOM      2  C   UNL     1      45.885   5.330  13.858  0.00  0.00    +0.000 A 
ATOM      3  N   UNL     1      45.025   5.997  13.065  0.00  0.00    +0.000 NA
ATOM      4  C   UNL     1      44.637   5.324  11.952  0.00  0.00    +0.000 A 
ATOM      5  C   UNL     1      43.729   5.736  10.954  0.00  0.00    +0.000 A 
ATOM      6  C   UNL     1      43.620   4.704  10.048  0.00  0.00    +0.000 A 
ATOM      7  N   UNL     1      44.443   3.683  10.463  0.00  0.00    +0.000 N 
ATOM      8  C   UNL     1      45.096   4.049  11.623  0.00  0.00    +0.000 A 
ATOM      9  C   UNL     1      46.027   3.398  12.442  0.00  0.00    +0.000 A 
ENDROOT
BRANCH   1  10
ATOM     10  C   UNL     1      47.340   3.412  14.606  0.00  0.00    +0.000 C 
BRANCH  10  11
ATOM     11  C   UNL     1      47.390   4.147  15.947  0.00  0.00    +0.000 C 
BRANCH  11  12
ATOM     12  N   UNL     1      46.740   3.356  16.992  0.00  0.00    +0.000 NA
ATOM     13  H   UNL     1      45.864   2.978  16.636  0.00  0.00    +0.000 HD
ATOM     14  H   UNL     1      46.495   3.954  17.778  0.00  0.00    +0.000 HD
ENDBRANCH  11  12
ENDBRANCH  10  11
ENDBRANCH   1  10
BRANCH   7  15
ATOM     15  C   UNL     1      44.500   2.371   9.821  0.00  0.00    +0.000 C 
BRANCH  15  16
ATOM     16  C   UNL     1      45.449   2.376   8.650  0.00  0.00    +0.000 A 
ATOM     17  C   UNL     1      46.133   1.208   8.283  0.00  0.00    +0.000 A 
ATOM     18  C   UNL     1      47.075   1.232   7.256  0.00  0.00    +0.000 A 
ATOM     19  C   UNL     1      47.341   2.425   6.582  0.00  0.00    +0.000 A 
ATOM     20  C   UNL     1      46.641   3.581   6.912  0.00  0.00    +0.000 A 
ATOM     21  C   UNL     1      45.697   3.559   7.938  0.00  0.00    +0.000 A 
ENDBRANCH  15  16
ENDBRANCH   7  15
TORSDOF 5
ENDMDL
MODEL 3
REMARK VINA RESULT:    -7.035      1.984      5.730
REMARK INTER + INTRA:          -9.409
REMARK INTER:                  -9.015
REMARK INTRA:                  -0.394
REMARK UNBOUND:                -0.523
REMARK  Name = 
REMARK  5 active torsions:
REMARK  status: ('A' for Active; 'I' for Inactive)
REMARK    1  A    between atoms: N_1  and  C_2
REMARK    2  A    between atoms: C_2  and  C_3
REMARK    3  A    between atoms: C_3  and  C_4
REMARK    4  A    between atoms: N_10  and  C_11
REMARK    5  A    between atoms: C_11  and  C_12
REMARK                            x       y       z     vdW  Elec       q    Type
REMARK                         _______ _______ _______ _____ _____    ______ ____
ROOT
ATOM      1  C   UNL     1      45.844   3.263   8.074  0.00  0.00    +0.000 A 
ATOM      2  C   UNL     1      45.302   2.023   8.406  0.00  0.00    +0.000 A 
ATOM      3  N   UNL     1      44.508   1.762   9.463  0.00  0.00    +0.000 NA
ATOM      4  C   UNL     1      44.212   2.839  10.233  0.00  0.00    +0.000 A 
ATOM      5  C   UNL     1      43.387   2.897  11.376  0.00  0.00    +0.000 A 
ATOM      6  C   UNL     1      43.353   4.210  11.792  0.00  0.00    +0.000 A 
ATOM      7  N   UNL     1      44.140   4.948  10.939  0.00  0.00    +0.000 N 
ATOM      8  C   UNL     1      44.696   4.123   9.982  0.00  0.00    +0.000 A 
ATOM      9  C   UNL     1      45.558   4.356   8.902  0.00  0.00    +0.000 A 
ENDROOT
BRANCH   1  10
ATOM     10  C   UNL     1      46.692   3.425   6.840  0.00  0.00    +0.000 C 
BRANCH  10  11
ATOM     11  C   UNL     1      47.934   2.532   6.848  0.00  0.00    +0.000 C 
BRANCH  11  12
ATOM     12  N   UNL     1      48.335   2.197   5.481  0.00  0.00    +0.000 NA
ATOM     13  H   UNL     1      47.535   1.821   4.976  0.00  0.00    +0.000 HD
ATOM     14  H   UNL     1      49.036   1.458   5.497  0.00  0.00    +0.000 HD
ENDBRANCH  11  12
ENDBRANCH  10  11
ENDBRANCH   1  10
BRANCH   7  15
ATOM     15  C   UNL     1      44.248   6.405  10.988  0.00  0.00    +0.000 C 
BRANCH  15  16
ATOM     16  C   UNL     1      45.361   6.839  11.907  0.00  0.00    +0.000 A 
ATOM     17  C   UNL     1      45.344   8.112  12.494  0.00  0.00    +0.000 A 
ATOM     18  C   UNL     1      46.414   8.547  13.274  0.00  0.00    +0.000 A 
ATOM     19  C   UNL     1      47.513   7.711  13.479  0.00  0.00    +0.000 A 
ATOM     20  C   UNL     1      47.523   6.431  12.933  0.00  0.00    +0.000 A 
ATOM     21  C   UNL     1      46.453   5.994  12.153  0.00  0.00    +0.000 A 
ENDBRANCH  15  16
ENDBRANCH   7  15
TORSDOF 5
ENDMDL
MODEL 4
REMARK VINA RESULT:    -6.899      2.324      2.999
REMARK INTER + INTRA:          -9.237
REMARK INTER:                  -8.659
REMARK INTRA:                  -0.578
REMARK UNBOUND:                -0.523
REMARK  Name = 
REMARK  5 active torsions:
REMARK  status: ('A' for Active; 'I' for Inactive)
REMARK    1  A    between atoms: N_1  and  C_2
REMARK    2  A    between atoms: C_2  and  C_3
REMARK    3  A    between atoms: C_3  and  C_4
REMARK    4  A    between atoms: N_10  and  C_11
REMARK    5  A    between atoms: C_11  and  C_12
REMARK                            x       y       z     vdW  Elec       q    Type
REMARK                         _______ _______ _______ _____ _____    ______ ____
ROOT
ATOM      1  C   UNL     1      45.048   7.848  11.705  0.00  0.00    +0.000 A 
ATOM      2  C   UNL     1      45.874   7.727  12.822  0.00  0.00    +0.000 A 
ATOM      3  N   UNL     1      46.243   6.574  13.414  0.00  0.00    +0.000 NA
ATOM      4  C   UNL     1      45.769   5.451  12.818  0.00  0.00    +0.000 A 
ATOM      5  C   UNL     1      46.004   4.106  13.175  0.00  0.00    +0.000 A 
ATOM      6  C   UNL     1      45.350   3.317  12.254  0.00  0.00    +0.000 A 
ATOM      7  N   UNL     1      44.718   4.145  11.356  0.00  0.00    +0.000 N 
ATOM      8  C   UNL     1      44.944   5.464  11.694  0.00  0.00    +0.000 A 
ATOM      9  C   UNL     1      44.537   6.679  11.127  0.00  0.00    +0.000 A 
ENDROOT
BRANCH   1  10
ATOM     10  C   UNL     1      44.740   9.201  11.121  0.00  0.00    +0.000 C 
BRANCH  10  11
ATOM     11  C   UNL     1      43.241   9.505  11.076  0.00  0.00    +0.000 C 
BRANCH  11  12
ATOM     12  N   UNL     1      42.920  10.643  11.938  0.00  0.00    +0.000 NA
ATOM     13  H   UNL     1      42.961  10.352  12.913  0.00  0.00    +0.000 HD
ATOM     14  H   UNL     1      41.962  10.945  11.770  0.00  0.00    +0.000 HD
ENDBRANCH  11  12
ENDBRANCH  10  11
ENDBRANCH   1  10
BRANCH   7  15
ATOM     15  C   UNL     1      44.025   3.668  10.160  0.00  0.00    +0.000 C 
BRANCH  15  16
ATOM     16  C   UNL     1      45.002   3.254   9.091  0.00  0.00    +0.000 A 
ATOM     17  C   UNL     1      45.357   1.907   8.932  0.00  0.00    +0.000 A 
ATOM     18  C   UNL     1      46.325   1.533   8.002  0.00  0.00    +0.000 A 
ATOM     19  C   UNL     1      46.946   2.504   7.214  0.00  0.00    +0.000 A 
ATOM     20  C   UNL     1      46.574   3.839   7.335  0.00  0.00    +0.000 A 
ATOM     21  C   UNL     1      45.606   4.215   8.265  0.00  0.00    +0.000 A 
ENDBRANCH  15  16
ENDBRANCH   7  15
TORSDOF 5
ENDMDL
MODEL 5
REMARK VINA RESULT:    -6.638      2.144      3.720
REMARK INTER + INTRA:          -8.908
REMARK INTER:                  -8.458
REMARK INTRA:                  -0.450
REMARK UNBOUND:                -0.523
REMARK  Name = 
REMARK  5 active torsions:
REMARK  status: ('A' for Active; 'I' for Inactive)
REMARK    1  A    between atoms: N_1  and  C_2
REMARK    2  A    between atoms: C_2  and  C_3
REMARK    3  A    between atoms: C_3  and  C_4
REMARK    4  A    between atoms: N_10  and  C_11
REMARK    5  A    between atoms: C_11  and  C_12
REMARK                            x       y       z     vdW  Elec       q    Type
REMARK                         _______ _______ _______ _____ _____    ______ ____
ROOT
ATOM      1  C   UNL     1      47.155   4.626  14.529  0.00  0.00    +0.000 A 
ATOM      2  C   UNL     1      47.765   5.866  14.716  0.00  0.00    +0.000 A 
ATOM      3  N   UNL     1      47.553   6.973  13.980  0.00  0.00    +0.000 NA
ATOM      4  C   UNL     1      46.632   6.834  12.993  0.00  0.00    +0.000 A 
ATOM      5  C   UNL     1      46.169   7.809  12.084  0.00  0.00    +0.000 A 
ATOM      6  C   UNL     1      45.205   7.213  11.300  0.00  0.00    +0.000 A 
ATOM      7  N   UNL     1      45.078   5.904  11.701  0.00  0.00    +0.000 N 
ATOM      8  C   UNL     1      45.960   5.640  12.729  0.00  0.00    +0.000 A 
ATOM      9  C   UNL     1      46.236   4.491  13.481  0.00  0.00    +0.000 A 
ENDROOT
BRANCH   1  10
ATOM     10  C   UNL     1      47.459   3.474  15.449  0.00  0.00    +0.000 C 
BRANCH  10  11
ATOM     11  C   UNL     1      47.415   3.864  16.928  0.00  0.00    +0.000 C 
BRANCH  11  12
ATOM     12  N   UNL     1      46.592   2.920  17.686  0.00  0.00    +0.000 NA
ATOM     13  H   UNL     1      45.734   3.382  17.983  0.00  0.00    +0.000 HD
ATOM     14  H   UNL     1      47.077   2.643  18.537  0.00  0.00    +0.000 HD
ENDBRANCH  11  12
ENDBRANCH  10  11
ENDBRANCH   1  10
BRANCH   7  15
ATOM     15  C   UNL     1      44.062   4.990  11.182  0.00  0.00    +0.000 C 
BRANCH  15  16
ATOM     16  C   UNL     1      44.608   4.145  10.060  0.00  0.00    +0.000 A 
ATOM     17  C   UNL     1      44.400   2.759  10.046  0.00  0.00    +0.000 A 
ATOM     18  C   UNL     1      44.977   1.966   9.055  0.00  0.00    +0.000 A 
ATOM     19  C   UNL     1      45.766   2.552   8.064  0.00  0.00    +0.000 A 
ATOM     20  C   UNL     1      45.947   3.932   8.047  0.00  0.00    +0.000 A 
ATOM     21  C   UNL     1      45.370   4.727   9.036  0.00  0.00    +0.000 A 
ENDBRANCH  15  16
ENDBRANCH   7  15
TORSDOF 5
ENDMDL
MODEL 6
REMARK VINA RESULT:    -6.297      1.735      2.482
REMARK INTER + INTRA:          -8.477
REMARK INTER:                  -7.995
REMARK INTRA:                  -0.482
REMARK UNBOUND:                -0.523
REMARK  Name = 
REMARK  5 active torsions:
REMARK  status: ('A' for Active; 'I' for Inactive)
REMARK    1  A    between atoms: N_1  and  C_2
REMARK    2  A    between atoms: C_2  and  C_3
REMARK    3  A    between atoms: C_3  and  C_4
REMARK    4  A    between atoms: N_10  and  C_11
REMARK    5  A    between atoms: C_11  and  C_12
REMARK                            x       y       z     vdW  Elec       q    Type
REMARK                         _______ _______ _______ _____ _____    ______ ____
ROOT
ATOM      1  C   UNL     1      46.652   7.933  12.555  0.00  0.00    +0.000 A 
ATOM      2  C   UNL     1      47.528   7.464  13.532  0.00  0.00    +0.000 A 
ATOM      3  N   UNL     1      47.627   6.192  13.964  0.00  0.00    +0.000 NA
ATOM      4  C   UNL     1      46.798   5.314  13.344  0.00  0.00    +0.000 A 
ATOM      5  C   UNL     1      46.689   3.922  13.546  0.00  0.00    +0.000 A 
ATOM      6  C   UNL     1      45.746   3.451  12.659  0.00  0.00    +0.000 A 
ATOM      7  N   UNL     1      45.273   4.519  11.932  0.00  0.00    +0.000 N 
ATOM      8  C   UNL     1      45.892   5.681  12.349  0.00  0.00    +0.000 A 
ATOM      9  C   UNL     1      45.777   7.020  11.953  0.00  0.00    +0.000 A 
ENDROOT
BRANCH   1  10
ATOM     10  C   UNL     1      46.669   9.381  12.139  0.00  0.00    +0.000 C 
BRANCH  10  11
ATOM     11  C   UNL     1      48.053  10.020  12.261  0.00  0.00    +0.000 C 
BRANCH  11  12
ATOM     12  N   UNL     1      48.093  10.952  13.389  0.00  0.00    +0.000 NA
ATOM     13  H   UNL     1      49.054  11.052  13.711  0.00  0.00    +0.000 HD
ATOM     14  H   UNL     1      47.568  10.569  14.173  0.00  0.00    +0.000 HD
ENDBRANCH  11  12
ENDBRANCH  10  11
ENDBRANCH   1  10
BRANCH   7  15
ATOM     15  C   UNL     1      44.350   4.391  10.806  0.00  0.00    +0.000 C 
BRANCH  15  16
ATOM     16  C   UNL     1      45.027   3.772   9.611  0.00  0.00    +0.000 A 
ATOM     17  C   UNL     1      45.048   2.380   9.445  0.00  0.00    +0.000 A 
ATOM     18  C   UNL     1      45.747   1.803   8.387  0.00  0.00    +0.000 A 
ATOM     19  C   UNL     1      46.430   2.613   7.478  0.00  0.00    +0.000 A 
ATOM     20  C   UNL     1      46.384   3.997   7.611  0.00  0.00    +0.000 A 
ATOM     21  C   UNL     1      45.684   4.576   8.668  0.00  0.00    +0.000 A 
ENDBRANCH  15  16
ENDBRANCH   7  15
TORSDOF 5
ENDMDL
MODEL 7
REMARK VINA RESULT:    -5.695      1.960      5.993
REMARK INTER + INTRA:          -7.717
REMARK INTER:                  -7.379
REMARK INTRA:                  -0.338
REMARK UNBOUND:                -0.523
REMARK  Name = 
REMARK  5 active torsions:
REMARK  status: ('A' for Active; 'I' for Inactive)
REMARK    1  A    between atoms: N_1  and  C_2
REMARK    2  A    between atoms: C_2  and  C_3
REMARK    3  A    between atoms: C_3  and  C_4
REMARK    4  A    between atoms: N_10  and  C_11
REMARK    5  A    between atoms: C_11  and  C_12
REMARK                            x       y       z     vdW  Elec       q    Type
REMARK                         _______ _______ _______ _____ _____    ______ ____
ROOT
ATOM      1  C   UNL     1      44.908   4.389  10.846  0.00  0.00    +0.000 A 
ATOM      2  C   UNL     1      45.049   3.266  11.660  0.00  0.00    +0.000 A 
ATOM      3  N   UNL     1      45.731   3.208  12.820  0.00  0.00    +0.000 NA
ATOM      4  C   UNL     1      46.293   4.380  13.210  0.00  0.00    +0.000 A 
ATOM      5  C   UNL     1      47.032   4.649  14.381  0.00  0.00    +0.000 A 
ATOM      6  C   UNL     1      47.359   5.987  14.362  0.00  0.00    +0.000 A 
ATOM      7  N   UNL     1      46.847   6.535  13.209  0.00  0.00    +0.000 N 
ATOM      8  C   UNL     1      46.203   5.560  12.472  0.00  0.00    +0.000 A 
ATOM      9  C   UNL     1      45.527   5.580  11.245  0.00  0.00    +0.000 A 
ENDROOT
BRANCH   1  10
ATOM     10  C   UNL     1      44.087   4.326   9.586  0.00  0.00    +0.000 C 
BRANCH  10  11
ATOM     11  C   UNL     1      44.801   3.600   8.444  0.00  0.00    +0.000 C 
BRANCH  11  12
ATOM     12  N   UNL     1      45.867   4.435   7.890  0.00  0.00    +0.000 NA
ATOM     13  H   UNL     1      45.457   5.185   7.336  0.00  0.00    +0.000 HD
ATOM     14  H   UNL     1      46.439   3.887   7.249  0.00  0.00    +0.000 HD
ENDBRANCH  11  12
ENDBRANCH  10  11
ENDBRANCH   1  10
BRANCH   7  15
ATOM     15  C   UNL     1      46.885   7.963  12.901  0.00  0.00    +0.000 C 
BRANCH  15  16
ATOM     16  C   UNL     1      48.188   8.347  12.248  0.00  0.00    +0.000 A 
ATOM     17  C   UNL     1      49.153   7.373  11.956  0.00  0.00    +0.000 A 
ATOM     18  C   UNL     1      50.392   7.738  11.431  0.00  0.00    +0.000 A 
ATOM     19  C   UNL     1      50.678   9.082  11.189  0.00  0.00    +0.000 A 
ATOM     20  C   UNL     1      49.713  10.054  11.439  0.00  0.00    +0.000 A 
ATOM     21  C   UNL     1      48.473   9.691  11.962  0.00  0.00    +0.000 A 
ENDBRANCH  15  16
ENDBRANCH   7  15
TORSDOF 5
ENDMDL
MODEL 8
REMARK VINA RESULT:    -5.318      2.898      7.424
REMARK INTER + INTRA:          -7.240
REMARK INTER:                  -6.628
REMARK INTRA:                  -0.612
REMARK UNBOUND:                -0.523
REMARK  Name = 
REMARK  5 active torsions:
REMARK  status: ('A' for Active; 'I' for Inactive)
REMARK    1  A    between atoms: N_1  and  C_2
REMARK    2  A    between atoms: C_2  and  C_3
REMARK    3  A    between atoms: C_3  and  C_4
REMARK    4  A    between atoms: N_10  and  C_11
REMARK    5  A    between atoms: C_11  and  C_12
REMARK                            x       y       z     vdW  Elec       q    Type
REMARK                         _______ _______ _______ _____ _____    ______ ____
ROOT
ATOM      1  C   UNL     1      45.381   4.762  12.179  0.00  0.00    +0.000 A 
ATOM      2  C   UNL     1      44.506   5.713  11.657  0.00  0.00    +0.000 A 
ATOM      3  N   UNL     1      44.587   7.046  11.834  0.00  0.00    +0.000 NA
ATOM      4  C   UNL     1      45.649   7.459  12.571  0.00  0.00    +0.000 A 
ATOM      5  C   UNL     1      46.025   8.779  12.899  0.00  0.00    +0.000 A 
ATOM      6  C   UNL     1      47.194   8.704  13.625  0.00  0.00    +0.000 A 
ATOM      7  N   UNL     1      47.532   7.377  13.753  0.00  0.00    +0.000 N 
ATOM      8  C   UNL     1      46.585   6.589  13.129  0.00  0.00    +0.000 A 
ATOM      9  C   UNL     1      46.450   5.204  12.968  0.00  0.00    +0.000 A 
ENDROOT
BRANCH   1  10
ATOM     10  C   UNL     1      45.195   3.299  11.874  0.00  0.00    +0.000 C 
BRANCH  10  11
ATOM     11  C   UNL     1      43.983   3.025  10.981  0.00  0.00    +0.000 C 
BRANCH  11  12
ATOM     12  N   UNL     1      43.016   2.171  11.672  0.00  0.00    +0.000 NA
ATOM     13  H   UNL     1      43.493   1.637  12.397  0.00  0.00    +0.000 HD
ATOM     14  H   UNL     1      42.630   1.488  11.022  0.00  0.00    +0.000 HD
ENDBRANCH  11  12
ENDBRANCH  10  11
ENDBRANCH   1  10
BRANCH   7  15
ATOM     15  C   UNL     1      48.780   6.911  14.354  0.00  0.00    +0.000 C 
BRANCH  15  16
ATOM     16  C   UNL     1      48.607   6.632  15.825  0.00  0.00    +0.000 A 
ATOM     17  C   UNL     1      48.839   7.639  16.773  0.00  0.00    +0.000 A 
ATOM     18  C   UNL     1      48.763   7.359  18.136  0.00  0.00    +0.000 A 
ATOM     19  C   UNL     1      48.451   6.068  18.567  0.00  0.00    +0.000 A 
ATOM     20  C   UNL     1      48.182   5.071  17.635  0.00  0.00    +0.000 A 
ATOM     21  C   UNL     1      48.256   5.349  16.271  0.00  0.00    +0.000 A 
ENDBRANCH  15  16
ENDBRANCH   7  15
TORSDOF 5
ENDMDL
MODEL 9
REMARK VINA RESULT:    -5.266      3.380      5.841
REMARK INTER + INTRA:          -7.174
REMARK INTER:                  -6.825
REMARK INTRA:                  -0.349
REMARK UNBOUND:                -0.523
REMARK  Name = 
REMARK  5 active torsions:
REMARK  status: ('A' for Active; 'I' for Inactive)
REMARK    1  A    between atoms: N_1  and  C_2
REMARK    2  A    between atoms: C_2  and  C_3
REMARK    3  A    between atoms: C_3  and  C_4
REMARK    4  A    between atoms: N_10  and  C_11
REMARK    5  A    between atoms: C_11  and  C_12
REMARK                            x       y       z     vdW  Elec       q    Type
REMARK                         _______ _______ _______ _____ _____    ______ ____
ROOT
ATOM      1  C   UNL     1      46.729   4.019  14.079  0.00  0.00    +0.000 A 
ATOM      2  C   UNL     1      46.123   3.224  13.107  0.00  0.00    +0.000 A 
ATOM      3  N   UNL     1      45.396   3.665  12.062  0.00  0.00    +0.000 NA
ATOM      4  C   UNL     1      45.295   5.015  11.968  0.00  0.00    +0.000 A 
ATOM      5  C   UNL     1      44.638   5.775  10.977  0.00  0.00    +0.000 A 
ATOM      6  C   UNL     1      44.843   7.104  11.278  0.00  0.00    +0.000 A 
ATOM      7  N   UNL     1      45.597   7.171  12.426  0.00  0.00    +0.000 N 
ATOM      8  C   UNL     1      45.871   5.897  12.882  0.00  0.00    +0.000 A 
ATOM      9  C   UNL     1      46.581   5.409  13.987  0.00  0.00    +0.000 A 
ENDROOT
BRANCH   1  10
ATOM     10  C   UNL     1      47.545   3.397  15.181  0.00  0.00    +0.000 C 
BRANCH  10  11
ATOM     11  C   UNL     1      47.308   4.053  16.542  0.00  0.00    +0.000 C 
BRANCH  11  12
ATOM     12  N   UNL     1      46.633   3.124  17.450  0.00  0.00    +0.000 NA
ATOM     13  H   UNL     1      46.779   2.169  17.128  0.00  0.00    +0.000 HD
ATOM     14  H   UNL     1      45.628   3.284  17.425  0.00  0.00    +0.000 HD
ENDBRANCH  11  12
ENDBRANCH  10  11
ENDBRANCH   1  10
BRANCH   7  15
ATOM     15  C   UNL     1      46.121   8.416  12.984  0.00  0.00    +0.000 C 
BRANCH  15  16
ATOM     16  C   UNL     1      47.448   8.775  12.368  0.00  0.00    +0.000 A 
ATOM     17  C   UNL     1      48.362   7.774  12.010  0.00  0.00    +0.000 A 
ATOM     18  C   UNL     1      49.624   8.109  11.520  0.00  0.00    +0.000 A 
ATOM     19  C   UNL     1      49.983   9.450  11.379  0.00  0.00    +0.000 A 
ATOM     20  C   UNL     1      49.070  10.451  11.694  0.00  0.00    +0.000 A 
ATOM     21  C   UNL     1      47.808  10.119  12.183  0.00  0.00    +0.000 A 
ENDBRANCH  15  16
ENDBRANCH   7  15
TORSDOF 5
ENDMDL
