MODEL 1
REMARK VINA RESULT:    -8.023      0.000      0.000
REMARK INTER + INTRA:         -10.443
REMARK INTER:                  -9.900
REMARK INTRA:                  -0.544
REMARK UNBOUND:                -0.544
REMARK  Name = 
REMARK  4 active torsions:
REMARK  status: ('A' for Active; 'I' for Inactive)
REMARK    1  A    between atoms: C_2  and  C_3
REMARK    2  A    between atoms: C_7  and  C_8
REMARK    3  A    between atoms: C_8  and  C_9
REMARK    4  A    between atoms: C_13  and  C_14
REMARK                            x       y       z     vdW  Elec       q    Type
REMARK                         _______ _______ _______ _____ _____    ______ ____
ROOT
ATOM      1  C   UNL     1      45.321   4.833  12.070  0.00  0.00    +0.000 A 
ATOM      2  C   UNL     1      45.696   4.094  13.192  0.00  0.00    +0.000 A 
ATOM      3  C   UNL     1      46.848   4.451  13.873  0.00  0.00    +0.000 A 
ATOM      4  C   UNL     1      47.532   5.595  13.485  0.00  0.00    +0.000 A 
ATOM      5  C   UNL     1      46.992   6.403  12.486  0.00  0.00    +0.000 A 
ATOM      6  N   UNL     1      45.900   6.023  11.780  0.00  0.00    +0.000 NA
ENDROOT
BRANCH   5   7
ATOM      7  C   UNL     1      47.549   7.720  12.136  0.00  0.00    +0.000 A 
ATOM      8  C   UNL     1      48.880   7.881  11.716  0.00  0.00    +0.000 A 
ATOM      9  C   UNL     1      49.406   9.150  11.456  0.00  0.00    +0.000 A 
ATOM     10  C   UNL     1      48.607  10.282  11.603  0.00  0.00    +0.000 A 
ATOM     11  C   UNL     1      47.278  10.147  11.992  0.00  0.00    +0.000 A 
ATOM     12  C   UNL     1      46.756   8.877  12.250  0.00  0.00    +0.000 A 
ENDBRANCH   5   7
BRANCH   1  13
ATOM     13  C   UNL     1      44.469   4.159  10.996  0.00  0.00    +0.000 C 
ATOM     14  C   UNL     1      43.298   3.270  11.422  0.00  0.00    +0.000 C 
ATOM     15  C   UNL     1      43.026   4.682  11.025  0.00  0.00    +0.000 C 
BRANCH  13  20
ATOM     16  C   UNL     1      46.132   2.103   8.193  0.00  0.00    +0.000 A 
ATOM     17  C   UNL     1      46.379   3.131   7.296  0.00  0.00    +0.000 A 
ATOM     18  N   UNL     1      46.103   4.426   7.549  0.00  0.00    +0.000 NA
ATOM     19  C   UNL     1      45.526   4.695   8.750  0.00  0.00    +0.000 A 
ATOM     20  C   UNL     1      45.183   3.742   9.719  0.00  0.00    +0.000 A 
ATOM     21  C   UNL     1      45.525   2.420   9.415  0.00  0.00    +0.000 A 
BRANCH  16  23
ATOM     22  N   UNL     1      46.761  -0.341   7.609  0.00  0.00    +0.000 NA
ATOM     23  C   UNL     1      46.477   0.757   7.869  0.00  0.00    +0.000 C 
ENDBRANCH  16  23
ENDBRANCH  13  20
ENDBRANCH   1  13
TORSDOF 4
ENDMDL
MODEL 2
REMARK VINA RESULT:    -7.561      2.328      6.709
REMARK INTER + INTRA:          -9.873
REMARK INTER:                  -9.575
REMARK INTRA:                  -0.299
REMARK UNBOUND:                -0.544
REMARK  Name = 
REMARK  4 active torsions:
REMARK  status: ('A' for Active; 'I' for Inactive)
REMARK    1  A    between atoms: C_2  and  C_3
REMARK    2  A    between atoms: C_7  and  C_8
REMARK    3  A    between atoms: C_8  and  C_9
REMARK    4  A    between atoms: C_13  and  C_14
REMARK                            x       y       z     vdW  Elec       q    Type
REMARK                         _______ _______ _______ _____ _____    ______ ____
ROOT
ATOM      1  C   UNL     1      45.296   4.323  11.823  0.00  0.00    +0.000 A 
ATOM      2  C   UNL     1      44.160   3.706  12.349  0.00  0.00    +0.000 A 
ATOM      3  C   UNL     1      43.406   2.884  11.529  0.00  0.00    +0.000 A 
ATOM      4  C   UNL     1      43.860   2.615  10.244  0.00  0.00    +0.000 A 
ATOM      5  C   UNL     1      45.106   3.099   9.850  0.00  0.00    +0.000 A 
ATOM      6  N   UNL     1      45.814   3.952  10.628  0.00  0.00    +0.000 NA
ENDROOT
BRANCH   5   7
ATOM      7  C   UNL     1      45.746   2.716   8.580  0.00  0.00    +0.000 A 
ATOM      8  C   UNL     1      46.172   1.402   8.324  0.00  0.00    +0.000 A 
ATOM      9  C   UNL     1      46.841   1.078   7.140  0.00  0.00    +0.000 A 
ATOM     10  C   UNL     1      47.087   2.062   6.184  0.00  0.00    +0.000 A 
ATOM     11  C   UNL     1      46.651   3.365   6.402  0.00  0.00    +0.000 A 
ATOM     12  C   UNL     1      45.984   3.684   7.587  0.00  0.00    +0.000 A 
ENDBRANCH   5   7
BRANCH   1  13
ATOM     13  C   UNL     1      45.780   5.630  12.451  0.00  0.00    +0.000 C 
ATOM     14  C   UNL     1      46.072   6.828  11.545  0.00  0.00    +0.000 C 
ATOM     15  C   UNL     1      44.757   6.755  12.244  0.00  0.00    +0.000 C 
BRANCH  13  20
ATOM     16  C   UNL     1      47.318   4.487  15.793  0.00  0.00    +0.000 A 
ATOM     17  C   UNL     1      48.413   5.338  15.824  0.00  0.00    +0.000 A 
ATOM     18  N   UNL     1      48.656   6.276  14.887  0.00  0.00    +0.000 NA
ATOM     19  C   UNL     1      47.771   6.342  13.857  0.00  0.00    +0.000 A 
ATOM     20  C   UNL     1      46.656   5.510  13.689  0.00  0.00    +0.000 A 
ATOM     21  C   UNL     1      46.436   4.579  14.709  0.00  0.00    +0.000 A 
BRANCH  16  23
ATOM     22  N   UNL     1      46.942   2.760  17.687  0.00  0.00    +0.000 NA
ATOM     23  C   UNL     1      47.108   3.536  16.836  0.00  0.00    +0.000 C 
ENDBRANCH  16  23
ENDBRANCH  13  20
ENDBRANCH   1  13
TORSDOF 4
ENDMDL
MODEL 3
REMARK VINA RESULT:    -7.318      1.292      1.924
REMARK INTER + INTRA:          -9.573
REMARK INTER:                  -8.964
REMARK INTRA:                  -0.609
REMARK UNBOUND:                -0.544
REMARK  Name = 
REMARK  4 active torsions:
REMARK  status: ('A' for Active; 'I' for Inactive)
REMARK    1  A    between atoms: C_2  and  C_3
REMARK    2  A    between atoms: C_7  and  C_8
REMARK    3  A    between atoms: C_8  and  C_9
REMARK    4  A    between atoms: C_13  and  C_14
REMARK                            x       y       z     vdW  Elec       q    Type
REMARK                         _______ _______ _______ _____ _____    ______ ____
ROOT
ATOM      1  C   UNL     1      45.198   5.721  12.481  0.00  0.00    +0.000 A 
ATOM      2  C   UNL     1      45.546   4.886  13.544  0.00  0.00    +0.000 A 
ATOM      3  C   UNL     1      46.846   4.914  14.018  0.00  0.00    +0.000 A 
ATOM      4  C   UNL     1      47.733   5.846  13.495  0.00  0.00    +0.000 A 
ATOM      5  C   UNL     1      47.267   6.788  12.581  0.00  0.00    +0.000 A 
ATOM      6  N   UNL     1      46.014   6.722  12.072  0.00  0.00    +0.000 NA
ENDROOT
BRANCH   5   7
ATOM      7  C   UNL     1      48.085   7.919  12.113  0.00  0.00    +0.000 A 
ATOM      8  C   UNL     1      49.433   7.767  11.747  0.00  0.00    +0.000 A 
ATOM      9  C   UNL     1      50.208   8.869  11.373  0.00  0.00    +0.000 A 
ATOM     10  C   UNL     1      49.646  10.144  11.349  0.00  0.00    +0.000 A 
ATOM     11  C   UNL     1      48.306  10.317  11.682  0.00  0.00    +0.000 A 
ATOM     12  C   UNL     1      47.535   9.214  12.055  0.00  0.00    +0.000 A 
ENDBRANCH   5   7
BRANCH   1  13
ATOM     13  C   UNL     1      44.034   5.316  11.577  0.00  0.00    +0.000 C 
ATOM     14  C   UNL     1      42.614   5.320  12.146  0.00  0.00    +0.000 C 
ATOM     15  C   UNL     1      43.076   6.494  11.349  0.00  0.00    +0.000 C 
BRANCH  13  20
ATOM     16  C   UNL     1      45.353   3.444   8.479  0.00  0.00    +0.000 A 
ATOM     17  C   UNL     1      44.857   2.182   8.768  0.00  0.00    +0.000 A 
ATOM     18  N   UNL     1      44.093   1.908   9.844  0.00  0.00    +0.000 NA
ATOM     19  C   UNL     1      43.840   2.948  10.683  0.00  0.00    +0.000 A 
ATOM     20  C   UNL     1      44.322   4.255  10.527  0.00  0.00    +0.000 A 
ATOM     21  C   UNL     1      45.080   4.486   9.375  0.00  0.00    +0.000 A 
BRANCH  16  23
ATOM     22  N   UNL     1      46.773   3.846   6.349  0.00  0.00    +0.000 NA
ATOM     23  C   UNL     1      46.133   3.667   7.305  0.00  0.00    +0.000 C 
ENDBRANCH  16  23
ENDBRANCH  13  20
ENDBRANCH   1  13
TORSDOF 4
ENDMDL
MODEL 4
REMARK VINA RESULT:    -7.233      1.789      6.537
REMARK INTER + INTRA:          -9.468
REMARK INTER:                  -9.317
REMARK INTRA:                  -0.151
REMARK UNBOUND:                -0.544
REMARK  Name = 
REMARK  4 active torsions:
REMARK  status: ('A' for Active; 'I' for Inactive)
REMARK    1  A    between atoms: C_2  and  C_3
REMARK    2  A    between atoms: C_7  and  C_8
REMARK    3  A    between atoms: C_8  and  C_9
REMARK    4  A    between atoms: C_13  and  C_14
REMARK                            x       y       z     vdW  Elec       q    Type
REMARK                         _______ _______ _______ _____ _____    ______ ____
ROOT
ATOM      1  C   UNL     1      44.957   4.285  11.496  0.00  0.00    +0.000 A 
ATOM      2  C   UNL     1      44.040   3.422  12.096  0.00  0.00    +0.000 A 
ATOM      3  C   UNL     1      43.533   2.367  11.356  0.00  0.00    +0.000 A 
ATOM      4  C   UNL     1      44.033   2.138  10.081  0.00  0.00    +0.000 A 
ATOM      5  C   UNL     1      45.095   2.913   9.619  0.00  0.00    +0.000 A 
ATOM      6  N   UNL     1      45.548   3.982  10.316  0.00  0.00    +0.000 NA
ENDROOT
BRANCH   5   7
ATOM      7  C   UNL     1      45.805   2.627   8.361  0.00  0.00    +0.000 A 
ATOM      8  C   UNL     1      46.383   1.373   8.098  0.00  0.00    +0.000 A 
ATOM      9  C   UNL     1      47.113   1.147   6.927  0.00  0.00    +0.000 A 
ATOM     10  C   UNL     1      47.269   2.168   5.992  0.00  0.00    +0.000 A 
ATOM     11  C   UNL     1      46.684   3.410   6.217  0.00  0.00    +0.000 A 
ATOM     12  C   UNL     1      45.956   3.632   7.387  0.00  0.00    +0.000 A 
ENDBRANCH   5   7
BRANCH   1  13
ATOM     13  C   UNL     1      45.070   5.718  12.018  0.00  0.00    +0.000 C 
ATOM     14  C   UNL     1      44.111   6.783  11.483  0.00  0.00    +0.000 C 
ATOM     15  C   UNL     1      43.806   6.127  12.787  0.00  0.00    +0.000 C 
BRANCH  13  20
ATOM     16  C   UNL     1      48.317   7.778  12.261  0.00  0.00    +0.000 A 
ATOM     17  C   UNL     1      48.972   7.027  13.226  0.00  0.00    +0.000 A 
ATOM     18  N   UNL     1      48.473   5.891  13.754  0.00  0.00    +0.000 NA
ATOM     19  C   UNL     1      47.245   5.509  13.311  0.00  0.00    +0.000 A 
ATOM     20  C   UNL     1      46.465   6.206  12.378  0.00  0.00    +0.000 A 
ATOM     21  C   UNL     1      47.049   7.357  11.840  0.00  0.00    +0.000 A 
BRANCH  16  23
ATOM     22  N   UNL     1      49.414   9.913  11.288  0.00  0.00    +0.000 NA
ATOM     23  C   UNL     1      48.918   8.955  11.725  0.00  0.00    +0.000 C 
ENDBRANCH  16  23
ENDBRANCH  13  20
ENDBRANCH   1  13
TORSDOF 4
ENDMDL
MODEL 5
REMARK VINA RESULT:    -7.074      2.268      4.313
REMARK INTER + INTRA:          -9.272
REMARK INTER:                  -8.831
REMARK INTRA:                  -0.441
REMARK UNBOUND:                -0.544
REMARK  Name = 
REMARK  4 active torsions:
REMARK  status: ('A' for Active; 'I' for Inactive)
REMARK    1  A    between atoms: C_2  and  C_3
REMARK    2  A    between atoms: C_7  and  C_8
REMARK    3  A    between atoms: C_8  and  C_9
REMARK    4  A    between atoms: C_13  and  C_14
REMARK                            x       y       z     vdW  Elec       q    Type
REMARK                         _______ _______ _______ _____ _____    ______ ____
ROOT
ATOM      1  C   UNL     1      46.420   5.778  12.406  0.00  0.00    +0.000 A 
ATOM      2  C   UNL     1      47.316   6.676  11.825  0.00  0.00    +0.000 A 
ATOM      3  C   UNL     1      48.306   7.237  12.614  0.00  0.00    +0.000 A 
ATOM      4  C   UNL     1      48.444   6.807  13.928  0.00  0.00    +0.000 A 
ATOM      5  C   UNL     1      47.647   5.759  14.386  0.00  0.00    +0.000 A 
ATOM      6  N   UNL     1      46.640   5.253  13.636  0.00  0.00    +0.000 NA
ENDROOT
BRANCH   5   7
ATOM      7  C   UNL     1      47.846   5.120  15.697  0.00  0.00    +0.000 A 
ATOM      8  C   UNL     1      48.699   5.664  16.673  0.00  0.00    +0.000 A 
ATOM      9  C   UNL     1      48.925   5.001  17.883  0.00  0.00    +0.000 A 
ATOM     10  C   UNL     1      48.295   3.787  18.145  0.00  0.00    +0.000 A 
ATOM     11  C   UNL     1      47.426   3.240  17.206  0.00  0.00    +0.000 A 
ATOM     12  C   UNL     1      47.202   3.905  15.998  0.00  0.00    +0.000 A 
ENDBRANCH   5   7
BRANCH   1  13
ATOM     13  C   UNL     1      45.033   5.616  11.785  0.00  0.00    +0.000 C 
ATOM     14  C   UNL     1      43.796   5.863  12.651  0.00  0.00    +0.000 C 
ATOM     15  C   UNL     1      44.280   6.954  11.757  0.00  0.00    +0.000 C 
BRANCH  13  20
ATOM     16  C   UNL     1      45.376   3.563   8.543  0.00  0.00    +0.000 A 
ATOM     17  C   UNL     1      44.611   2.465   8.906  0.00  0.00    +0.000 A 
ATOM     18  N   UNL     1      43.957   2.366  10.082  0.00  0.00    +0.000 NA
ATOM     19  C   UNL     1      44.103   3.409  10.941  0.00  0.00    +0.000 A 
ATOM     20  C   UNL     1      44.885   4.549  10.711  0.00  0.00    +0.000 A 
ATOM     21  C   UNL     1      45.511   4.611   9.462  0.00  0.00    +0.000 A 
BRANCH  16  23
ATOM     22  N   UNL     1      46.539   3.656   6.230  0.00  0.00    +0.000 NA
ATOM     23  C   UNL     1      46.017   3.611   7.270  0.00  0.00    +0.000 C 
ENDBRANCH  16  23
ENDBRANCH  13  20
ENDBRANCH   1  13
TORSDOF 4
ENDMDL
MODEL 6
REMARK VINA RESULT:    -6.380      2.164      6.806
REMARK INTER + INTRA:          -8.416
REMARK INTER:                  -8.435
REMARK INTRA:                   0.020
REMARK UNBOUND:                -0.544
REMARK  Name = 
REMARK  4 active torsions:
REMARK  status: ('A' for Active; 'I' for Inactive)
REMARK    1  A    between atoms: C_2  and  C_3
REMARK    2  A    between atoms: C_7  and  C_8
REMARK    3  A    between atoms: C_8  and  C_9
REMARK    4  A    between atoms: C_13  and  C_14
REMARK                            x       y       z     vdW  Elec       q    Type
REMARK                         _______ _______ _______ _____ _____    ______ ____
ROOT
ATOM      1  C   UNL     1      45.458   5.588  12.002  0.00  0.00    +0.000 A 
ATOM      2  C   UNL     1      44.163   5.452  12.503  0.00  0.00    +0.000 A 
ATOM      3  C   UNL     1      43.212   4.808  11.730  0.00  0.00    +0.000 A 
ATOM      4  C   UNL     1      43.601   4.225  10.531  0.00  0.00    +0.000 A 
ATOM      5  C   UNL     1      44.951   4.220  10.185  0.00  0.00    +0.000 A 
ATOM      6  N   UNL     1      45.871   4.902  10.909  0.00  0.00    +0.000 NA
ENDROOT
BRANCH   5   7
ATOM      7  C   UNL     1      45.477   3.473   9.031  0.00  0.00    +0.000 A 
ATOM      8  C   UNL     1      45.568   2.071   9.026  0.00  0.00    +0.000 A 
ATOM      9  C   UNL     1      46.136   1.389   7.946  0.00  0.00    +0.000 A 
ATOM     10  C   UNL     1      46.615   2.096   6.845  0.00  0.00    +0.000 A 
ATOM     11  C   UNL     1      46.513   3.484   6.815  0.00  0.00    +0.000 A 
ATOM     12  C   UNL     1      45.945   4.161   7.895  0.00  0.00    +0.000 A 
ENDBRANCH   5   7
BRANCH   1  13
ATOM     13  C   UNL     1      46.323   6.746  12.502  0.00  0.00    +0.000 C 
ATOM     14  C   UNL     1      47.005   6.630  13.866  0.00  0.00    +0.000 C 
ATOM     15  C   UNL     1      47.792   6.321  12.637  0.00  0.00    +0.000 C 
BRANCH  13  20
ATOM     16  C   UNL     1      44.323   9.752  11.158  0.00  0.00    +0.000 A 
ATOM     17  C   UNL     1      45.190  10.767  11.532  0.00  0.00    +0.000 A 
ATOM     18  N   UNL     1      46.381  10.551  12.127  0.00  0.00    +0.000 NA
ATOM     19  C   UNL     1      46.699   9.254  12.382  0.00  0.00    +0.000 A 
ATOM     20  C   UNL     1      45.889   8.146  12.097  0.00  0.00    +0.000 A 
ATOM     21  C   UNL     1      44.682   8.431  11.449  0.00  0.00    +0.000 A 
BRANCH  16  23
ATOM     22  N   UNL     1      42.084  10.295   9.972  0.00  0.00    +0.000 NA
ATOM     23  C   UNL     1      43.091  10.054  10.505  0.00  0.00    +0.000 C 
ENDBRANCH  16  23
ENDBRANCH  13  20
ENDBRANCH   1  13
TORSDOF 4
ENDMDL
MODEL 7
REMARK VINA RESULT:    -6.303      2.726      7.084
REMARK INTER + INTRA:          -8.321
REMARK INTER:                  -8.380
REMARK INTRA:                   0.059
REMARK UNBOUND:                -0.544
REMARK  Name = 
REMARK  4 active torsions:
REMARK  status: ('A' for Active; 'I' for Inactive)
REMARK    1  A    between atoms: C_2  and  C_3
REMARK    2  A    between atoms: C_7  and  C_8
REMARK    3  A    between atoms: C_8  and  C_9
REMARK    4  A    between atoms: C_13  and  C_14
REMARK                            x       y       z     vdW  Elec       q    Type
REMARK                         _______ _______ _______ _____ _____    ______ ____
ROOT
ATOM      1  C   UNL     1      46.966   7.287  13.046  0.00  0.00    +0.000 A 
ATOM      2  C   UNL     1      46.148   8.409  13.185  0.00  0.00    +0.000 A 
ATOM      3  C   UNL     1      45.108   8.594  12.291  0.00  0.00    +0.000 A 
ATOM      4  C   UNL     1      44.844   7.605  11.352  0.00  0.00    +0.000 A 
ATOM      5  C   UNL     1      45.569   6.415  11.397  0.00  0.00    +0.000 A 
ATOM      6  N   UNL     1      46.625   6.260  12.231  0.00  0.00    +0.000 NA
ENDROOT
BRANCH   5   7
ATOM      7  C   UNL     1      45.240   5.247  10.564  0.00  0.00    +0.000 A 
ATOM      8  C   UNL     1      44.528   4.146  11.069  0.00  0.00    +0.000 A 
ATOM      9  C   UNL     1      44.288   3.018  10.278  0.00  0.00    +0.000 A 
ATOM     10  C   UNL     1      44.748   2.974   8.964  0.00  0.00    +0.000 A 
ATOM     11  C   UNL     1      45.433   4.062   8.433  0.00  0.00    +0.000 A 
ATOM     12  C   UNL     1      45.670   5.187   9.225  0.00  0.00    +0.000 A 
ENDBRANCH   5   7
BRANCH   1  13
ATOM     13  C   UNL     1      48.397   7.349  13.577  0.00  0.00    +0.000 C 
ATOM     14  C   UNL     1      49.559   7.412  12.583  0.00  0.00    +0.000 C 
ATOM     15  C   UNL     1      49.070   8.678  13.202  0.00  0.00    +0.000 C 
BRANCH  13  20
ATOM     16  C   UNL     1      48.216   4.902  16.548  0.00  0.00    +0.000 A 
ATOM     17  C   UNL     1      49.389   5.265  17.193  0.00  0.00    +0.000 A 
ATOM     18  N   UNL     1      50.192   6.265  16.775  0.00  0.00    +0.000 NA
ATOM     19  C   UNL     1      49.811   6.909  15.640  0.00  0.00    +0.000 A 
ATOM     20  C   UNL     1      48.677   6.605  14.874  0.00  0.00    +0.000 A 
ATOM     21  C   UNL     1      47.865   5.583  15.375  0.00  0.00    +0.000 A 
BRANCH  16  23
ATOM     22  N   UNL     1      46.733   2.998  17.488  0.00  0.00    +0.000 NA
ATOM     23  C   UNL     1      47.399   3.852  17.063  0.00  0.00    +0.000 C 
ENDBRANCH  16  23
ENDBRANCH  13  20
ENDBRANCH   1  13
TORSDOF 4
ENDMDL
MODEL 8
REMARK VINA RESULT:    -6.039      4.742      7.858
REMARK INTER + INTRA:          -7.996
REMARK INTER:                  -7.412
REMARK INTRA:                  -0.584
REMARK UNBOUND:                -0.544
REMARK  Name = 
REMARK  4 active torsions:
REMARK  status: ('A' for Active; 'I' for Inactive)
REMARK    1  A    between atoms: C_2  and  C_3
REMARK    2  A    between atoms: C_7  and  C_8
REMARK    3  A    between atoms: C_8  and  C_9
REMARK    4  A    between atoms: C_13  and  C_14
REMARK                            x       y       z     vdW  Elec       q    Type
REMARK                         _______ _______ _______ _____ _____    ______ ____
ROOT
ATOM      1  C   UNL     1      48.702   6.155  16.183  0.00  0.00    +0.000 A 
ATOM      2  C   UNL     1      49.624   7.168  15.917  0.00  0.00    +0.000 A 
ATOM      3  C   UNL     1      49.834   7.553  14.604  0.00  0.00    +0.000 A 
ATOM      4  C   UNL     1      49.046   6.997  13.605  0.00  0.00    +0.000 A 
ATOM      5  C   UNL     1      48.004   6.142  13.960  0.00  0.00    +0.000 A 
ATOM      6  N   UNL     1      47.837   5.719  15.236  0.00  0.00    +0.000 NA
ENDROOT
BRANCH   5   7
ATOM      7  C   UNL     1      47.009   5.651  12.992  0.00  0.00    +0.000 A 
ATOM      8  C   UNL     1      46.716   6.343  11.805  0.00  0.00    +0.000 A 
ATOM      9  C   UNL     1      45.717   5.894  10.936  0.00  0.00    +0.000 A 
ATOM     10  C   UNL     1      44.999   4.738  11.233  0.00  0.00    +0.000 A 
ATOM     11  C   UNL     1      45.288   4.020  12.390  0.00  0.00    +0.000 A 
ATOM     12  C   UNL     1      46.287   4.472  13.255  0.00  0.00    +0.000 A 
ENDBRANCH   5   7
BRANCH   1  13
ATOM     13  C   UNL     1      48.869   5.322  17.453  0.00  0.00    +0.000 C 
ATOM     14  C   UNL     1      48.955   6.033  18.805  0.00  0.00    +0.000 C 
ATOM     15  C   UNL     1      47.647   5.462  18.372  0.00  0.00    +0.000 C 
BRANCH  13  20
ATOM     16  C   UNL     1      51.642   2.661  17.730  0.00  0.00    +0.000 A 
ATOM     17  C   UNL     1      50.982   1.604  17.122  0.00  0.00    +0.000 A 
ATOM     18  N   UNL     1      49.748   1.702  16.588  0.00  0.00    +0.000 NA
ATOM     19  C   UNL     1      49.140   2.913  16.697  0.00  0.00    +0.000 A 
ATOM     20  C   UNL     1      49.681   4.041  17.328  0.00  0.00    +0.000 A 
ATOM     21  C   UNL     1      50.976   3.889  17.832  0.00  0.00    +0.000 A 
BRANCH  16  23
ATOM     22  N   UNL     1      54.038   2.356  18.667  0.00  0.00    +0.000 NA
ATOM     23  C   UNL     1      52.960   2.492  18.249  0.00  0.00    +0.000 C 
ENDBRANCH  16  23
ENDBRANCH  13  20
ENDBRANCH   1  13
TORSDOF 4
ENDMDL
MODEL 9
REMARK VINA RESULT:    -5.983      3.114      6.230
REMARK INTER + INTRA:          -7.925
REMARK INTER:                  -7.294
REMARK INTRA:                  -0.632
REMARK UNBOUND:                -0.544
REMARK  Name = 
REMARK  4 active torsions:
REMARK  status: ('A' for Active; 'I' for Inactive)
REMARK    1  A    between atoms: C_2  and  C_3
REMARK    2  A    between atoms: C_7  and  C_8
REMARK    3  A    between atoms: C_8  and  C_9
REMARK    4  A    between atoms: C_13  and  C_14
REMARK                            x       y       z     vdW  Elec       q    Type
REMARK                         _______ _______ _______ _____ _____    ______ ____
ROOT
ATOM      1  C   UNL     1      48.855   7.858  14.125  0.00  0.00    +0.000 A 
ATOM      2  C   UNL     1      48.860   9.053  14.844  0.00  0.00    +0.000 A 
ATOM      3  C   UNL     1      48.727   9.005  16.221  0.00  0.00    +0.000 A 
ATOM      4  C   UNL     1      48.701   7.768  16.852  0.00  0.00    +0.000 A 
ATOM      5  C   UNL     1      48.905   6.616  16.096  0.00  0.00    +0.000 A 
ATOM      6  N   UNL     1      48.974   6.659  14.744  0.00  0.00    +0.000 NA
ENDROOT
BRANCH   5   7
ATOM      7  C   UNL     1      49.074   5.284  16.699  0.00  0.00    +0.000 A 
ATOM      8  C   UNL     1      50.269   4.893  17.326  0.00  0.00    +0.000 A 
ATOM      9  C   UNL     1      50.430   3.598  17.829  0.00  0.00    +0.000 A 
ATOM     10  C   UNL     1      49.394   2.673  17.725  0.00  0.00    +0.000 A 
ATOM     11  C   UNL     1      48.191   3.044  17.132  0.00  0.00    +0.000 A 
ATOM     12  C   UNL     1      48.034   4.338  16.630  0.00  0.00    +0.000 A 
ENDBRANCH   5   7
BRANCH   1  13
ATOM     13  C   UNL     1      48.406   7.880  12.664  0.00  0.00    +0.000 C 
ATOM     14  C   UNL     1      48.861   9.030  11.763  0.00  0.00    +0.000 C 
ATOM     15  C   UNL     1      49.605   7.738  11.715  0.00  0.00    +0.000 C 
BRANCH  13  20
ATOM     16  C   UNL     1      45.386   5.518  12.278  0.00  0.00    +0.000 A 
ATOM     17  C   UNL     1      44.438   6.451  11.887  0.00  0.00    +0.000 A 
ATOM     18  N   UNL     1      44.711   7.756  11.688  0.00  0.00    +0.000 NA
ATOM     19  C   UNL     1      45.993   8.145  11.921  0.00  0.00    +0.000 A 
ATOM     20  C   UNL     1      47.028   7.310  12.364  0.00  0.00    +0.000 A 
ATOM     21  C   UNL     1      46.693   5.962  12.519  0.00  0.00    +0.000 A 
BRANCH  16  23
ATOM     22  N   UNL     1      44.745   3.027  12.581  0.00  0.00    +0.000 NA
ATOM     23  C   UNL     1      45.031   4.147  12.442  0.00  0.00    +0.000 C 
ENDBRANCH  16  23
ENDBRANCH  13  20
ENDBRANCH   1  13
TORSDOF 4
ENDMDL
