MODEL 1
REMARK VINA RESULT:    -7.903      0.000      0.000
REMARK INTER + INTRA:          -9.637
REMARK INTER:                  -9.289
REMARK INTRA:                  -0.348
REMARK UNBOUND:                -0.348
REMARK  Name = 
REMARK  3 active torsions:
REMARK  status: ('A' for Active; 'I' for Inactive)
REMARK    1  A    between atoms: C_2  and  C_4
REMARK    2  A    between atoms: N_8  and  C_9
REMARK    3  A    between atoms: C_9  and  C_10
REMARK                            x       y       z     vdW  Elec       q    Type
REMARK                         _______ _______ _______ _____ _____    ______ ____
ROOT
ATOM      1  C   UNL     1      46.490   2.644   7.492  0.00  0.00    +0.000 A 
ATOM      2  C   UNL     1      45.991   1.735   8.387  0.00  0.00    +0.000 A 
ATOM      3  N   UNL     1      45.159   2.062   9.401  0.00  0.00    +0.000 NA
ATOM      4  C   UNL     1      44.851   3.364   9.546  0.00  0.00    +0.000 A 
ATOM      5  N   UNL     1      43.891   3.640  10.524  0.00  0.00    +0.000 N 
ATOM      6  N   UNL     1      45.345   4.334   8.763  0.00  0.00    +0.000 NA
ATOM      7  C   UNL     1      46.151   3.953   7.744  0.00  0.00    +0.000 A 
ATOM      8  H   UNL     1      43.767   2.774  11.038  0.00  0.00    +0.000 HD
ENDROOT
BRANCH   1  10
ATOM      9  N   UNL     1      47.317   3.155   5.267  0.00  0.00    +0.000 N 
ATOM     10  C   UNL     1      47.320   2.293   6.331  0.00  0.00    +0.000 C 
ATOM     11  O   UNL     1      48.028   1.298   6.339  0.00  0.00    +0.000 OA
ATOM     12  H   UNL     1      47.994   2.959   4.539  0.00  0.00    +0.000 HD
ATOM     13  H   UNL     1      46.971   4.102   5.324  0.00  0.00    +0.000 HD
ENDBRANCH   1  10
BRANCH   5  14
ATOM     14  C   UNL     1      43.908   4.884  11.309  0.00  0.00    +0.000 C 
ATOM     15  C   UNL     1      42.605   5.175  12.045  0.00  0.00    +0.000 C 
ATOM     16  C   UNL     1      43.060   6.092  10.960  0.00  0.00    +0.000 C 
BRANCH  14  17
ATOM     17  C   UNL     1      45.223   5.114  12.040  0.00  0.00    +0.000 A 
ATOM     18  C   UNL     1      46.036   6.227  11.781  0.00  0.00    +0.000 A 
ATOM     19  C   UNL     1      47.199   6.451  12.518  0.00  0.00    +0.000 A 
ATOM     20  C   UNL     1      47.528   5.547  13.511  0.00  0.00    +0.000 A 
ATOM     21  N   UNL     1      46.793   4.451  13.794  0.00  0.00    +0.000 NA
ATOM     22  C   UNL     1      45.668   4.267  13.058  0.00  0.00    +0.000 A 
ENDBRANCH  14  17
ENDBRANCH   5  14
TORSDOF 3
ENDMDL
MODEL 2
REMARK VINA RESULT:    -6.301      2.949      6.208
REMARK INTER + INTRA:          -7.754
REMARK INTER:                  -8.442
REMARK INTRA:                   0.688
REMARK UNBOUND:                -0.348
REMARK  Name = 
REMARK  3 active torsions:
REMARK  status: ('A' for Active; 'I' for Inactive)
REMARK    1  A    between atoms: C_2  and  C_4
REMARK    2  A    between atoms: N_8  and  C_9
REMARK    3  A    between atoms: C_9  and  C_10
REMARK                            x       y       z     vdW  Elec       q    Type
REMARK                         _______ _______ _______ _____ _____    ______ ____
ROOT
ATOM      1  C   UNL     1      47.764   5.949  14.405  0.00  0.00    +0.000 A 
ATOM      2  C   UNL     1      47.355   4.804  15.038  0.00  0.00    +0.000 A 
ATOM      3  N   UNL     1      46.616   3.841  14.441  0.00  0.00    +0.000 NA
ATOM      4  C   UNL     1      46.235   4.061  13.170  0.00  0.00    +0.000 A 
ATOM      5  N   UNL     1      45.584   2.990  12.553  0.00  0.00    +0.000 N 
ATOM      6  N   UNL     1      46.527   5.181  12.491  0.00  0.00    +0.000 NA
ATOM      7  C   UNL     1      47.293   6.102  13.122  0.00  0.00    +0.000 A 
ATOM      8  H   UNL     1      45.389   2.324  13.294  0.00  0.00    +0.000 HD
ENDROOT
BRANCH   1  10
ATOM      9  N   UNL     1      48.059   8.093  15.504  0.00  0.00    +0.000 N 
ATOM     10  C   UNL     1      48.643   6.959  15.009  0.00  0.00    +0.000 C 
ATOM     11  O   UNL     1      49.846   6.767  15.114  0.00  0.00    +0.000 OA
ATOM     12  H   UNL     1      48.666   8.710  16.030  0.00  0.00    +0.000 HD
ATOM     13  H   UNL     1      47.067   8.171  15.682  0.00  0.00    +0.000 HD
ENDBRANCH   1  10
BRANCH   5  14
ATOM     14  C   UNL     1      44.533   3.188  11.543  0.00  0.00    +0.000 C 
ATOM     15  C   UNL     1      43.414   4.127  11.982  0.00  0.00    +0.000 C 
ATOM     16  C   UNL     1      43.112   2.689  11.722  0.00  0.00    +0.000 C 
BRANCH  14  17
ATOM     17  C   UNL     1      45.077   3.319  10.128  0.00  0.00    +0.000 A 
ATOM     18  C   UNL     1      45.341   2.201   9.323  0.00  0.00    +0.000 A 
ATOM     19  C   UNL     1      45.769   2.353   8.005  0.00  0.00    +0.000 A 
ATOM     20  C   UNL     1      45.928   3.635   7.513  0.00  0.00    +0.000 A 
ATOM     21  N   UNL     1      45.706   4.746   8.245  0.00  0.00    +0.000 NA
ATOM     22  C   UNL     1      45.288   4.560   9.522  0.00  0.00    +0.000 A 
ENDBRANCH  14  17
ENDBRANCH   5  14
TORSDOF 3
ENDMDL
MODEL 3
REMARK VINA RESULT:    -6.260      3.065      6.178
REMARK INTER + INTRA:          -7.706
REMARK INTER:                  -7.512
REMARK INTRA:                  -0.194
REMARK UNBOUND:                -0.348
REMARK  Name = 
REMARK  3 active torsions:
REMARK  status: ('A' for Active; 'I' for Inactive)
REMARK    1  A    between atoms: C_2  and  C_4
REMARK    2  A    between atoms: N_8  and  C_9
REMARK    3  A    between atoms: C_9  and  C_10
REMARK                            x       y       z     vdW  Elec       q    Type
REMARK                         _______ _______ _______ _____ _____    ______ ____
ROOT
ATOM      1  C   UNL     1      48.274   6.759  13.700  0.00  0.00    +0.000 A 
ATOM      2  C   UNL     1      47.955   7.487  12.584  0.00  0.00    +0.000 A 
ATOM      3  N   UNL     1      46.855   7.259  11.831  0.00  0.00    +0.000 NA
ATOM      4  C   UNL     1      46.069   6.228  12.190  0.00  0.00    +0.000 A 
ATOM      5  N   UNL     1      44.882   6.107  11.464  0.00  0.00    +0.000 N 
ATOM      6  N   UNL     1      46.337   5.417  13.225  0.00  0.00    +0.000 NA
ATOM      7  C   UNL     1      47.433   5.704  13.965  0.00  0.00    +0.000 A 
ATOM      8  H   UNL     1      44.970   6.752  10.685  0.00  0.00    +0.000 HD
ENDROOT
BRANCH   1  10
ATOM      9  N   UNL     1      50.100   8.216  14.363  0.00  0.00    +0.000 N 
ATOM     10  C   UNL     1      49.413   7.053  14.582  0.00  0.00    +0.000 C 
ATOM     11  O   UNL     1      49.700   6.311  15.510  0.00  0.00    +0.000 OA
ATOM     12  H   UNL     1      50.793   8.458  15.061  0.00  0.00    +0.000 HD
ATOM     13  H   UNL     1      49.740   8.972  13.798  0.00  0.00    +0.000 HD
ENDBRANCH   1  10
BRANCH   5  14
ATOM     14  C   UNL     1      44.266   4.801  11.180  0.00  0.00    +0.000 C 
ATOM     15  C   UNL     1      42.745   4.789  11.298  0.00  0.00    +0.000 C 
ATOM     16  C   UNL     1      43.566   3.971  12.239  0.00  0.00    +0.000 C 
BRANCH  14  17
ATOM     17  C   UNL     1      44.909   4.078  10.006  0.00  0.00    +0.000 A 
ATOM     18  C   UNL     1      44.869   2.681   9.877  0.00  0.00    +0.000 A 
ATOM     19  C   UNL     1      45.402   2.050   8.753  0.00  0.00    +0.000 A 
ATOM     20  C   UNL     1      45.971   2.838   7.770  0.00  0.00    +0.000 A 
ATOM     21  N   UNL     1      46.052   4.182   7.847  0.00  0.00    +0.000 NA
ATOM     22  C   UNL     1      45.521   4.762   8.952  0.00  0.00    +0.000 A 
ENDBRANCH  14  17
ENDBRANCH   5  14
TORSDOF 3
ENDMDL
MODEL 4
REMARK VINA RESULT:    -5.617      4.571      7.479
REMARK INTER + INTRA:          -6.950
REMARK INTER:                  -7.349
REMARK INTRA:                   0.399
REMARK UNBOUND:                -0.348
REMARK  Name = 
REMARK  3 active torsions:
REMARK  status: ('A' for Active; 'I' for Inactive)
REMARK    1  A    between atoms: C_2  and  C_4
REMARK    2  A    between atoms: N_8  and  C_9
REMARK    3  A    between atoms: C_9  and  C_10
REMARK                            x       y       z     vdW  Elec       q    Type
REMARK                         _______ _______ _______ _____ _____    ______ ____
ROOT
ATOM      1  C   UNL     1      48.464   4.135  17.197  0.00  0.00    +0.000 A 
ATOM      2  C   UNL     1      47.925   3.123  16.446  0.00  0.00    +0.000 A 
ATOM      3  N   UNL     1      47.486   3.285  15.177  0.00  0.00    +0.000 NA
ATOM      4  C   UNL     1      47.551   4.525  14.659  0.00  0.00    +0.000 A 
ATOM      5  N   UNL     1      47.207   4.621  13.308  0.00  0.00    +0.000 N 
ATOM      6  N   UNL     1      47.998   5.590  15.341  0.00  0.00    +0.000 NA
ATOM      7  C   UNL     1      48.453   5.372  16.597  0.00  0.00    +0.000 A 
ATOM      8  H   UNL     1      46.806   3.722  13.063  0.00  0.00    +0.000 HD
ENDROOT
BRANCH   1  10
ATOM      9  N   UNL     1      48.337   3.170  19.421  0.00  0.00    +0.000 N 
ATOM     10  C   UNL     1      49.030   3.956  18.541  0.00  0.00    +0.000 C 
ATOM     11  O   UNL     1      50.108   4.447  18.842  0.00  0.00    +0.000 OA
ATOM     12  H   UNL     1      48.810   2.957  20.291  0.00  0.00    +0.000 HD
ATOM     13  H   UNL     1      47.601   2.539  19.137  0.00  0.00    +0.000 HD
ENDBRANCH   1  10
BRANCH   5  14
ATOM     14  C   UNL     1      46.554   5.815  12.749  0.00  0.00    +0.000 C 
ATOM     15  C   UNL     1      47.476   6.696  11.912  0.00  0.00    +0.000 C 
ATOM     16  C   UNL     1      46.902   7.226  13.184  0.00  0.00    +0.000 C 
BRANCH  14  17
ATOM     17  C   UNL     1      45.146   5.546  12.239  0.00  0.00    +0.000 A 
ATOM     18  C   UNL     1      44.900   5.083  10.937  0.00  0.00    +0.000 A 
ATOM     19  C   UNL     1      43.605   4.774  10.521  0.00  0.00    +0.000 A 
ATOM     20  C   UNL     1      42.572   4.936  11.424  0.00  0.00    +0.000 A 
ATOM     21  N   UNL     1      42.746   5.392  12.682  0.00  0.00    +0.000 NA
ATOM     22  C   UNL     1      44.019   5.681  13.053  0.00  0.00    +0.000 A 
ENDBRANCH  14  17
ENDBRANCH   5  14
TORSDOF 3
ENDMDL
MODEL 5
REMARK VINA RESULT:    -5.377      4.766      7.633
REMARK INTER + INTRA:          -6.668
REMARK INTER:                  -6.542
REMARK INTRA:                  -0.126
REMARK UNBOUND:                -0.348
REMARK  Name = 
REMARK  3 active torsions:
REMARK  status: ('A' for Active; 'I' for Inactive)
REMARK    1  A    between atoms: C_2  and  C_4
REMARK    2  A    between atoms: N_8  and  C_9
REMARK    3  A    between atoms: C_9  and  C_10
REMARK                            x       y       z     vdW  Elec       q    Type
REMARK                         _______ _______ _______ _____ _____    ______ ____
ROOT
ATOM      1  C   UNL     1      47.189   5.580  13.447  0.00  0.00    +0.000 A 
ATOM      2  C   UNL     1      46.747   4.375  13.927  0.00  0.00    +0.000 A 
ATOM      3  N   UNL     1      46.997   3.931  15.179  0.00  0.00    +0.000 NA
ATOM      4  C   UNL     1      47.759   4.711  15.966  0.00  0.00    +0.000 A 
ATOM      5  N   UNL     1      47.884   4.276  17.288  0.00  0.00    +0.000 N 
ATOM      6  N   UNL     1      48.293   5.874  15.563  0.00  0.00    +0.000 NA
ATOM      7  C   UNL     1      47.991   6.290  14.311  0.00  0.00    +0.000 A 
ATOM      8  H   UNL     1      47.494   3.340  17.307  0.00  0.00    +0.000 HD
ENDROOT
BRANCH   1  10
ATOM      9  N   UNL     1      47.600   7.162  11.652  0.00  0.00    +0.000 N 
ATOM     10  C   UNL     1      46.849   6.119  12.123  0.00  0.00    +0.000 C 
ATOM     11  O   UNL     1      45.966   5.616  11.444  0.00  0.00    +0.000 OA
ATOM     12  H   UNL     1      47.433   7.427  10.689  0.00  0.00    +0.000 HD
ATOM     13  H   UNL     1      48.492   7.424  12.049  0.00  0.00    +0.000 HD
ENDBRANCH   1  10
BRANCH   5  14
ATOM     14  C   UNL     1      49.107   4.503  18.075  0.00  0.00    +0.000 C 
ATOM     15  C   UNL     1      48.851   4.932  19.516  0.00  0.00    +0.000 C 
ATOM     16  C   UNL     1      49.524   5.873  18.574  0.00  0.00    +0.000 C 
BRANCH  14  17
ATOM     17  C   UNL     1      50.194   3.473  17.805  0.00  0.00    +0.000 A 
ATOM     18  C   UNL     1      51.538   3.703  18.133  0.00  0.00    +0.000 A 
ATOM     19  C   UNL     1      52.501   2.712  17.943  0.00  0.00    +0.000 A 
ATOM     20  C   UNL     1      52.095   1.498  17.422  0.00  0.00    +0.000 A 
ATOM     21  N   UNL     1      50.820   1.226  17.073  0.00  0.00    +0.000 NA
ATOM     22  C   UNL     1      49.911   2.212  17.275  0.00  0.00    +0.000 A 
ENDBRANCH  14  17
ENDBRANCH   5  14
TORSDOF 3
ENDMDL
MODEL 6
REMARK VINA RESULT:    -5.372      3.340      4.742
REMARK INTER + INTRA:          -6.662
REMARK INTER:                  -6.285
REMARK INTRA:                  -0.378
REMARK UNBOUND:                -0.348
REMARK  Name = 
REMARK  3 active torsions:
REMARK  status: ('A' for Active; 'I' for Inactive)
REMARK    1  A    between atoms: C_2  and  C_4
REMARK    2  A    between atoms: N_8  and  C_9
REMARK    3  A    between atoms: C_9  and  C_10
REMARK                            x       y       z     vdW  Elec       q    Type
REMARK                         _______ _______ _______ _____ _____    ______ ____
ROOT
ATOM      1  C   UNL     1      44.148   4.118  11.531  0.00  0.00    +0.000 A 
ATOM      2  C   UNL     1      43.937   4.560  12.810  0.00  0.00    +0.000 A 
ATOM      3  N   UNL     1      44.189   5.826  13.216  0.00  0.00    +0.000 NA
ATOM      4  C   UNL     1      44.717   6.667  12.308  0.00  0.00    +0.000 A 
ATOM      5  N   UNL     1      44.842   7.992  12.732  0.00  0.00    +0.000 N 
ATOM      6  N   UNL     1      45.023   6.306  11.053  0.00  0.00    +0.000 NA
ATOM      7  C   UNL     1      44.725   5.037  10.686  0.00  0.00    +0.000 A 
ATOM      8  H   UNL     1      44.655   7.980  13.729  0.00  0.00    +0.000 HD
ENDROOT
BRANCH   1  10
ATOM      9  N   UNL     1      44.534   2.253  10.024  0.00  0.00    +0.000 N 
ATOM     10  C   UNL     1      43.794   2.775  11.050  0.00  0.00    +0.000 C 
ATOM     11  O   UNL     1      42.906   2.127  11.585  0.00  0.00    +0.000 OA
ATOM     12  H   UNL     1      44.357   1.281   9.801  0.00  0.00    +0.000 HD
ATOM     13  H   UNL     1      45.428   2.630   9.742  0.00  0.00    +0.000 HD
ENDBRANCH   1  10
BRANCH   5  14
ATOM     14  C   UNL     1      45.934   8.863  12.270  0.00  0.00    +0.000 C 
ATOM     15  C   UNL     1      45.633  10.354  12.377  0.00  0.00    +0.000 C 
ATOM     16  C   UNL     1      45.829   9.734  11.034  0.00  0.00    +0.000 C 
BRANCH  14  17
ATOM     17  C   UNL     1      47.312   8.369  12.688  0.00  0.00    +0.000 A 
ATOM     18  C   UNL     1      48.292   8.009  11.751  0.00  0.00    +0.000 A 
ATOM     19  C   UNL     1      49.570   7.631  12.162  0.00  0.00    +0.000 A 
ATOM     20  C   UNL     1      49.845   7.619  13.516  0.00  0.00    +0.000 A 
ATOM     21  N   UNL     1      48.938   7.939  14.463  0.00  0.00    +0.000 NA
ATOM     22  C   UNL     1      47.707   8.304  14.027  0.00  0.00    +0.000 A 
ENDBRANCH  14  17
ENDBRANCH   5  14
TORSDOF 3
ENDMDL
MODEL 7
REMARK VINA RESULT:    -5.341      3.049      5.152
REMARK INTER + INTRA:          -6.626
REMARK INTER:                  -6.861
REMARK INTRA:                   0.236
REMARK UNBOUND:                -0.348
REMARK  Name = 
REMARK  3 active torsions:
REMARK  status: ('A' for Active; 'I' for Inactive)
REMARK    1  A    between atoms: C_2  and  C_4
REMARK    2  A    between atoms: N_8  and  C_9
REMARK    3  A    between atoms: C_9  and  C_10
REMARK                            x       y       z     vdW  Elec       q    Type
REMARK                         _______ _______ _______ _____ _____    ______ ____
ROOT
ATOM      1  C   UNL     1      44.804   4.899  11.067  0.00  0.00    +0.000 A 
ATOM      2  C   UNL     1      44.594   4.958  12.420  0.00  0.00    +0.000 A 
ATOM      3  N   UNL     1      45.214   5.840  13.236  0.00  0.00    +0.000 NA
ATOM      4  C   UNL     1      46.115   6.666  12.674  0.00  0.00    +0.000 A 
ATOM      5  N   UNL     1      46.636   7.642  13.527  0.00  0.00    +0.000 N 
ATOM      6  N   UNL     1      46.438   6.636  11.372  0.00  0.00    +0.000 NA
ATOM      7  C   UNL     1      45.769   5.755  10.591  0.00  0.00    +0.000 A 
ATOM      8  H   UNL     1      46.328   7.385  14.459  0.00  0.00    +0.000 HD
ENDROOT
BRANCH   1  10
ATOM      9  N   UNL     1      44.080   4.325   8.821  0.00  0.00    +0.000 N 
ATOM     10  C   UNL     1      44.071   4.011  10.153  0.00  0.00    +0.000 C 
ATOM     11  O   UNL     1      43.521   2.999  10.563  0.00  0.00    +0.000 OA
ATOM     12  H   UNL     1      43.682   3.631   8.201  0.00  0.00    +0.000 HD
ATOM     13  H   UNL     1      44.732   4.980   8.413  0.00  0.00    +0.000 HD
ENDBRANCH   1  10
BRANCH   5  14
ATOM     14  C   UNL     1      48.013   8.143  13.396  0.00  0.00    +0.000 C 
ATOM     15  C   UNL     1      48.110   9.645  13.145  0.00  0.00    +0.000 C 
ATOM     16  C   UNL     1      48.573   8.689  12.096  0.00  0.00    +0.000 C 
BRANCH  14  17
ATOM     17  C   UNL     1      48.979   7.509  14.386  0.00  0.00    +0.000 A 
ATOM     18  C   UNL     1      50.320   7.908  14.481  0.00  0.00    +0.000 A 
ATOM     19  C   UNL     1      51.163   7.361  15.448  0.00  0.00    +0.000 A 
ATOM     20  C   UNL     1      50.642   6.415  16.309  0.00  0.00    +0.000 A 
ATOM     21  N   UNL     1      49.366   5.980  16.255  0.00  0.00    +0.000 NA
ATOM     22  C   UNL     1      48.574   6.536  15.304  0.00  0.00    +0.000 A 
ENDBRANCH  14  17
ENDBRANCH   5  14
TORSDOF 3
ENDMDL
MODEL 8
REMARK VINA RESULT:    -5.240      5.707      7.454
REMARK INTER + INTRA:          -6.507
REMARK INTER:                  -6.126
REMARK INTRA:                  -0.381
REMARK UNBOUND:                -0.348
REMARK  Name = 
REMARK  3 active torsions:
REMARK  status: ('A' for Active; 'I' for Inactive)
REMARK    1  A    between atoms: C_2  and  C_4
REMARK    2  A    between atoms: N_8  and  C_9
REMARK    3  A    between atoms: C_9  and  C_10
REMARK                            x       y       z     vdW  Elec       q    Type
REMARK                         _______ _______ _______ _____ _____    ______ ____
ROOT
ATOM      1  C   UNL     1      49.441   7.311  12.979  0.00  0.00    +0.000 A 
ATOM      2  C   UNL     1      48.437   6.395  12.804  0.00  0.00    +0.000 A 
ATOM      3  N   UNL     1      47.816   5.760  13.824  0.00  0.00    +0.000 NA
ATOM      4  C   UNL     1      48.255   6.025  15.068  0.00  0.00    +0.000 A 
ATOM      5  N   UNL     1      47.504   5.447  16.095  0.00  0.00    +0.000 N 
ATOM      6  N   UNL     1      49.276   6.853  15.333  0.00  0.00    +0.000 NA
ATOM      7  C   UNL     1      49.846   7.486  14.281  0.00  0.00    +0.000 A 
ATOM      8  H   UNL     1      46.875   4.794  15.641  0.00  0.00    +0.000 HD
ENDROOT
BRANCH   1  10
ATOM      9  N   UNL     1      50.950   7.421  11.080  0.00  0.00    +0.000 N 
ATOM     10  C   UNL     1      50.062   8.077  11.889  0.00  0.00    +0.000 C 
ATOM     11  O   UNL     1      49.753   9.241  11.680  0.00  0.00    +0.000 OA
ATOM     12  H   UNL     1      51.261   7.931  10.262  0.00  0.00    +0.000 HD
ATOM     13  H   UNL     1      51.026   6.414  11.045  0.00  0.00    +0.000 HD
ENDBRANCH   1  10
BRANCH   5  14
ATOM     14  C   UNL     1      48.114   5.014  17.362  0.00  0.00    +0.000 C 
ATOM     15  C   UNL     1      47.147   4.975  18.540  0.00  0.00    +0.000 C 
ATOM     16  C   UNL     1      48.288   5.936  18.553  0.00  0.00    +0.000 C 
BRANCH  14  17
ATOM     17  C   UNL     1      49.097   3.864  17.192  0.00  0.00    +0.000 A 
ATOM     18  C   UNL     1      50.375   3.883  17.771  0.00  0.00    +0.000 A 
ATOM     19  C   UNL     1      51.227   2.784  17.660  0.00  0.00    +0.000 A 
ATOM     20  C   UNL     1      50.779   1.678  16.964  0.00  0.00    +0.000 A 
ATOM     21  N   UNL     1      49.568   1.609  16.373  0.00  0.00    +0.000 NA
ATOM     22  C   UNL     1      48.766   2.695  16.503  0.00  0.00    +0.000 A 
ENDBRANCH  14  17
ENDBRANCH   5  14
TORSDOF 3
ENDMDL
MODEL 9
REMARK VINA RESULT:    -4.947      4.362      7.345
REMARK INTER + INTRA:          -6.162
REMARK INTER:                  -5.806
REMARK INTRA:                  -0.356
REMARK UNBOUND:                -0.348
REMARK  Name = 
REMARK  3 active torsions:
REMARK  status: ('A' for Active; 'I' for Inactive)
REMARK    1  A    between atoms: C_2  and  C_4
REMARK    2  A    between atoms: N_8  and  C_9
REMARK    3  A    between atoms: C_9  and  C_10
REMARK                            x       y       z     vdW  Elec       q    Type
REMARK                         _______ _______ _______ _____ _____    ______ ____
ROOT
ATOM      1  C   UNL     1      46.192   4.995  13.229  0.00  0.00    +0.000 A 
ATOM      2  C   UNL     1      46.530   6.292  12.941  0.00  0.00    +0.000 A 
ATOM      3  N   UNL     1      47.541   6.954  13.547  0.00  0.00    +0.000 NA
ATOM      4  C   UNL     1      48.210   6.300  14.514  0.00  0.00    +0.000 A 
ATOM      5  N   UNL     1      49.324   6.973  15.023  0.00  0.00    +0.000 N 
ATOM      6  N   UNL     1      47.908   5.055  14.913  0.00  0.00    +0.000 NA
ATOM      7  C   UNL     1      46.906   4.424  14.256  0.00  0.00    +0.000 A 
ATOM      8  H   UNL     1      49.270   7.915  14.649  0.00  0.00    +0.000 HD
ENDROOT
BRANCH   1  10
ATOM      9  N   UNL     1      45.226   2.866  12.576  0.00  0.00    +0.000 N 
ATOM     10  C   UNL     1      45.158   4.232  12.516  0.00  0.00    +0.000 C 
ATOM     11  O   UNL     1      44.242   4.797  11.938  0.00  0.00    +0.000 OA
ATOM     12  H   UNL     1      44.433   2.367  12.190  0.00  0.00    +0.000 HD
ATOM     13  H   UNL     1      45.791   2.370  13.251  0.00  0.00    +0.000 HD
ENDBRANCH   1  10
BRANCH   5  14
ATOM     14  C   UNL     1      49.749   6.837  16.425  0.00  0.00    +0.000 C 
ATOM     15  C   UNL     1      51.256   6.937  16.634  0.00  0.00    +0.000 C 
ATOM     16  C   UNL     1      50.553   5.656  16.933  0.00  0.00    +0.000 C 
BRANCH  14  17
ATOM     17  C   UNL     1      48.831   7.557  17.402  0.00  0.00    +0.000 A 
ATOM     18  C   UNL     1      48.352   6.942  18.569  0.00  0.00    +0.000 A 
ATOM     19  C   UNL     1      47.573   7.650  19.483  0.00  0.00    +0.000 A 
ATOM     20  C   UNL     1      47.284   8.973  19.209  0.00  0.00    +0.000 A 
ATOM     21  N   UNL     1      47.702   9.612  18.096  0.00  0.00    +0.000 NA
ATOM     22  C   UNL     1      48.460   8.893  17.231  0.00  0.00    +0.000 A 
ENDBRANCH  14  17
ENDBRANCH   5  14
TORSDOF 3
ENDMDL
