MODEL 1
REMARK VINA RESULT:    -7.593      0.000      0.000
REMARK INTER + INTRA:         -11.243
REMARK INTER:                 -10.256
REMARK INTRA:                  -0.986
REMARK UNBOUND:                -0.986
REMARK  Name = 
REMARK  6 active torsions:
REMARK  status: ('A' for Active; 'I' for Inactive)
REMARK    1  A    between atoms: C_2  and  C_3
REMARK    2  A    between atoms: N_10  and  C_11
REMARK    3  A    between atoms: C_11  and  C_12
REMARK    4  A    between atoms: C_15  and  C_16
REMARK    5  A    between atoms: C_16  and  N_17
REMARK    6  A    between atoms: C_18  and  C_20
REMARK                            x       y       z     vdW  Elec       q    Type
REMARK                         _______ _______ _______ _____ _____    ______ ____
ROOT
ATOM      1  C   UNL     1      49.705   6.547  16.463  0.00  0.00    +0.000 A 
ATOM      2  C   UNL     1      50.359   7.579  15.788  0.00  0.00    +0.000 A 
ATOM      3  C   UNL     1      49.925   7.949  14.514  0.00  0.00    +0.000 A 
ATOM      4  C   UNL     1      48.839   7.294  13.932  0.00  0.00    +0.000 A 
ATOM      5  C   UNL     1      48.261   6.264  14.666  0.00  0.00    +0.000 A 
ATOM      6  N   UNL     1      48.654   5.888  15.912  0.00  0.00    +0.000 NA
ENDROOT
BRANCH   1   7
ATOM      7  C   UNL     1      50.160   6.115  17.845  0.00  0.00    +0.000 C 
BRANCH   7  15
ATOM      8  C   UNL     1      51.608   1.924  17.477  0.00  0.00    +0.000 A 
ATOM      9  C   UNL     1      52.404   0.865  17.874  0.00  0.00    +0.000 A 
ATOM     10  C   UNL     1      53.579   1.398  18.449  0.00  0.00    +0.000 A 
ATOM     11  C   UNL     1      53.485   2.765  18.353  0.00  0.00    +0.000 A 
ATOM     12  N   UNL     1      52.267   3.105  17.783  0.00  0.00    +0.000 N 
ATOM     13  C   UNL     1      51.893   4.432  17.496  0.00  0.00    +0.000 C 
ATOM     14  O   UNL     1      52.717   5.195  17.018  0.00  0.00    +0.000 OA
ATOM     15  N   UNL     1      50.620   4.736  17.916  0.00  0.00    +0.000 N 
ATOM     16  H   UNL     1      50.140   4.133  18.572  0.00  0.00    +0.000 HD
BRANCH   8  18
ATOM     17  N   UNL     1      49.397   1.766  16.151  0.00  0.00    +0.000 NA
ATOM     18  C   UNL     1      50.386   1.830  16.755  0.00  0.00    +0.000 C 
ENDBRANCH   8  18
ENDBRANCH   7  15
ENDBRANCH   1   7
BRANCH   4  19
ATOM     19  C   UNL     1      48.327   7.662  12.569  0.00  0.00    +0.000 C 
BRANCH  19  20
ATOM     20  N   UNL     1      47.543   6.601  11.987  0.00  0.00    +0.000 N 
ATOM     21  C   UNL     1      46.252   6.825  11.568  0.00  0.00    +0.000 C 
ATOM     22  O   UNL     1      45.669   7.878  11.791  0.00  0.00    +0.000 OA
ATOM     23  H   UNL     1      48.052   5.811  11.602  0.00  0.00    +0.000 HD
BRANCH  21  24
ATOM     24  C   UNL     1      45.597   5.722  10.851  0.00  0.00    +0.000 A 
ATOM     25  C   UNL     1      45.841   5.528   9.499  0.00  0.00    +0.000 A 
ATOM     26  S   UNL     1      45.039   4.168   8.849  0.00  0.00    +0.000 S 
ATOM     27  C   UNL     1      44.422   3.737  10.376  0.00  0.00    +0.000 A 
ATOM     28  N   UNL     1      43.743   2.572  10.556  0.00  0.00    +0.000 NA
ATOM     29  C   UNL     1      43.341   2.373  11.767  0.00  0.00    +0.000 A 
ATOM     30  N   UNL     1      43.515   3.254  12.803  0.00  0.00    +0.000 N 
ATOM     31  C   UNL     1      44.176   4.449  12.662  0.00  0.00    +0.000 A 
ATOM     32  O   UNL     1      44.270   5.243  13.594  0.00  0.00    +0.000 OA
ATOM     33  C   UNL     1      44.717   4.685  11.338  0.00  0.00    +0.000 A 
ATOM     34  H   UNL     1      43.130   3.061  13.716  0.00  0.00    +0.000 HD
ENDBRANCH  21  24
ENDBRANCH  19  20
ENDBRANCH   4  19
TORSDOF 6
ENDMDL
MODEL 2
REMARK VINA RESULT:    -7.190      3.071      9.338
REMARK INTER + INTRA:         -10.697
REMARK INTER:                  -9.943
REMARK INTRA:                  -0.755
REMARK UNBOUND:                -0.986
REMARK  Name = 
REMARK  6 active torsions:
REMARK  status: ('A' for Active; 'I' for Inactive)
REMARK    1  A    between atoms: C_2  and  C_3
REMARK    2  A    between atoms: N_10  and  C_11
REMARK    3  A    between atoms: C_11  and  C_12
REMARK    4  A    between atoms: C_15  and  C_16
REMARK    5  A    between atoms: C_16  and  N_17
REMARK    6  A    between atoms: C_18  and  C_20
REMARK                            x       y       z     vdW  Elec       q    Type
REMARK                         _______ _______ _______ _____ _____    ______ ____
ROOT
ATOM      1  C   UNL     1      47.475   5.413  14.697  0.00  0.00    +0.000 A 
ATOM      2  C   UNL     1      48.355   6.033  15.586  0.00  0.00    +0.000 A 
ATOM      3  C   UNL     1      48.700   5.385  16.773  0.00  0.00    +0.000 A 
ATOM      4  C   UNL     1      48.176   4.123  17.055  0.00  0.00    +0.000 A 
ATOM      5  C   UNL     1      47.290   3.590  16.124  0.00  0.00    +0.000 A 
ATOM      6  N   UNL     1      46.943   4.192  14.956  0.00  0.00    +0.000 NA
ENDROOT
BRANCH   1   7
ATOM      7  C   UNL     1      47.071   6.098  13.404  0.00  0.00    +0.000 C 
BRANCH   7  15
ATOM      8  C   UNL     1      44.641   3.640  10.603  0.00  0.00    +0.000 A 
ATOM      9  C   UNL     1      44.408   3.062   9.368  0.00  0.00    +0.000 A 
ATOM     10  C   UNL     1      45.028   3.867   8.388  0.00  0.00    +0.000 A 
ATOM     11  C   UNL     1      45.589   4.935   9.046  0.00  0.00    +0.000 A 
ATOM     12  N   UNL     1      45.383   4.795  10.411  0.00  0.00    +0.000 N 
ATOM     13  C   UNL     1      45.788   5.759  11.355  0.00  0.00    +0.000 C 
ATOM     14  O   UNL     1      45.630   6.942  11.106  0.00  0.00    +0.000 OA
ATOM     15  N   UNL     1      46.442   5.213  12.434  0.00  0.00    +0.000 N 
ATOM     16  H   UNL     1      46.793   4.264  12.395  0.00  0.00    +0.000 HD
BRANCH   8  18
ATOM     17  N   UNL     1      43.677   2.852  12.866  0.00  0.00    +0.000 NA
ATOM     18  C   UNL     1      44.099   3.209  11.846  0.00  0.00    +0.000 C 
ENDBRANCH   8  18
ENDBRANCH   7  15
ENDBRANCH   1   7
BRANCH   4  19
ATOM     19  C   UNL     1      48.526   3.380  18.312  0.00  0.00    +0.000 C 
BRANCH  19  20
ATOM     20  N   UNL     1      49.941   3.118  18.402  0.00  0.00    +0.000 N 
ATOM     21  C   UNL     1      50.576   2.338  17.463  0.00  0.00    +0.000 C 
ATOM     22  O   UNL     1      49.959   1.726  16.600  0.00  0.00    +0.000 OA
ATOM     23  H   UNL     1      50.495   3.764  18.955  0.00  0.00    +0.000 HD
BRANCH  21  24
ATOM     24  C   UNL     1      52.040   2.260  17.559  0.00  0.00    +0.000 A 
ATOM     25  C   UNL     1      52.675   1.026  17.545  0.00  0.00    +0.000 A 
ATOM     26  S   UNL     1      54.377   1.134  17.609  0.00  0.00    +0.000 S 
ATOM     27  C   UNL     1      54.324   2.834  17.555  0.00  0.00    +0.000 A 
ATOM     28  N   UNL     1      55.463   3.570  17.446  0.00  0.00    +0.000 NA
ATOM     29  C   UNL     1      55.270   4.846  17.408  0.00  0.00    +0.000 A 
ATOM     30  N   UNL     1      54.046   5.455  17.516  0.00  0.00    +0.000 N 
ATOM     31  C   UNL     1      52.873   4.753  17.649  0.00  0.00    +0.000 A 
ATOM     32  O   UNL     1      51.798   5.326  17.798  0.00  0.00    +0.000 OA
ATOM     33  C   UNL     1      53.028   3.312  17.617  0.00  0.00    +0.000 A 
ATOM     34  H   UNL     1      53.969   6.461  17.532  0.00  0.00    +0.000 HD
ENDBRANCH  21  24
ENDBRANCH  19  20
ENDBRANCH   4  19
TORSDOF 6
ENDMDL
MODEL 3
REMARK VINA RESULT:    -7.042      3.055      8.470
REMARK INTER + INTRA:         -10.499
REMARK INTER:                  -9.419
REMARK INTRA:                  -1.080
REMARK UNBOUND:                -0.986
REMARK  Name = 
REMARK  6 active torsions:
REMARK  status: ('A' for Active; 'I' for Inactive)
REMARK    1  A    between atoms: C_2  and  C_3
REMARK    2  A    between atoms: N_10  and  C_11
REMARK    3  A    between atoms: C_11  and  C_12
REMARK    4  A    between atoms: C_15  and  C_16
REMARK    5  A    between atoms: C_16  and  N_17
REMARK    6  A    between atoms: C_18  and  C_20
REMARK                            x       y       z     vdW  Elec       q    Type
REMARK                         _______ _______ _______ _____ _____    ______ ____
ROOT
ATOM      1  C   UNL     1      48.418   7.801  13.629  0.00  0.00    +0.000 A 
ATOM      2  C   UNL     1      47.924   8.798  14.472  0.00  0.00    +0.000 A 
ATOM      3  C   UNL     1      48.451   8.932  15.758  0.00  0.00    +0.000 A 
ATOM      4  C   UNL     1      49.469   8.079  16.185  0.00  0.00    +0.000 A 
ATOM      5  C   UNL     1      49.885   7.101  15.288  0.00  0.00    +0.000 A 
ATOM      6  N   UNL     1      49.400   6.953  14.027  0.00  0.00    +0.000 NA
ENDROOT
BRANCH   1   7
ATOM      7  C   UNL     1      47.858   7.624  12.229  0.00  0.00    +0.000 C 
BRANCH   7  15
ATOM      8  C   UNL     1      45.271   4.004  12.283  0.00  0.00    +0.000 A 
ATOM      9  C   UNL     1      44.278   3.202  11.752  0.00  0.00    +0.000 A 
ATOM     10  C   UNL     1      43.390   4.031  11.032  0.00  0.00    +0.000 A 
ATOM     11  C   UNL     1      43.844   5.319  11.175  0.00  0.00    +0.000 A 
ATOM     12  N   UNL     1      45.014   5.317  11.919  0.00  0.00    +0.000 N 
ATOM     13  C   UNL     1      45.696   6.493  12.289  0.00  0.00    +0.000 C 
ATOM     14  O   UNL     1      45.056   7.460  12.666  0.00  0.00    +0.000 OA
ATOM     15  N   UNL     1      47.050   6.425  12.059  0.00  0.00    +0.000 N 
ATOM     16  H   UNL     1      47.433   5.703  11.462  0.00  0.00    +0.000 HD
BRANCH   8  18
ATOM     17  N   UNL     1      47.135   3.251  13.905  0.00  0.00    +0.000 NA
ATOM     18  C   UNL     1      46.304   3.585  13.168  0.00  0.00    +0.000 C 
ENDBRANCH   8  18
ENDBRANCH   7  15
ENDBRANCH   1   7
BRANCH   4  19
ATOM     19  C   UNL     1      50.076   8.190  17.554  0.00  0.00    +0.000 C 
BRANCH  19  20
ATOM     20  N   UNL     1      51.032   7.140  17.802  0.00  0.00    +0.000 N 
ATOM     21  C   UNL     1      50.671   6.005  18.492  0.00  0.00    +0.000 C 
ATOM     22  O   UNL     1      49.581   5.893  19.037  0.00  0.00    +0.000 OA
ATOM     23  H   UNL     1      51.846   7.106  17.197  0.00  0.00    +0.000 HD
BRANCH  21  24
ATOM     24  C   UNL     1      51.674   4.933  18.556  0.00  0.00    +0.000 A 
ATOM     25  C   UNL     1      52.873   5.140  19.222  0.00  0.00    +0.000 A 
ATOM     26  S   UNL     1      53.889   3.768  19.241  0.00  0.00    +0.000 S 
ATOM     27  C   UNL     1      52.716   2.824  18.448  0.00  0.00    +0.000 A 
ATOM     28  N   UNL     1      52.896   1.488  18.265  0.00  0.00    +0.000 NA
ATOM     29  C   UNL     1      51.921   0.899  17.656  0.00  0.00    +0.000 A 
ATOM     30  N   UNL     1      50.806   1.532  17.171  0.00  0.00    +0.000 N 
ATOM     31  C   UNL     1      50.594   2.882  17.313  0.00  0.00    +0.000 A 
ATOM     32  O   UNL     1      49.613   3.431  16.822  0.00  0.00    +0.000 OA
ATOM     33  C   UNL     1      51.623   3.577  18.062  0.00  0.00    +0.000 A 
ATOM     34  H   UNL     1      50.104   1.022  16.656  0.00  0.00    +0.000 HD
ENDBRANCH  21  24
ENDBRANCH  19  20
ENDBRANCH   4  19
TORSDOF 6
ENDMDL
MODEL 4
REMARK VINA RESULT:    -7.017      3.707      8.917
REMARK INTER + INTRA:         -10.464
REMARK INTER:                  -9.545
REMARK INTRA:                  -0.919
REMARK UNBOUND:                -0.986
REMARK  Name = 
REMARK  6 active torsions:
REMARK  status: ('A' for Active; 'I' for Inactive)
REMARK    1  A    between atoms: C_2  and  C_3
REMARK    2  A    between atoms: N_10  and  C_11
REMARK    3  A    between atoms: C_11  and  C_12
REMARK    4  A    between atoms: C_15  and  C_16
REMARK    5  A    between atoms: C_16  and  N_17
REMARK    6  A    between atoms: C_18  and  C_20
REMARK                            x       y       z     vdW  Elec       q    Type
REMARK                         _______ _______ _______ _____ _____    ______ ____
ROOT
ATOM      1  C   UNL     1      45.273   4.207  11.232  0.00  0.00    +0.000 A 
ATOM      2  C   UNL     1      45.320   4.125  12.624  0.00  0.00    +0.000 A 
ATOM      3  C   UNL     1      45.791   5.214  13.360  0.00  0.00    +0.000 A 
ATOM      4  C   UNL     1      46.197   6.375  12.702  0.00  0.00    +0.000 A 
ATOM      5  C   UNL     1      46.137   6.362  11.313  0.00  0.00    +0.000 A 
ATOM      6  N   UNL     1      45.675   5.322  10.569  0.00  0.00    +0.000 NA
ENDROOT
BRANCH   1   7
ATOM      7  C   UNL     1      44.778   3.036  10.403  0.00  0.00    +0.000 C 
BRANCH   7  15
ATOM      8  C   UNL     1      46.993   1.633   6.809  0.00  0.00    +0.000 A 
ATOM      9  C   UNL     1      47.824   1.844   5.724  0.00  0.00    +0.000 A 
ATOM     10  C   UNL     1      47.662   3.184   5.307  0.00  0.00    +0.000 A 
ATOM     11  C   UNL     1      46.709   3.742   6.124  0.00  0.00    +0.000 A 
ATOM     12  N   UNL     1      46.308   2.809   7.069  0.00  0.00    +0.000 N 
ATOM     13  C   UNL     1      45.297   3.059   8.018  0.00  0.00    +0.000 C 
ATOM     14  O   UNL     1      44.287   3.649   7.673  0.00  0.00    +0.000 OA
ATOM     15  N   UNL     1      45.649   2.682   9.292  0.00  0.00    +0.000 N 
ATOM     16  H   UNL     1      46.617   2.491   9.521  0.00  0.00    +0.000 HD
BRANCH   8  18
ATOM     17  N   UNL     1      46.603  -0.631   7.989  0.00  0.00    +0.000 NA
ATOM     18  C   UNL     1      46.768   0.390   7.464  0.00  0.00    +0.000 C 
ENDBRANCH   8  18
ENDBRANCH   7  15
ENDBRANCH   1   7
BRANCH   4  19
ATOM     19  C   UNL     1      46.699   7.577  13.449  0.00  0.00    +0.000 C 
BRANCH  19  20
ATOM     20  N   UNL     1      47.402   7.205  14.652  0.00  0.00    +0.000 N 
ATOM     21  C   UNL     1      48.718   6.806  14.606  0.00  0.00    +0.000 C 
ATOM     22  O   UNL     1      49.305   6.619  13.548  0.00  0.00    +0.000 OA
ATOM     23  H   UNL     1      47.025   7.548  15.530  0.00  0.00    +0.000 HD
BRANCH  21  24
ATOM     24  C   UNL     1      49.383   6.597  15.900  0.00  0.00    +0.000 A 
ATOM     25  C   UNL     1      50.499   7.348  16.239  0.00  0.00    +0.000 A 
ATOM     26  S   UNL     1      51.102   7.009  17.799  0.00  0.00    +0.000 S 
ATOM     27  C   UNL     1      49.831   5.921  18.110  0.00  0.00    +0.000 A 
ATOM     28  N   UNL     1      49.670   5.362  19.341  0.00  0.00    +0.000 NA
ATOM     29  C   UNL     1      48.659   4.563  19.433  0.00  0.00    +0.000 A 
ATOM     30  N   UNL     1      47.824   4.235  18.396  0.00  0.00    +0.000 N 
ATOM     31  C   UNL     1      47.962   4.759  17.134  0.00  0.00    +0.000 A 
ATOM     32  O   UNL     1      47.234   4.407  16.211  0.00  0.00    +0.000 OA
ATOM     33  C   UNL     1      49.035   5.725  16.997  0.00  0.00    +0.000 A 
ATOM     34  H   UNL     1      47.083   3.562  18.521  0.00  0.00    +0.000 HD
ENDBRANCH  21  24
ENDBRANCH  19  20
ENDBRANCH   4  19
TORSDOF 6
ENDMDL
MODEL 5
REMARK VINA RESULT:    -6.998      1.034      1.774
REMARK INTER + INTRA:         -10.439
REMARK INTER:                  -9.494
REMARK INTRA:                  -0.945
REMARK UNBOUND:                -0.986
REMARK  Name = 
REMARK  6 active torsions:
REMARK  status: ('A' for Active; 'I' for Inactive)
REMARK    1  A    between atoms: C_2  and  C_3
REMARK    2  A    between atoms: N_10  and  C_11
REMARK    3  A    between atoms: C_11  and  C_12
REMARK    4  A    between atoms: C_15  and  C_16
REMARK    5  A    between atoms: C_16  and  N_17
REMARK    6  A    between atoms: C_18  and  C_20
REMARK                            x       y       z     vdW  Elec       q    Type
REMARK                         _______ _______ _______ _____ _____    ______ ____
ROOT
ATOM      1  C   UNL     1      49.729   6.921  16.168  0.00  0.00    +0.000 A 
ATOM      2  C   UNL     1      50.289   7.992  15.471  0.00  0.00    +0.000 A 
ATOM      3  C   UNL     1      49.834   8.288  14.185  0.00  0.00    +0.000 A 
ATOM      4  C   UNL     1      48.819   7.521  13.613  0.00  0.00    +0.000 A 
ATOM      5  C   UNL     1      48.334   6.459  14.369  0.00  0.00    +0.000 A 
ATOM      6  N   UNL     1      48.749   6.153  15.626  0.00  0.00    +0.000 NA
ENDROOT
BRANCH   1   7
ATOM      7  C   UNL     1      50.211   6.567  17.563  0.00  0.00    +0.000 C 
BRANCH   7  15
ATOM      8  C   UNL     1      52.706   2.960  18.311  0.00  0.00    +0.000 A 
ATOM      9  C   UNL     1      53.125   1.677  18.008  0.00  0.00    +0.000 A 
ATOM     10  C   UNL     1      52.055   1.011  17.371  0.00  0.00    +0.000 A 
ATOM     11  C   UNL     1      51.001   1.891  17.338  0.00  0.00    +0.000 A 
ATOM     12  N   UNL     1      51.394   3.103  17.887  0.00  0.00    +0.000 N 
ATOM     13  C   UNL     1      50.520   4.195  18.051  0.00  0.00    +0.000 C 
ATOM     14  O   UNL     1      49.382   3.997  18.444  0.00  0.00    +0.000 OA
ATOM     15  N   UNL     1      51.057   5.384  17.618  0.00  0.00    +0.000 N 
ATOM     16  H   UNL     1      51.880   5.390  17.028  0.00  0.00    +0.000 HD
BRANCH   8  18
ATOM     17  N   UNL     1      54.050   4.703  19.663  0.00  0.00    +0.000 NA
ATOM     18  C   UNL     1      53.438   3.928  19.054  0.00  0.00    +0.000 C 
ENDBRANCH   8  18
ENDBRANCH   7  15
ENDBRANCH   1   7
BRANCH   4  19
ATOM     19  C   UNL     1      48.287   7.806  12.238  0.00  0.00    +0.000 C 
BRANCH  19  20
ATOM     20  N   UNL     1      47.512   6.704  11.725  0.00  0.00    +0.000 N 
ATOM     21  C   UNL     1      46.178   6.858  11.424  0.00  0.00    +0.000 C 
ATOM     22  O   UNL     1      45.562   7.879  11.702  0.00  0.00    +0.000 OA
ATOM     23  H   UNL     1      48.026   5.941  11.293  0.00  0.00    +0.000 HD
BRANCH  21  24
ATOM     24  C   UNL     1      45.522   5.721  10.765  0.00  0.00    +0.000 A 
ATOM     25  C   UNL     1      45.742   5.475   9.417  0.00  0.00    +0.000 A 
ATOM     26  S   UNL     1      44.942   4.082   8.837  0.00  0.00    +0.000 S 
ATOM     27  C   UNL     1      44.359   3.707  10.392  0.00  0.00    +0.000 A 
ATOM     28  N   UNL     1      43.695   2.544  10.632  0.00  0.00    +0.000 NA
ATOM     29  C   UNL     1      43.318   2.390  11.857  0.00  0.00    +0.000 A 
ATOM     30  N   UNL     1      43.503   3.313  12.854  0.00  0.00    +0.000 N 
ATOM     31  C   UNL     1      44.148   4.508  12.652  0.00  0.00    +0.000 A 
ATOM     32  O   UNL     1      44.251   5.339  13.549  0.00  0.00    +0.000 OA
ATOM     33  C   UNL     1      44.662   4.696  11.309  0.00  0.00    +0.000 A 
ATOM     34  H   UNL     1      43.137   3.154  13.781  0.00  0.00    +0.000 HD
ENDBRANCH  21  24
ENDBRANCH  19  20
ENDBRANCH   4  19
TORSDOF 6
ENDMDL
MODEL 6
REMARK VINA RESULT:    -6.896      1.783      2.286
REMARK INTER + INTRA:         -10.301
REMARK INTER:                  -9.354
REMARK INTRA:                  -0.947
REMARK UNBOUND:                -0.986
REMARK  Name = 
REMARK  6 active torsions:
REMARK  status: ('A' for Active; 'I' for Inactive)
REMARK    1  A    between atoms: C_2  and  C_3
REMARK    2  A    between atoms: N_10  and  C_11
REMARK    3  A    between atoms: C_11  and  C_12
REMARK    4  A    between atoms: C_15  and  C_16
REMARK    5  A    between atoms: C_16  and  N_17
REMARK    6  A    between atoms: C_18  and  C_20
REMARK                            x       y       z     vdW  Elec       q    Type
REMARK                         _______ _______ _______ _____ _____    ______ ____
ROOT
ATOM      1  C   UNL     1      50.189   6.200  18.087  0.00  0.00    +0.000 A 
ATOM      2  C   UNL     1      50.537   7.528  17.834  0.00  0.00    +0.000 A 
ATOM      3  C   UNL     1      49.966   8.192  16.747  0.00  0.00    +0.000 A 
ATOM      4  C   UNL     1      49.048   7.531  15.932  0.00  0.00    +0.000 A 
ATOM      5  C   UNL     1      48.775   6.203  16.244  0.00  0.00    +0.000 A 
ATOM      6  N   UNL     1      49.306   5.533  17.300  0.00  0.00    +0.000 NA
ENDROOT
BRANCH   1   7
ATOM      7  C   UNL     1      50.801   5.448  19.255  0.00  0.00    +0.000 C 
BRANCH   7  15
ATOM      8  C   UNL     1      52.176   1.509  17.708  0.00  0.00    +0.000 A 
ATOM      9  C   UNL     1      52.950   0.366  17.787  0.00  0.00    +0.000 A 
ATOM     10  C   UNL     1      54.131   0.690  18.491  0.00  0.00    +0.000 A 
ATOM     11  C   UNL     1      54.062   2.029  18.789  0.00  0.00    +0.000 A 
ATOM     12  N   UNL     1      52.854   2.541  18.338  0.00  0.00    +0.000 N 
ATOM     13  C   UNL     1      52.506   3.902  18.442  0.00  0.00    +0.000 C 
ATOM     14  O   UNL     1      53.346   4.753  18.203  0.00  0.00    +0.000 OA
ATOM     15  N   UNL     1      51.236   4.097  18.929  0.00  0.00    +0.000 N 
ATOM     16  H   UNL     1      50.740   3.341  19.385  0.00  0.00    +0.000 HD
BRANCH   8  18
ATOM     17  N   UNL     1      49.958   1.778  16.411  0.00  0.00    +0.000 NA
ATOM     18  C   UNL     1      50.957   1.648  16.987  0.00  0.00    +0.000 C 
ENDBRANCH   8  18
ENDBRANCH   7  15
ENDBRANCH   1   7
BRANCH   4  19
ATOM     19  C   UNL     1      48.398   8.205  14.758  0.00  0.00    +0.000 C 
BRANCH  19  20
ATOM     20  N   UNL     1      47.364   7.386  14.176  0.00  0.00    +0.000 N 
ATOM     21  C   UNL     1      47.661   6.459  13.203  0.00  0.00    +0.000 C 
ATOM     22  O   UNL     1      48.773   6.382  12.696  0.00  0.00    +0.000 OA
ATOM     23  H   UNL     1      46.508   7.276  14.710  0.00  0.00    +0.000 HD
BRANCH  21  24
ATOM     24  C   UNL     1      46.565   5.573  12.788  0.00  0.00    +0.000 A 
ATOM     25  C   UNL     1      46.633   4.212  13.049  0.00  0.00    +0.000 A 
ATOM     26  S   UNL     1      45.248   3.350  12.547  0.00  0.00    +0.000 S 
ATOM     27  C   UNL     1      44.471   4.783  12.056  0.00  0.00    +0.000 A 
ATOM     28  N   UNL     1      43.175   4.773  11.643  0.00  0.00    +0.000 NA
ATOM     29  C   UNL     1      42.715   5.933  11.309  0.00  0.00    +0.000 A 
ATOM     30  N   UNL     1      43.446   7.093  11.306  0.00  0.00    +0.000 N 
ATOM     31  C   UNL     1      44.762   7.145  11.695  0.00  0.00    +0.000 A 
ATOM     32  O   UNL     1      45.408   8.187  11.631  0.00  0.00    +0.000 OA
ATOM     33  C   UNL     1      45.304   5.882  12.156  0.00  0.00    +0.000 A 
ATOM     34  H   UNL     1      43.041   7.959  10.983  0.00  0.00    +0.000 HD
ENDBRANCH  21  24
ENDBRANCH  19  20
ENDBRANCH   4  19
TORSDOF 6
ENDMDL
MODEL 7
REMARK VINA RESULT:    -6.619      5.236      6.118
REMARK INTER + INTRA:          -9.927
REMARK INTER:                  -8.935
REMARK INTRA:                  -0.992
REMARK UNBOUND:                -0.986
REMARK  Name = 
REMARK  6 active torsions:
REMARK  status: ('A' for Active; 'I' for Inactive)
REMARK    1  A    between atoms: C_2  and  C_3
REMARK    2  A    between atoms: N_10  and  C_11
REMARK    3  A    between atoms: C_11  and  C_12
REMARK    4  A    between atoms: C_15  and  C_16
REMARK    5  A    between atoms: C_16  and  N_17
REMARK    6  A    between atoms: C_18  and  C_20
REMARK                            x       y       z     vdW  Elec       q    Type
REMARK                         _______ _______ _______ _____ _____    ______ ____
ROOT
ATOM      1  C   UNL     1      50.091   9.003  11.491  0.00  0.00    +0.000 A 
ATOM      2  C   UNL     1      49.532   7.734  11.332  0.00  0.00    +0.000 A 
ATOM      3  C   UNL     1      48.252   7.481  11.827  0.00  0.00    +0.000 A 
ATOM      4  C   UNL     1      47.539   8.497  12.464  0.00  0.00    +0.000 A 
ATOM      5  C   UNL     1      48.180   9.723  12.598  0.00  0.00    +0.000 A 
ATOM      6  N   UNL     1      49.420  10.003  12.118  0.00  0.00    +0.000 NA
ENDROOT
BRANCH   1   7
ATOM      7  C   UNL     1      51.485   9.306  10.973  0.00  0.00    +0.000 C 
BRANCH   7  15
ATOM      8  C   UNL     1      53.821   6.193   8.818  0.00  0.00    +0.000 A 
ATOM      9  C   UNL     1      54.598   5.049   8.785  0.00  0.00    +0.000 A 
ATOM     10  C   UNL     1      55.299   4.965  10.009  0.00  0.00    +0.000 A 
ATOM     11  C   UNL     1      54.960   6.079  10.738  0.00  0.00    +0.000 A 
ATOM     12  N   UNL     1      54.032   6.830  10.031  0.00  0.00    +0.000 N 
ATOM     13  C   UNL     1      53.530   8.064  10.487  0.00  0.00    +0.000 C 
ATOM     14  O   UNL     1      54.291   8.865  11.004  0.00  0.00    +0.000 OA
ATOM     15  N   UNL     1      52.163   8.161  10.383  0.00  0.00    +0.000 N 
ATOM     16  H   UNL     1      51.600   7.332  10.233  0.00  0.00    +0.000 HD
BRANCH   8  18
ATOM     17  N   UNL     1      52.398   7.114   6.869  0.00  0.00    +0.000 NA
ATOM     18  C   UNL     1      53.045   6.710   7.744  0.00  0.00    +0.000 C 
ENDBRANCH   8  18
ENDBRANCH   7  15
ENDBRANCH   1   7
BRANCH   4  19
ATOM     19  C   UNL     1      46.154   8.277  13.003  0.00  0.00    +0.000 C 
BRANCH  19  20
ATOM     20  N   UNL     1      45.695   6.931  12.766  0.00  0.00    +0.000 N 
ATOM     21  C   UNL     1      44.703   6.675  11.847  0.00  0.00    +0.000 C 
ATOM     22  O   UNL     1      44.078   7.572  11.297  0.00  0.00    +0.000 OA
ATOM     23  H   UNL     1      46.321   6.177  13.033  0.00  0.00    +0.000 HD
BRANCH  21  24
ATOM     24  C   UNL     1      44.418   5.260  11.571  0.00  0.00    +0.000 A 
ATOM     25  C   UNL     1      43.656   4.517  12.461  0.00  0.00    +0.000 A 
ATOM     26  S   UNL     1      43.381   2.911  11.950  0.00  0.00    +0.000 S 
ATOM     27  C   UNL     1      44.185   3.189  10.475  0.00  0.00    +0.000 A 
ATOM     28  N   UNL     1      44.201   2.246   9.495  0.00  0.00    +0.000 NA
ATOM     29  C   UNL     1      44.841   2.597   8.430  0.00  0.00    +0.000 A 
ATOM     30  N   UNL     1      45.506   3.785   8.274  0.00  0.00    +0.000 N 
ATOM     31  C   UNL     1      45.535   4.757   9.244  0.00  0.00    +0.000 A 
ATOM     32  O   UNL     1      46.184   5.788   9.098  0.00  0.00    +0.000 OA
ATOM     33  C   UNL     1      44.763   4.444  10.431  0.00  0.00    +0.000 A 
ATOM     34  H   UNL     1      46.033   3.977   7.434  0.00  0.00    +0.000 HD
ENDBRANCH  21  24
ENDBRANCH  19  20
ENDBRANCH   4  19
TORSDOF 6
ENDMDL
