MODEL 1
REMARK VINA RESULT:    -8.711      0.000      0.000
REMARK INTER + INTRA:         -11.928
REMARK INTER:                 -11.766
REMARK INTRA:                  -0.162
REMARK UNBOUND:                -0.162
REMARK  Name = 
REMARK  7 active torsions:
REMARK  status: ('A' for Active; 'I' for Inactive)
REMARK    1  A    between atoms: C_1  and  C_2
REMARK    2  A    between atoms: C_2  and  N_3
REMARK    3  A    between atoms: C_2  and  C_12
REMARK    4  A    between atoms: C_4  and  C_6
REMARK    5  A    between atoms: C_15  and  C_16
REMARK    6  A    between atoms: C_16  and  N_17
REMARK    7  A    between atoms: C_18  and  C_20
REMARK                            x       y       z     vdW  Elec       q    Type
REMARK                         _______ _______ _______ _____ _____    ______ ____
ROOT
ATOM      1  C   UNL     1      45.547   4.147  12.638  0.00  0.00    +0.000 A 
ATOM      2  C   UNL     1      45.499   5.512  12.345  0.00  0.00    +0.000 A 
ATOM      3  C   UNL     1      46.316   6.395  13.054  0.00  0.00    +0.000 A 
ATOM      4  C   UNL     1      47.179   5.907  14.034  0.00  0.00    +0.000 A 
ATOM      5  C   UNL     1      47.164   4.535  14.259  0.00  0.00    +0.000 A 
ATOM      6  N   UNL     1      46.383   3.655  13.587  0.00  0.00    +0.000 NA
ENDROOT
BRANCH   1   8
ATOM      7  C   UNL     1      43.193   3.742  11.897  0.00  0.00    +0.000 C 
ATOM      8  C   UNL     1      44.612   3.155  11.946  0.00  0.00    +0.000 C 
BRANCH   8   9
ATOM      9  N   UNL     1      45.091   2.787  10.617  0.00  0.00    +0.000 N 
ATOM     10  C   UNL     1      44.727   3.460   9.470  0.00  0.00    +0.000 C 
ATOM     11  O   UNL     1      43.947   4.409   9.459  0.00  0.00    +0.000 OA
ATOM     12  H   UNL     1      45.541   1.887  10.475  0.00  0.00    +0.000 HD
BRANCH  10  13
ATOM     13  C   UNL     1      45.391   2.941   8.176  0.00  0.00    +0.000 C 
ATOM     14  C   UNL     1      46.170   1.647   8.423  0.00  0.00    +0.000 C 
ATOM     15  C   UNL     1      46.816   1.151   7.129  0.00  0.00    +0.000 C 
ATOM     16  C   UNL     1      47.644   2.254   6.476  0.00  0.00    +0.000 C 
ATOM     17  C   UNL     1      46.840   3.543   6.329  0.00  0.00    +0.000 C 
ATOM     18  N   UNL     1      46.293   3.983   7.616  0.00  0.00    +0.000 NA
ATOM     19  H   UNL     1      45.736   4.827   7.463  0.00  0.00    +0.000 HD
ENDBRANCH  10  13
ENDBRANCH   8   9
ENDBRANCH   1   8
BRANCH   4  20
ATOM     20  C   UNL     1      48.044   6.817  14.859  0.00  0.00    +0.000 C 
BRANCH  20  21
ATOM     21  N   UNL     1      49.159   6.101  15.431  0.00  0.00    +0.000 N 
ATOM     22  C   UNL     1      49.194   5.780  16.766  0.00  0.00    +0.000 C 
ATOM     23  O   UNL     1      48.255   6.022  17.516  0.00  0.00    +0.000 OA
ATOM     24  H   UNL     1      50.024   6.092  14.900  0.00  0.00    +0.000 HD
BRANCH  22  25
ATOM     25  C   UNL     1      50.396   5.076  17.241  0.00  0.00    +0.000 A 
ATOM     26  C   UNL     1      51.479   5.805  17.713  0.00  0.00    +0.000 A 
ATOM     27  S   UNL     1      52.770   4.836  18.264  0.00  0.00    +0.000 S 
ATOM     28  C   UNL     1      51.950   3.408  17.842  0.00  0.00    +0.000 A 
ATOM     29  N   UNL     1      52.525   2.188  18.033  0.00  0.00    +0.000 NA
ATOM     30  C   UNL     1      51.803   1.191  17.640  0.00  0.00    +0.000 A 
ATOM     31  N   UNL     1      50.556   1.302  17.083  0.00  0.00    +0.000 N 
ATOM     32  C   UNL     1      49.923   2.510  16.900  0.00  0.00    +0.000 A 
ATOM     33  O   UNL     1      48.789   2.573  16.442  0.00  0.00    +0.000 OA
ATOM     34  C   UNL     1      50.700   3.665  17.311  0.00  0.00    +0.000 A 
ATOM     35  H   UNL     1      50.038   0.480  16.805  0.00  0.00    +0.000 HD
ENDBRANCH  22  25
ENDBRANCH  20  21
ENDBRANCH   4  20
TORSDOF 6
ENDMDL
MODEL 2
REMARK VINA RESULT:    -8.576      2.159      2.323
REMARK INTER + INTRA:         -11.745
REMARK INTER:                 -10.798
REMARK INTRA:                  -0.947
REMARK UNBOUND:                -0.162
REMARK  Name = 
REMARK  7 active torsions:
REMARK  status: ('A' for Active; 'I' for Inactive)
REMARK    1  A    between atoms: C_1  and  C_2
REMARK    2  A    between atoms: C_2  and  N_3
REMARK    3  A    between atoms: C_2  and  C_12
REMARK    4  A    between atoms: C_4  and  C_6
REMARK    5  A    between atoms: C_15  and  C_16
REMARK    6  A    between atoms: C_16  and  N_17
REMARK    7  A    between atoms: C_18  and  C_20
REMARK                            x       y       z     vdW  Elec       q    Type
REMARK                         _______ _______ _______ _____ _____    ______ ____
ROOT
ATOM      1  C   UNL     1      45.309   6.001  11.930  0.00  0.00    +0.000 A 
ATOM      2  C   UNL     1      44.909   7.318  12.172  0.00  0.00    +0.000 A 
ATOM      3  C   UNL     1      45.774   8.185  12.843  0.00  0.00    +0.000 A 
ATOM      4  C   UNL     1      47.030   7.734  13.252  0.00  0.00    +0.000 A 
ATOM      5  C   UNL     1      47.345   6.411  12.968  0.00  0.00    +0.000 A 
ATOM      6  N   UNL     1      46.527   5.547  12.319  0.00  0.00    +0.000 NA
ENDROOT
BRANCH   1   8
ATOM      7  C   UNL     1      43.004   5.664  11.019  0.00  0.00    +0.000 C 
ATOM      8  C   UNL     1      44.363   4.995  11.274  0.00  0.00    +0.000 C 
BRANCH   8   9
ATOM      9  N   UNL     1      44.927   4.433  10.049  0.00  0.00    +0.000 N 
ATOM     10  C   UNL     1      44.607   3.178   9.577  0.00  0.00    +0.000 C 
ATOM     11  O   UNL     1      43.844   2.409  10.157  0.00  0.00    +0.000 OA
ATOM     12  H   UNL     1      45.738   4.871   9.621  0.00  0.00    +0.000 HD
BRANCH  10  13
ATOM     13  C   UNL     1      45.274   2.801   8.237  0.00  0.00    +0.000 C 
ATOM     14  C   UNL     1      46.175   1.573   8.382  0.00  0.00    +0.000 C 
ATOM     15  C   UNL     1      46.822   1.218   7.043  0.00  0.00    +0.000 C 
ATOM     16  C   UNL     1      47.525   2.430   6.439  0.00  0.00    +0.000 C 
ATOM     17  C   UNL     1      46.603   3.645   6.394  0.00  0.00    +0.000 C 
ATOM     18  N   UNL     1      46.059   3.954   7.719  0.00  0.00    +0.000 NA
ATOM     19  H   UNL     1      45.422   4.750   7.634  0.00  0.00    +0.000 HD
ENDBRANCH  10  13
ENDBRANCH   8   9
ENDBRANCH   1   8
BRANCH   4  20
ATOM     20  C   UNL     1      47.979   8.610  14.018  0.00  0.00    +0.000 C 
BRANCH  20  21
ATOM     21  N   UNL     1      48.220   8.086  15.341  0.00  0.00    +0.000 N 
ATOM     22  C   UNL     1      49.331   7.326  15.618  0.00  0.00    +0.000 C 
ATOM     23  O   UNL     1      50.200   7.118  14.779  0.00  0.00    +0.000 OA
ATOM     24  H   UNL     1      47.429   8.048  15.975  0.00  0.00    +0.000 HD
BRANCH  22  25
ATOM     25  C   UNL     1      49.455   6.822  16.995  0.00  0.00    +0.000 A 
ATOM     26  C   UNL     1      50.078   7.602  17.960  0.00  0.00    +0.000 A 
ATOM     27  S   UNL     1      50.098   6.889  19.510  0.00  0.00    +0.000 S 
ATOM     28  C   UNL     1      49.323   5.489  18.935  0.00  0.00    +0.000 A 
ATOM     29  N   UNL     1      49.057   4.445  19.769  0.00  0.00    +0.000 NA
ATOM     30  C   UNL     1      48.492   3.435  19.194  0.00  0.00    +0.000 A 
ATOM     31  N   UNL     1      48.162   3.378  17.865  0.00  0.00    +0.000 N 
ATOM     32  C   UNL     1      48.383   4.418  16.993  0.00  0.00    +0.000 A 
ATOM     33  O   UNL     1      48.034   4.355  15.821  0.00  0.00    +0.000 OA
ATOM     34  C   UNL     1      49.031   5.574  17.587  0.00  0.00    +0.000 A 
ATOM     35  H   UNL     1      47.712   2.560  17.478  0.00  0.00    +0.000 HD
ENDBRANCH  22  25
ENDBRANCH  20  21
ENDBRANCH   4  20
TORSDOF 6
ENDMDL
MODEL 3
REMARK VINA RESULT:    -8.253      2.087      3.714
REMARK INTER + INTRA:         -11.310
REMARK INTER:                 -10.355
REMARK INTRA:                  -0.955
REMARK UNBOUND:                -0.162
REMARK  Name = 
REMARK  7 active torsions:
REMARK  status: ('A' for Active; 'I' for Inactive)
REMARK    1  A    between atoms: C_1  and  C_2
REMARK    2  A    between atoms: C_2  and  N_3
REMARK    3  A    between atoms: C_2  and  C_12
REMARK    4  A    between atoms: C_4  and  C_6
REMARK    5  A    between atoms: C_15  and  C_16
REMARK    6  A    between atoms: C_16  and  N_17
REMARK    7  A    between atoms: C_18  and  C_20
REMARK                            x       y       z     vdW  Elec       q    Type
REMARK                         _______ _______ _______ _____ _____    ______ ____
ROOT
ATOM      1  C   UNL     1      47.399   5.572  14.360  0.00  0.00    +0.000 A 
ATOM      2  C   UNL     1      48.278   6.123  15.297  0.00  0.00    +0.000 A 
ATOM      3  C   UNL     1      48.576   5.410  16.460  0.00  0.00    +0.000 A 
ATOM      4  C   UNL     1      48.007   4.153  16.668  0.00  0.00    +0.000 A 
ATOM      5  C   UNL     1      47.147   3.681  15.684  0.00  0.00    +0.000 A 
ATOM      6  N   UNL     1      46.839   4.350  14.546  0.00  0.00    +0.000 NA
ENDROOT
BRANCH   1   8
ATOM      7  C   UNL     1      48.205   7.064  12.522  0.00  0.00    +0.000 C 
ATOM      8  C   UNL     1      46.979   6.352  13.114  0.00  0.00    +0.000 C 
BRANCH   8   9
ATOM      9  N   UNL     1      46.323   5.496  12.129  0.00  0.00    +0.000 N 
ATOM     10  C   UNL     1      45.294   5.929  11.320  0.00  0.00    +0.000 C 
ATOM     11  O   UNL     1      44.816   7.059  11.374  0.00  0.00    +0.000 OA
ATOM     12  H   UNL     1      46.465   4.491  12.161  0.00  0.00    +0.000 HD
BRANCH  10  13
ATOM     13  C   UNL     1      44.779   4.879  10.310  0.00  0.00    +0.000 C 
ATOM     14  C   UNL     1      44.866   3.461  10.879  0.00  0.00    +0.000 C 
ATOM     15  C   UNL     1      44.350   2.441   9.863  0.00  0.00    +0.000 C 
ATOM     16  C   UNL     1      45.050   2.609   8.519  0.00  0.00    +0.000 C 
ATOM     17  C   UNL     1      45.001   4.058   8.040  0.00  0.00    +0.000 C 
ATOM     18  N   UNL     1      45.555   4.972   9.044  0.00  0.00    +0.000 NA
ATOM     19  H   UNL     1      45.469   5.929   8.696  0.00  0.00    +0.000 HD
ENDBRANCH  10  13
ENDBRANCH   8   9
ENDBRANCH   1   8
BRANCH   4  20
ATOM     20  C   UNL     1      48.256   3.365  17.922  0.00  0.00    +0.000 C 
BRANCH  20  21
ATOM     21  N   UNL     1      49.663   3.097  18.100  0.00  0.00    +0.000 N 
ATOM     22  C   UNL     1      50.344   2.257  17.252  0.00  0.00    +0.000 C 
ATOM     23  O   UNL     1      49.810   1.755  16.269  0.00  0.00    +0.000 OA
ATOM     24  H   UNL     1      50.062   3.307  19.008  0.00  0.00    +0.000 HD
BRANCH  22  25
ATOM     25  C   UNL     1      51.768   2.037  17.550  0.00  0.00    +0.000 A 
ATOM     26  C   UNL     1      52.245   0.742  17.708  0.00  0.00    +0.000 A 
ATOM     27  S   UNL     1      53.923   0.661  18.006  0.00  0.00    +0.000 S 
ATOM     28  C   UNL     1      54.063   2.356  17.988  0.00  0.00    +0.000 A 
ATOM     29  N   UNL     1      55.263   2.961  18.210  0.00  0.00    +0.000 NA
ATOM     30  C   UNL     1      55.218   4.253  18.198  0.00  0.00    +0.000 A 
ATOM     31  N   UNL     1      54.086   4.992  17.975  0.00  0.00    +0.000 N 
ATOM     32  C   UNL     1      52.860   4.425  17.717  0.00  0.00    +0.000 A 
ATOM     33  O   UNL     1      51.876   5.113  17.476  0.00  0.00    +0.000 OA
ATOM     34  C   UNL     1      52.852   2.973  17.735  0.00  0.00    +0.000 A 
ATOM     35  H   UNL     1      54.120   6.002  17.970  0.00  0.00    +0.000 HD
ENDBRANCH  22  25
ENDBRANCH  20  21
ENDBRANCH   4  20
TORSDOF 6
ENDMDL
MODEL 4
REMARK VINA RESULT:    -7.970      1.956      2.530
REMARK INTER + INTRA:         -10.927
REMARK INTER:                  -9.903
REMARK INTRA:                  -1.024
REMARK UNBOUND:                -0.162
REMARK  Name = 
REMARK  7 active torsions:
REMARK  status: ('A' for Active; 'I' for Inactive)
REMARK    1  A    between atoms: C_1  and  C_2
REMARK    2  A    between atoms: C_2  and  N_3
REMARK    3  A    between atoms: C_2  and  C_12
REMARK    4  A    between atoms: C_4  and  C_6
REMARK    5  A    between atoms: C_15  and  C_16
REMARK    6  A    between atoms: C_16  and  N_17
REMARK    7  A    between atoms: C_18  and  C_20
REMARK                            x       y       z     vdW  Elec       q    Type
REMARK                         _______ _______ _______ _____ _____    ______ ____
ROOT
ATOM      1  C   UNL     1      45.614   5.691  12.118  0.00  0.00    +0.000 A 
ATOM      2  C   UNL     1      45.628   7.081  11.968  0.00  0.00    +0.000 A 
ATOM      3  C   UNL     1      46.527   7.843  12.717  0.00  0.00    +0.000 A 
ATOM      4  C   UNL     1      47.409   7.211  13.594  0.00  0.00    +0.000 A 
ATOM      5  C   UNL     1      47.329   5.826  13.678  0.00  0.00    +0.000 A 
ATOM      6  N   UNL     1      46.468   5.061  12.964  0.00  0.00    +0.000 NA
ENDROOT
BRANCH   1   8
ATOM      7  C   UNL     1      43.307   5.636  11.155  0.00  0.00    +0.000 C 
ATOM      8  C   UNL     1      44.592   4.825  11.381  0.00  0.00    +0.000 C 
BRANCH   8   9
ATOM      9  N   UNL     1      45.125   4.297  10.128  0.00  0.00    +0.000 N 
ATOM     10  C   UNL     1      44.688   3.119   9.560  0.00  0.00    +0.000 C 
ATOM     11  O   UNL     1      43.836   2.395  10.068  0.00  0.00    +0.000 OA
ATOM     12  H   UNL     1      45.987   4.676   9.748  0.00  0.00    +0.000 HD
BRANCH  10  13
ATOM     13  C   UNL     1      45.346   2.771   8.207  0.00  0.00    +0.000 C 
ATOM     14  C   UNL     1      46.252   1.543   8.321  0.00  0.00    +0.000 C 
ATOM     15  C   UNL     1      46.890   1.217   6.969  0.00  0.00    +0.000 C 
ATOM     16  C   UNL     1      47.584   2.443   6.384  0.00  0.00    +0.000 C 
ATOM     17  C   UNL     1      46.657   3.656   6.370  0.00  0.00    +0.000 C 
ATOM     18  N   UNL     1      46.122   3.937   7.706  0.00  0.00    +0.000 NA
ATOM     19  H   UNL     1      45.482   4.732   7.641  0.00  0.00    +0.000 HD
ENDBRANCH  10  13
ENDBRANCH   8   9
ENDBRANCH   1   8
BRANCH   4  20
ATOM     20  C   UNL     1      48.363   7.986  14.458  0.00  0.00    +0.000 C 
BRANCH  20  21
ATOM     21  N   UNL     1      49.331   7.114  15.078  0.00  0.00    +0.000 N 
ATOM     22  C   UNL     1      49.395   6.972  16.443  0.00  0.00    +0.000 C 
ATOM     23  O   UNL     1      48.593   7.521  17.191  0.00  0.00    +0.000 OA
ATOM     24  H   UNL     1      50.130   6.836  14.518  0.00  0.00    +0.000 HD
BRANCH  22  25
ATOM     25  C   UNL     1      50.442   6.078  16.962  0.00  0.00    +0.000 A 
ATOM     26  C   UNL     1      50.107   5.071  17.857  0.00  0.00    +0.000 A 
ATOM     27  S   UNL     1      51.428   4.100  18.326  0.00  0.00    +0.000 S 
ATOM     28  C   UNL     1      52.508   5.024  17.391  0.00  0.00    +0.000 A 
ATOM     29  N   UNL     1      53.838   4.733  17.367  0.00  0.00    +0.000 NA
ATOM     30  C   UNL     1      54.546   5.534  16.640  0.00  0.00    +0.000 A 
ATOM     31  N   UNL     1      54.042   6.591  15.928  0.00  0.00    +0.000 N 
ATOM     32  C   UNL     1      52.703   6.904  15.898  0.00  0.00    +0.000 A 
ATOM     33  O   UNL     1      52.278   7.828  15.215  0.00  0.00    +0.000 OA
ATOM     34  C   UNL     1      51.865   6.043  16.713  0.00  0.00    +0.000 A 
ATOM     35  H   UNL     1      54.649   7.176  15.370  0.00  0.00    +0.000 HD
ENDBRANCH  22  25
ENDBRANCH  20  21
ENDBRANCH   4  20
TORSDOF 6
ENDMDL
MODEL 5
REMARK VINA RESULT:    -7.934      2.784      3.252
REMARK INTER + INTRA:         -10.879
REMARK INTER:                  -9.999
REMARK INTRA:                  -0.880
REMARK UNBOUND:                -0.162
REMARK  Name = 
REMARK  7 active torsions:
REMARK  status: ('A' for Active; 'I' for Inactive)
REMARK    1  A    between atoms: C_1  and  C_2
REMARK    2  A    between atoms: C_2  and  N_3
REMARK    3  A    between atoms: C_2  and  C_12
REMARK    4  A    between atoms: C_4  and  C_6
REMARK    5  A    between atoms: C_15  and  C_16
REMARK    6  A    between atoms: C_16  and  N_17
REMARK    7  A    between atoms: C_18  and  C_20
REMARK                            x       y       z     vdW  Elec       q    Type
REMARK                         _______ _______ _______ _____ _____    ______ ____
ROOT
ATOM      1  C   UNL     1      45.442   5.944  12.009  0.00  0.00    +0.000 A 
ATOM      2  C   UNL     1      45.149   7.284  12.275  0.00  0.00    +0.000 A 
ATOM      3  C   UNL     1      46.055   8.052  13.009  0.00  0.00    +0.000 A 
ATOM      4  C   UNL     1      47.248   7.481  13.455  0.00  0.00    +0.000 A 
ATOM      5  C   UNL     1      47.459   6.143  13.143  0.00  0.00    +0.000 A 
ATOM      6  N   UNL     1      46.598   5.374  12.433  0.00  0.00    +0.000 NA
ENDROOT
BRANCH   1   8
ATOM      7  C   UNL     1      43.158   5.837  10.996  0.00  0.00    +0.000 C 
ATOM      8  C   UNL     1      44.443   5.044  11.282  0.00  0.00    +0.000 C 
BRANCH   8   9
ATOM      9  N   UNL     1      45.008   4.472  10.063  0.00  0.00    +0.000 N 
ATOM     10  C   UNL     1      44.631   3.244   9.561  0.00  0.00    +0.000 C 
ATOM     11  O   UNL     1      43.812   2.510  10.106  0.00  0.00    +0.000 OA
ATOM     12  H   UNL     1      45.853   4.870   9.665  0.00  0.00    +0.000 HD
BRANCH  10  13
ATOM     13  C   UNL     1      45.313   2.853   8.232  0.00  0.00    +0.000 C 
ATOM     14  C   UNL     1      46.163   1.589   8.385  0.00  0.00    +0.000 C 
ATOM     15  C   UNL     1      46.826   1.221   7.057  0.00  0.00    +0.000 C 
ATOM     16  C   UNL     1      47.588   2.410   6.480  0.00  0.00    +0.000 C 
ATOM     17  C   UNL     1      46.714   3.660   6.426  0.00  0.00    +0.000 C 
ATOM     18  N   UNL     1      46.153   3.979   7.742  0.00  0.00    +0.000 NA
ATOM     19  H   UNL     1      45.550   4.800   7.650  0.00  0.00    +0.000 HD
ENDBRANCH  10  13
ENDBRANCH   8   9
ENDBRANCH   1   8
BRANCH   4  20
ATOM     20  C   UNL     1      48.235   8.247  14.288  0.00  0.00    +0.000 C 
BRANCH  20  21
ATOM     21  N   UNL     1      48.257   7.765  15.647  0.00  0.00    +0.000 N 
ATOM     22  C   UNL     1      49.257   6.936  16.096  0.00  0.00    +0.000 C 
ATOM     23  O   UNL     1      50.209   6.625  15.388  0.00  0.00    +0.000 OA
ATOM     24  H   UNL     1      47.389   7.816  16.170  0.00  0.00    +0.000 HD
BRANCH  22  25
ATOM     25  C   UNL     1      49.157   6.484  17.493  0.00  0.00    +0.000 A 
ATOM     26  C   UNL     1      48.158   5.592  17.858  0.00  0.00    +0.000 A 
ATOM     27  S   UNL     1      48.210   5.137  19.501  0.00  0.00    +0.000 S 
ATOM     28  C   UNL     1      49.539   6.158  19.797  0.00  0.00    +0.000 A 
ATOM     29  N   UNL     1      50.077   6.263  21.044  0.00  0.00    +0.000 NA
ATOM     30  C   UNL     1      51.061   7.096  21.131  0.00  0.00    +0.000 A 
ATOM     31  N   UNL     1      51.561   7.825  20.084  0.00  0.00    +0.000 N 
ATOM     32  C   UNL     1      51.069   7.730  18.803  0.00  0.00    +0.000 A 
ATOM     33  O   UNL     1      51.568   8.361  17.879  0.00  0.00    +0.000 OA
ATOM     34  C   UNL     1      49.950   6.817  18.654  0.00  0.00    +0.000 A 
ATOM     35  H   UNL     1      52.340   8.454  20.217  0.00  0.00    +0.000 HD
ENDBRANCH  22  25
ENDBRANCH  20  21
ENDBRANCH   4  20
TORSDOF 6
ENDMDL
MODEL 6
REMARK VINA RESULT:    -7.897      3.298      9.075
REMARK INTER + INTRA:         -10.829
REMARK INTER:                 -10.151
REMARK INTRA:                  -0.678
REMARK UNBOUND:                -0.162
REMARK  Name = 
REMARK  7 active torsions:
REMARK  status: ('A' for Active; 'I' for Inactive)
REMARK    1  A    between atoms: C_1  and  C_2
REMARK    2  A    between atoms: C_2  and  N_3
REMARK    3  A    between atoms: C_2  and  C_12
REMARK    4  A    between atoms: C_4  and  C_6
REMARK    5  A    between atoms: C_15  and  C_16
REMARK    6  A    between atoms: C_16  and  N_17
REMARK    7  A    between atoms: C_18  and  C_20
REMARK                            x       y       z     vdW  Elec       q    Type
REMARK                         _______ _______ _______ _____ _____    ______ ____
ROOT
ATOM      1  C   UNL     1      49.139   5.103  17.337  0.00  0.00    +0.000 A 
ATOM      2  C   UNL     1      49.966   6.157  16.938  0.00  0.00    +0.000 A 
ATOM      3  C   UNL     1      49.714   6.806  15.728  0.00  0.00    +0.000 A 
ATOM      4  C   UNL     1      48.636   6.408  14.937  0.00  0.00    +0.000 A 
ATOM      5  C   UNL     1      47.865   5.353  15.411  0.00  0.00    +0.000 A 
ATOM      6  N   UNL     1      48.085   4.704  16.581  0.00  0.00    +0.000 NA
ENDROOT
BRANCH   1   8
ATOM      7  C   UNL     1      48.324   3.260  18.817  0.00  0.00    +0.000 C 
ATOM      8  C   UNL     1      49.427   4.310  18.612  0.00  0.00    +0.000 C 
BRANCH   8   9
ATOM      9  N   UNL     1      50.755   3.703  18.590  0.00  0.00    +0.000 N 
ATOM     10  C   UNL     1      51.143   2.769  17.653  0.00  0.00    +0.000 C 
ATOM     11  O   UNL     1      50.400   2.342  16.773  0.00  0.00    +0.000 OA
ATOM     12  H   UNL     1      51.363   3.794  19.399  0.00  0.00    +0.000 HD
BRANCH  10  13
ATOM     13  C   UNL     1      52.607   2.296  17.779  0.00  0.00    +0.000 C 
ATOM     14  C   UNL     1      52.755   0.818  17.412  0.00  0.00    +0.000 C 
ATOM     15  C   UNL     1      54.212   0.373  17.542  0.00  0.00    +0.000 C 
ATOM     16  C   UNL     1      54.768   0.724  18.918  0.00  0.00    +0.000 C 
ATOM     17  C   UNL     1      54.521   2.191  19.263  0.00  0.00    +0.000 C 
ATOM     18  N   UNL     1      53.099   2.531  19.164  0.00  0.00    +0.000 NA
ATOM     19  H   UNL     1      52.986   3.527  19.368  0.00  0.00    +0.000 HD
ENDBRANCH  10  13
ENDBRANCH   8   9
ENDBRANCH   1   8
BRANCH   4  20
ATOM     20  C   UNL     1      48.348   7.039  13.606  0.00  0.00    +0.000 C 
BRANCH  20  21
ATOM     21  N   UNL     1      47.582   6.155  12.763  0.00  0.00    +0.000 N 
ATOM     22  C   UNL     1      46.636   6.637  11.891  0.00  0.00    +0.000 C 
ATOM     23  O   UNL     1      46.449   7.840  11.737  0.00  0.00    +0.000 OA
ATOM     24  H   UNL     1      47.552   5.175  13.027  0.00  0.00    +0.000 HD
BRANCH  22  25
ATOM     25  C   UNL     1      45.896   5.637  11.105  0.00  0.00    +0.000 A 
ATOM     26  C   UNL     1      45.963   5.665   9.718  0.00  0.00    +0.000 A 
ATOM     27  S   UNL     1      45.085   4.413   8.964  0.00  0.00    +0.000 S 
ATOM     28  C   UNL     1      44.538   3.820  10.461  0.00  0.00    +0.000 A 
ATOM     29  N   UNL     1      43.703   2.746  10.526  0.00  0.00    +0.000 NA
ATOM     30  C   UNL     1      43.343   2.422  11.724  0.00  0.00    +0.000 A 
ATOM     31  N   UNL     1      43.750   3.069  12.862  0.00  0.00    +0.000 N 
ATOM     32  C   UNL     1      44.616   4.138  12.848  0.00  0.00    +0.000 A 
ATOM     33  O   UNL     1      44.997   4.665  13.885  0.00  0.00    +0.000 OA
ATOM     34  C   UNL     1      45.038   4.552  11.522  0.00  0.00    +0.000 A 
ATOM     35  H   UNL     1      43.439   2.759  13.773  0.00  0.00    +0.000 HD
ENDBRANCH  22  25
ENDBRANCH  20  21
ENDBRANCH   4  20
TORSDOF 6
ENDMDL
MODEL 7
REMARK VINA RESULT:    -7.882      2.899      9.124
REMARK INTER + INTRA:         -10.809
REMARK INTER:                  -9.716
REMARK INTRA:                  -1.092
REMARK UNBOUND:                -0.162
REMARK  Name = 
REMARK  7 active torsions:
REMARK  status: ('A' for Active; 'I' for Inactive)
REMARK    1  A    between atoms: C_1  and  C_2
REMARK    2  A    between atoms: C_2  and  N_3
REMARK    3  A    between atoms: C_2  and  C_12
REMARK    4  A    between atoms: C_4  and  C_6
REMARK    5  A    between atoms: C_15  and  C_16
REMARK    6  A    between atoms: C_16  and  N_17
REMARK    7  A    between atoms: C_18  and  C_20
REMARK                            x       y       z     vdW  Elec       q    Type
REMARK                         _______ _______ _______ _____ _____    ______ ____
ROOT
ATOM      1  C   UNL     1      49.026   7.425  16.046  0.00  0.00    +0.000 A 
ATOM      2  C   UNL     1      48.892   8.684  15.457  0.00  0.00    +0.000 A 
ATOM      3  C   UNL     1      48.358   8.787  14.170  0.00  0.00    +0.000 A 
ATOM      4  C   UNL     1      47.953   7.636  13.493  0.00  0.00    +0.000 A 
ATOM      5  C   UNL     1      48.120   6.426  14.155  0.00  0.00    +0.000 A 
ATOM      6  N   UNL     1      48.634   6.296  15.403  0.00  0.00    +0.000 NA
ENDROOT
BRANCH   1   8
ATOM      7  C   UNL     1      48.749   7.824  18.499  0.00  0.00    +0.000 C 
ATOM      8  C   UNL     1      49.681   7.257  17.417  0.00  0.00    +0.000 C 
BRANCH   8   9
ATOM      9  N   UNL     1      50.039   5.867  17.686  0.00  0.00    +0.000 N 
ATOM     10  C   UNL     1      51.319   5.375  17.537  0.00  0.00    +0.000 C 
ATOM     11  O   UNL     1      52.263   6.051  17.137  0.00  0.00    +0.000 OA
ATOM     12  H   UNL     1      49.308   5.169  17.787  0.00  0.00    +0.000 HD
BRANCH  10  13
ATOM     13  C   UNL     1      51.490   3.891  17.927  0.00  0.00    +0.000 C 
ATOM     14  C   UNL     1      52.959   3.462  17.878  0.00  0.00    +0.000 C 
ATOM     15  C   UNL     1      53.104   1.991  18.270  0.00  0.00    +0.000 C 
ATOM     16  C   UNL     1      52.177   1.112  17.436  0.00  0.00    +0.000 C 
ATOM     17  C   UNL     1      50.742   1.634  17.458  0.00  0.00    +0.000 C 
ATOM     18  N   UNL     1      50.675   3.033  17.026  0.00  0.00    +0.000 NA
ATOM     19  H   UNL     1      49.705   3.348  17.090  0.00  0.00    +0.000 HD
ENDBRANCH  10  13
ENDBRANCH   8   9
ENDBRANCH   1   8
BRANCH   4  20
ATOM     20  C   UNL     1      47.417   7.685  12.091  0.00  0.00    +0.000 C 
BRANCH  20  21
ATOM     21  N   UNL     1      46.747   6.455  11.746  0.00  0.00    +0.000 N 
ATOM     22  C   UNL     1      45.376   6.360  11.751  0.00  0.00    +0.000 C 
ATOM     23  O   UNL     1      44.660   7.329  11.980  0.00  0.00    +0.000 OA
ATOM     24  H   UNL     1      47.298   5.604  11.777  0.00  0.00    +0.000 HD
BRANCH  22  25
ATOM     25  C   UNL     1      44.807   5.047  11.411  0.00  0.00    +0.000 A 
ATOM     26  C   UNL     1      44.047   4.362  12.350  0.00  0.00    +0.000 A 
ATOM     27  S   UNL     1      43.427   2.879  11.781  0.00  0.00    +0.000 S 
ATOM     28  C   UNL     1      44.197   3.072  10.276  0.00  0.00    +0.000 A 
ATOM     29  N   UNL     1      44.092   2.119   9.309  0.00  0.00    +0.000 NA
ATOM     30  C   UNL     1      44.751   2.381   8.229  0.00  0.00    +0.000 A 
ATOM     31  N   UNL     1      45.497   3.513   8.025  0.00  0.00    +0.000 N 
ATOM     32  C   UNL     1      45.607   4.515   8.961  0.00  0.00    +0.000 A 
ATOM     33  O   UNL     1      46.243   5.536   8.731  0.00  0.00    +0.000 OA
ATOM     34  C   UNL     1      44.896   4.262  10.201  0.00  0.00    +0.000 A 
ATOM     35  H   UNL     1      45.982   3.663   7.152  0.00  0.00    +0.000 HD
ENDBRANCH  22  25
ENDBRANCH  20  21
ENDBRANCH   4  20
TORSDOF 6
ENDMDL
MODEL 8
REMARK VINA RESULT:    -7.800      3.837      4.796
REMARK INTER + INTRA:         -10.698
REMARK INTER:                  -9.470
REMARK INTRA:                  -1.228
REMARK UNBOUND:                -0.162
REMARK  Name = 
REMARK  7 active torsions:
REMARK  status: ('A' for Active; 'I' for Inactive)
REMARK    1  A    between atoms: C_1  and  C_2
REMARK    2  A    between atoms: C_2  and  N_3
REMARK    3  A    between atoms: C_2  and  C_12
REMARK    4  A    between atoms: C_4  and  C_6
REMARK    5  A    between atoms: C_15  and  C_16
REMARK    6  A    between atoms: C_16  and  N_17
REMARK    7  A    between atoms: C_18  and  C_20
REMARK                            x       y       z     vdW  Elec       q    Type
REMARK                         _______ _______ _______ _____ _____    ______ ____
ROOT
ATOM      1  C   UNL     1      45.776   5.620  12.215  0.00  0.00    +0.000 A 
ATOM      2  C   UNL     1      46.125   6.968  12.094  0.00  0.00    +0.000 A 
ATOM      3  C   UNL     1      47.110   7.499  12.930  0.00  0.00    +0.000 A 
ATOM      4  C   UNL     1      47.744   6.679  13.863  0.00  0.00    +0.000 A 
ATOM      5  C   UNL     1      47.337   5.351  13.913  0.00  0.00    +0.000 A 
ATOM      6  N   UNL     1      46.385   4.809  13.116  0.00  0.00    +0.000 NA
ENDROOT
BRANCH   1   8
ATOM      7  C   UNL     1      43.574   6.087  11.126  0.00  0.00    +0.000 C 
ATOM      8  C   UNL     1      44.646   5.017  11.380  0.00  0.00    +0.000 C 
BRANCH   8   9
ATOM      9  N   UNL     1      45.138   4.437  10.133  0.00  0.00    +0.000 N 
ATOM     10  C   UNL     1      44.670   3.246   9.618  0.00  0.00    +0.000 C 
ATOM     11  O   UNL     1      43.823   2.553  10.175  0.00  0.00    +0.000 OA
ATOM     12  H   UNL     1      45.994   4.790   9.716  0.00  0.00    +0.000 HD
BRANCH  10  13
ATOM     13  C   UNL     1      45.286   2.842   8.261  0.00  0.00    +0.000 C 
ATOM     14  C   UNL     1      46.176   1.604   8.394  0.00  0.00    +0.000 C 
ATOM     15  C   UNL     1      46.772   1.221   7.038  0.00  0.00    +0.000 C 
ATOM     16  C   UNL     1      47.469   2.415   6.393  0.00  0.00    +0.000 C 
ATOM     17  C   UNL     1      46.561   3.642   6.362  0.00  0.00    +0.000 C 
ATOM     18  N   UNL     1      46.067   3.977   7.700  0.00  0.00    +0.000 NA
ATOM     19  H   UNL     1      45.438   4.780   7.625  0.00  0.00    +0.000 HD
ENDBRANCH  10  13
ENDBRANCH   8   9
ENDBRANCH   1   8
BRANCH   4  20
ATOM     20  C   UNL     1      48.776   7.209  14.818  0.00  0.00    +0.000 C 
BRANCH  20  21
ATOM     21  N   UNL     1      50.058   7.355  14.172  0.00  0.00    +0.000 N 
ATOM     22  C   UNL     1      50.724   8.557  14.168  0.00  0.00    +0.000 C 
ATOM     23  O   UNL     1      50.298   9.537  14.769  0.00  0.00    +0.000 OA
ATOM     24  H   UNL     1      50.317   6.648  13.493  0.00  0.00    +0.000 HD
BRANCH  22  25
ATOM     25  C   UNL     1      52.009   8.592  13.452  0.00  0.00    +0.000 A 
ATOM     26  C   UNL     1      53.155   9.009  14.116  0.00  0.00    +0.000 A 
ATOM     27  S   UNL     1      54.564   8.950  13.157  0.00  0.00    +0.000 S 
ATOM     28  C   UNL     1      53.685   8.416  11.802  0.00  0.00    +0.000 A 
ATOM     29  N   UNL     1      54.304   8.192  10.610  0.00  0.00    +0.000 NA
ATOM     30  C   UNL     1      53.511   7.819   9.660  0.00  0.00    +0.000 A 
ATOM     31  N   UNL     1      52.159   7.642   9.796  0.00  0.00    +0.000 N 
ATOM     32  C   UNL     1      51.496   7.828  10.987  0.00  0.00    +0.000 A 
ATOM     33  O   UNL     1      50.294   7.617  11.088  0.00  0.00    +0.000 OA
ATOM     34  C   UNL     1      52.340   8.263  12.085  0.00  0.00    +0.000 A 
ATOM     35  H   UNL     1      51.595   7.340   9.014  0.00  0.00    +0.000 HD
ENDBRANCH  22  25
ENDBRANCH  20  21
ENDBRANCH   4  20
TORSDOF 6
ENDMDL
MODEL 9
REMARK VINA RESULT:    -7.502      2.117      3.453
REMARK INTER + INTRA:         -10.295
REMARK INTER:                  -9.357
REMARK INTRA:                  -0.939
REMARK UNBOUND:                -0.162
REMARK  Name = 
REMARK  7 active torsions:
REMARK  status: ('A' for Active; 'I' for Inactive)
REMARK    1  A    between atoms: C_1  and  C_2
REMARK    2  A    between atoms: C_2  and  N_3
REMARK    3  A    between atoms: C_2  and  C_12
REMARK    4  A    between atoms: C_4  and  C_6
REMARK    5  A    between atoms: C_15  and  C_16
REMARK    6  A    between atoms: C_16  and  N_17
REMARK    7  A    between atoms: C_18  and  C_20
REMARK                            x       y       z     vdW  Elec       q    Type
REMARK                         _______ _______ _______ _____ _____    ______ ____
ROOT
ATOM      1  C   UNL     1      48.196   7.406  13.747  0.00  0.00    +0.000 A 
ATOM      2  C   UNL     1      48.456   8.520  14.548  0.00  0.00    +0.000 A 
ATOM      3  C   UNL     1      48.676   8.346  15.916  0.00  0.00    +0.000 A 
ATOM      4  C   UNL     1      48.647   7.063  16.465  0.00  0.00    +0.000 A 
ATOM      5  C   UNL     1      48.384   6.012  15.595  0.00  0.00    +0.000 A 
ATOM      6  N   UNL     1      48.167   6.152  14.264  0.00  0.00    +0.000 NA
ENDROOT
BRANCH   1   8
ATOM      7  C   UNL     1      49.174   7.603  11.454  0.00  0.00    +0.000 C 
ATOM      8  C   UNL     1      47.868   7.558  12.261  0.00  0.00    +0.000 C 
BRANCH   8   9
ATOM      9  N   UNL     1      46.976   6.504  11.788  0.00  0.00    +0.000 N 
ATOM     10  C   UNL     1      45.668   6.732  11.416  0.00  0.00    +0.000 C 
ATOM     11  O   UNL     1      45.127   7.833  11.477  0.00  0.00    +0.000 OA
ATOM     12  H   UNL     1      47.231   5.529  11.922  0.00  0.00    +0.000 HD
BRANCH  10  13
ATOM     13  C   UNL     1      44.917   5.488  10.894  0.00  0.00    +0.000 C 
ATOM     14  C   UNL     1      45.164   4.267  11.783  0.00  0.00    +0.000 C 
ATOM     15  C   UNL     1      44.409   3.049  11.247  0.00  0.00    +0.000 C 
ATOM     16  C   UNL     1      44.729   2.814   9.774  0.00  0.00    +0.000 C 
ATOM     17  C   UNL     1      44.542   4.086   8.952  0.00  0.00    +0.000 C 
ATOM     18  N   UNL     1      45.331   5.196   9.495  0.00  0.00    +0.000 NA
ATOM     19  H   UNL     1      45.147   6.032   8.935  0.00  0.00    +0.000 HD
ENDBRANCH  10  13
ENDBRANCH   8   9
ENDBRANCH   1   8
BRANCH   4  20
ATOM     20  C   UNL     1      48.830   6.823  17.937  0.00  0.00    +0.000 C 
BRANCH  20  21
ATOM     21  N   UNL     1      49.796   5.780  18.180  0.00  0.00    +0.000 N 
ATOM     22  C   UNL     1      51.137   5.981  17.960  0.00  0.00    +0.000 C 
ATOM     23  O   UNL     1      51.582   7.071  17.617  0.00  0.00    +0.000 OA
ATOM     24  H   UNL     1      49.445   4.830  18.239  0.00  0.00    +0.000 HD
BRANCH  22  25
ATOM     25  C   UNL     1      52.024   4.835  18.214  0.00  0.00    +0.000 A 
ATOM     26  C   UNL     1      53.272   5.043  18.785  0.00  0.00    +0.000 A 
ATOM     27  S   UNL     1      54.154   3.608  19.052  0.00  0.00    +0.000 S 
ATOM     28  C   UNL     1      52.920   2.659  18.365  0.00  0.00    +0.000 A 
ATOM     29  N   UNL     1      53.055   1.308  18.257  0.00  0.00    +0.000 NA
ATOM     30  C   UNL     1      52.056   0.717  17.689  0.00  0.00    +0.000 A 
ATOM     31  N   UNL     1      50.933   1.352  17.227  0.00  0.00    +0.000 N 
ATOM     32  C   UNL     1      50.741   2.709  17.341  0.00  0.00    +0.000 A 
ATOM     33  O   UNL     1      49.705   3.242  16.960  0.00  0.00    +0.000 OA
ATOM     34  C   UNL     1      51.843   3.424  17.960  0.00  0.00    +0.000 A 
ATOM     35  H   UNL     1      50.181   0.829  16.800  0.00  0.00    +0.000 HD
ENDBRANCH  22  25
ENDBRANCH  20  21
ENDBRANCH   4  20
TORSDOF 6
ENDMDL
