MODEL 1
REMARK VINA RESULT:    -8.403      0.000      0.000
REMARK INTER + INTRA:         -13.474
REMARK INTER:                 -12.087
REMARK INTRA:                  -1.387
REMARK UNBOUND:                -1.387
REMARK  Name = 
REMARK  8 active torsions:
REMARK  status: ('A' for Active; 'I' for Inactive)
REMARK    1  A    between atoms: N_1  and  C_2
REMARK    2  A    between atoms: C_2  and  C_3
REMARK    3  A    between atoms: C_3  and  N_4
REMARK    4  A    between atoms: C_3  and  C_17
REMARK    5  A    between atoms: C_5  and  C_7
REMARK    6  A    between atoms: C_20  and  C_21
REMARK    7  A    between atoms: C_21  and  C_22
REMARK    8  A    between atoms: C_22  and  C_23
REMARK                            x       y       z     vdW  Elec       q    Type
REMARK                         _______ _______ _______ _____ _____    ______ ____
ROOT
ATOM      1  C   UNL     1      47.870   6.959  13.512  0.00  0.00    +0.000 C 
ENDROOT
BRANCH   1   2
ATOM      2  C   UNL     1      46.878   6.172  12.655  0.00  0.00    +0.000 A 
ATOM      3  C   UNL     1      46.322   4.978  13.128  0.00  0.00    +0.000 A 
ATOM      4  C   UNL     1      45.442   4.232  12.334  0.00  0.00    +0.000 A 
ATOM      5  C   UNL     1      45.075   4.670  11.054  0.00  0.00    +0.000 A 
ATOM      6  C   UNL     1      45.620   5.875  10.588  0.00  0.00    +0.000 A 
ATOM      7  C   UNL     1      46.501   6.620  11.379  0.00  0.00    +0.000 A 
BRANCH   5   8
ATOM      8  C   UNL     1      44.181   3.864  10.129  0.00  0.00    +0.000 C 
BRANCH   8   9
ATOM      9  C   UNL     1      44.660   2.442   9.820  0.00  0.00    +0.000 C 
BRANCH   9  10
ATOM     10  C   UNL     1      45.535   2.383   8.592  0.00  0.00    +0.000 A 
ATOM     11  C   UNL     1      45.657   3.488   7.752  0.00  0.00    +0.000 A 
ATOM     12  C   UNL     1      46.508   3.407   6.651  0.00  0.00    +0.000 A 
ATOM     13  C   UNL     1      47.208   2.231   6.418  0.00  0.00    +0.000 A 
ATOM     14  C   UNL     1      47.020   1.175   7.294  0.00  0.00    +0.000 A 
ATOM     15  N   UNL     1      46.200   1.224   8.368  0.00  0.00    +0.000 NA
ENDBRANCH   9  10
ENDBRANCH   8   9
ENDBRANCH   5   8
ENDBRANCH   1   2
BRANCH   1  16
ATOM     16  N   UNL     1      47.829   6.418  14.861  0.00  0.00    +0.000 N 
ATOM     17  C   UNL     1      48.937   6.246  15.647  0.00  0.00    +0.000 C 
ATOM     18  O   UNL     1      50.051   6.657  15.341  0.00  0.00    +0.000 OA
ATOM     19  H   UNL     1      47.027   5.827  15.049  0.00  0.00    +0.000 HD
BRANCH  17  20
ATOM     20  C   UNL     1      48.693   5.582  16.929  0.00  0.00    +0.000 A 
ATOM     21  C   UNL     1      48.813   4.205  17.045  0.00  0.00    +0.000 A 
ATOM     22  S   UNL     1      48.519   3.632  18.625  0.00  0.00    +0.000 S 
ATOM     23  C   UNL     1      48.170   5.199  19.191  0.00  0.00    +0.000 A 
ATOM     24  N   UNL     1      47.804   5.419  20.483  0.00  0.00    +0.000 NA
ATOM     25  C   UNL     1      47.540   6.654  20.761  0.00  0.00    +0.000 A 
ATOM     26  N   UNL     1      47.623   7.689  19.867  0.00  0.00    +0.000 N 
ATOM     27  C   UNL     1      48.023   7.524  18.568  0.00  0.00    +0.000 A 
ATOM     28  O   UNL     1      48.153   8.480  17.814  0.00  0.00    +0.000 OA
ATOM     29  C   UNL     1      48.306   6.150  18.196  0.00  0.00    +0.000 A 
ATOM     30  H   UNL     1      47.424   8.641  20.150  0.00  0.00    +0.000 HD
ENDBRANCH  17  20
ENDBRANCH   1  16
BRANCH   1  31
ATOM     31  C   UNL     1      47.562   8.486  13.477  0.00  0.00    +0.000 C 
BRANCH  31  32
ATOM     32  N   UNL     1      47.144   9.050  14.769  0.00  0.00    +0.000 NA
ATOM     33  H   UNL     1      47.957   9.091  15.382  0.00  0.00    +0.000 HD
ATOM     34  H   UNL     1      46.483   8.413  15.216  0.00  0.00    +0.000 HD
ENDBRANCH  31  32
ENDBRANCH   1  31
TORSDOF 8
ENDMDL
MODEL 2
REMARK VINA RESULT:    -7.593      1.784      2.323
REMARK INTER + INTRA:         -12.309
REMARK INTER:                 -11.105
REMARK INTRA:                  -1.203
REMARK UNBOUND:                -1.387
REMARK  Name = 
REMARK  8 active torsions:
REMARK  status: ('A' for Active; 'I' for Inactive)
REMARK    1  A    between atoms: N_1  and  C_2
REMARK    2  A    between atoms: C_2  and  C_3
REMARK    3  A    between atoms: C_3  and  N_4
REMARK    4  A    between atoms: C_3  and  C_17
REMARK    5  A    between atoms: C_5  and  C_7
REMARK    6  A    between atoms: C_20  and  C_21
REMARK    7  A    between atoms: C_21  and  C_22
REMARK    8  A    between atoms: C_22  and  C_23
REMARK                            x       y       z     vdW  Elec       q    Type
REMARK                         _______ _______ _______ _____ _____    ______ ____
ROOT
ATOM      1  C   UNL     1      48.736   6.652  13.571  0.00  0.00    +0.000 C 
ENDROOT
BRANCH   1   2
ATOM      2  C   UNL     1      47.476   6.020  12.980  0.00  0.00    +0.000 A 
ATOM      3  C   UNL     1      46.949   4.843  13.524  0.00  0.00    +0.000 A 
ATOM      4  C   UNL     1      45.817   4.238  12.963  0.00  0.00    +0.000 A 
ATOM      5  C   UNL     1      45.166   4.804  11.859  0.00  0.00    +0.000 A 
ATOM      6  C   UNL     1      45.685   5.992  11.326  0.00  0.00    +0.000 A 
ATOM      7  C   UNL     1      46.817   6.597  11.882  0.00  0.00    +0.000 A 
BRANCH   5   8
ATOM      8  C   UNL     1      43.979   4.151  11.174  0.00  0.00    +0.000 C 
BRANCH   8   9
ATOM      9  C   UNL     1      43.877   4.386   9.663  0.00  0.00    +0.000 C 
BRANCH   9  10
ATOM     10  C   UNL     1      44.911   3.607   8.888  0.00  0.00    +0.000 A 
ATOM     11  C   UNL     1      45.075   2.240   9.097  0.00  0.00    +0.000 A 
ATOM     12  C   UNL     1      46.011   1.548   8.331  0.00  0.00    +0.000 A 
ATOM     13  C   UNL     1      46.757   2.237   7.385  0.00  0.00    +0.000 A 
ATOM     14  C   UNL     1      46.541   3.598   7.248  0.00  0.00    +0.000 A 
ATOM     15  N   UNL     1      45.642   4.295   7.979  0.00  0.00    +0.000 NA
ENDBRANCH   9  10
ENDBRANCH   8   9
ENDBRANCH   5   8
ENDBRANCH   1   2
BRANCH   1  16
ATOM     16  N   UNL     1      48.418   7.126  14.909  0.00  0.00    +0.000 N 
ATOM     17  C   UNL     1      49.221   6.926  16.000  0.00  0.00    +0.000 C 
ATOM     18  O   UNL     1      50.348   6.448  15.928  0.00  0.00    +0.000 OA
ATOM     19  H   UNL     1      47.427   7.264  15.078  0.00  0.00    +0.000 HD
BRANCH  17  20
ATOM     20  C   UNL     1      48.665   7.384  17.274  0.00  0.00    +0.000 A 
ATOM     21  C   UNL     1      48.407   8.729  17.488  0.00  0.00    +0.000 A 
ATOM     22  S   UNL     1      47.731   9.052  19.022  0.00  0.00    +0.000 S 
ATOM     23  C   UNL     1      47.812   7.410  19.468  0.00  0.00    +0.000 A 
ATOM     24  N   UNL     1      47.412   6.991  20.699  0.00  0.00    +0.000 NA
ATOM     25  C   UNL     1      47.560   5.724  20.905  0.00  0.00    +0.000 A 
ATOM     26  N   UNL     1      48.060   4.837  19.988  0.00  0.00    +0.000 N 
ATOM     27  C   UNL     1      48.441   5.204  18.725  0.00  0.00    +0.000 A 
ATOM     28  O   UNL     1      48.818   4.375  17.906  0.00  0.00    +0.000 OA
ATOM     29  C   UNL     1      48.318   6.624  18.449  0.00  0.00    +0.000 A 
ATOM     30  H   UNL     1      48.132   3.849  20.201  0.00  0.00    +0.000 HD
ENDBRANCH  17  20
ENDBRANCH   1  16
BRANCH   1  31
ATOM     31  C   UNL     1      49.284   7.788  12.656  0.00  0.00    +0.000 C 
BRANCH  31  32
ATOM     32  N   UNL     1      50.422   7.392  11.814  0.00  0.00    +0.000 NA
ATOM     33  H   UNL     1      50.953   6.674  12.305  0.00  0.00    +0.000 HD
ATOM     34  H   UNL     1      51.052   8.187  11.705  0.00  0.00    +0.000 HD
ENDBRANCH  31  32
ENDBRANCH   1  31
TORSDOF 8
ENDMDL
MODEL 3
REMARK VINA RESULT:    -7.450      2.821      4.917
REMARK INTER + INTRA:         -12.103
REMARK INTER:                 -10.512
REMARK INTRA:                  -1.591
REMARK UNBOUND:                -1.387
REMARK  Name = 
REMARK  8 active torsions:
REMARK  status: ('A' for Active; 'I' for Inactive)
REMARK    1  A    between atoms: N_1  and  C_2
REMARK    2  A    between atoms: C_2  and  C_3
REMARK    3  A    between atoms: C_3  and  N_4
REMARK    4  A    between atoms: C_3  and  C_17
REMARK    5  A    between atoms: C_5  and  C_7
REMARK    6  A    between atoms: C_20  and  C_21
REMARK    7  A    between atoms: C_21  and  C_22
REMARK    8  A    between atoms: C_22  and  C_23
REMARK                            x       y       z     vdW  Elec       q    Type
REMARK                         _______ _______ _______ _____ _____    ______ ____
ROOT
ATOM      1  C   UNL     1      47.104   5.860  14.331  0.00  0.00    +0.000 C 
ENDROOT
BRANCH   1   2
ATOM      2  C   UNL     1      46.313   5.306  13.145  0.00  0.00    +0.000 A 
ATOM      3  C   UNL     1      45.736   4.033  13.209  0.00  0.00    +0.000 A 
ATOM      4  C   UNL     1      45.043   3.503  12.113  0.00  0.00    +0.000 A 
ATOM      5  C   UNL     1      44.886   4.241  10.932  0.00  0.00    +0.000 A 
ATOM      6  C   UNL     1      45.450   5.523  10.876  0.00  0.00    +0.000 A 
ATOM      7  C   UNL     1      46.145   6.052  11.968  0.00  0.00    +0.000 A 
BRANCH   5   8
ATOM      8  C   UNL     1      44.204   3.685   9.695  0.00  0.00    +0.000 C 
BRANCH   8   9
ATOM      9  C   UNL     1      44.588   2.251   9.317  0.00  0.00    +0.000 C 
BRANCH   9  10
ATOM     10  C   UNL     1      45.690   2.202   8.288  0.00  0.00    +0.000 A 
ATOM     11  C   UNL     1      46.027   3.336   7.552  0.00  0.00    +0.000 A 
ATOM     12  C   UNL     1      47.079   3.261   6.641  0.00  0.00    +0.000 A 
ATOM     13  C   UNL     1      47.761   2.061   6.488  0.00  0.00    +0.000 A 
ATOM     14  C   UNL     1      47.355   0.978   7.249  0.00  0.00    +0.000 A 
ATOM     15  N   UNL     1      46.336   1.021   8.137  0.00  0.00    +0.000 NA
ENDBRANCH   9  10
ENDBRANCH   8   9
ENDBRANCH   5   8
ENDBRANCH   1   2
BRANCH   1  16
ATOM     16  N   UNL     1      48.228   6.622  13.807  0.00  0.00    +0.000 N 
ATOM     17  C   UNL     1      48.853   7.627  14.494  0.00  0.00    +0.000 C 
ATOM     18  O   UNL     1      48.615   7.891  15.668  0.00  0.00    +0.000 OA
ATOM     19  H   UNL     1      48.278   6.646  12.794  0.00  0.00    +0.000 HD
BRANCH  17  20
ATOM     20  C   UNL     1      49.887   8.342  13.744  0.00  0.00    +0.000 A 
ATOM     21  C   UNL     1      51.224   8.215  14.090  0.00  0.00    +0.000 A 
ATOM     22  S   UNL     1      52.272   9.101  13.075  0.00  0.00    +0.000 S 
ATOM     23  C   UNL     1      50.968   9.725  12.176  0.00  0.00    +0.000 A 
ATOM     24  N   UNL     1      51.169  10.597  11.151  0.00  0.00    +0.000 NA
ATOM     25  C   UNL     1      50.084  11.009  10.581  0.00  0.00    +0.000 A 
ATOM     26  N   UNL     1      48.819  10.618  10.934  0.00  0.00    +0.000 N 
ATOM     27  C   UNL     1      48.569   9.715  11.933  0.00  0.00    +0.000 A 
ATOM     28  O   UNL     1      47.431   9.334  12.177  0.00  0.00    +0.000 OA
ATOM     29  C   UNL     1      49.753   9.239  12.624  0.00  0.00    +0.000 A 
ATOM     30  H   UNL     1      48.008  10.960  10.434  0.00  0.00    +0.000 HD
ENDBRANCH  17  20
ENDBRANCH   1  16
BRANCH   1  31
ATOM     31  C   UNL     1      47.558   4.721  15.292  0.00  0.00    +0.000 C 
BRANCH  31  32
ATOM     32  N   UNL     1      47.549   5.089  16.715  0.00  0.00    +0.000 NA
ATOM     33  H   UNL     1      48.499   5.014  17.075  0.00  0.00    +0.000 HD
ATOM     34  H   UNL     1      46.993   4.410  17.235  0.00  0.00    +0.000 HD
ENDBRANCH  31  32
ENDBRANCH   1  31
TORSDOF 8
ENDMDL
MODEL 4
REMARK VINA RESULT:    -7.444      3.035      4.649
REMARK INTER + INTRA:         -12.095
REMARK INTER:                 -10.546
REMARK INTRA:                  -1.549
REMARK UNBOUND:                -1.387
REMARK  Name = 
REMARK  8 active torsions:
REMARK  status: ('A' for Active; 'I' for Inactive)
REMARK    1  A    between atoms: N_1  and  C_2
REMARK    2  A    between atoms: C_2  and  C_3
REMARK    3  A    between atoms: C_3  and  N_4
REMARK    4  A    between atoms: C_3  and  C_17
REMARK    5  A    between atoms: C_5  and  C_7
REMARK    6  A    between atoms: C_20  and  C_21
REMARK    7  A    between atoms: C_21  and  C_22
REMARK    8  A    between atoms: C_22  and  C_23
REMARK                            x       y       z     vdW  Elec       q    Type
REMARK                         _______ _______ _______ _____ _____    ______ ____
ROOT
ATOM      1  C   UNL     1      47.142   5.899  14.375  0.00  0.00    +0.000 C 
ENDROOT
BRANCH   1   2
ATOM      2  C   UNL     1      46.400   5.297  13.181  0.00  0.00    +0.000 A 
ATOM      3  C   UNL     1      46.126   6.073  12.050  0.00  0.00    +0.000 A 
ATOM      4  C   UNL     1      45.412   5.540  10.969  0.00  0.00    +0.000 A 
ATOM      5  C   UNL     1      44.974   4.208  10.978  0.00  0.00    +0.000 A 
ATOM      6  C   UNL     1      45.264   3.427  12.106  0.00  0.00    +0.000 A 
ATOM      7  C   UNL     1      45.974   3.959  13.187  0.00  0.00    +0.000 A 
BRANCH   5   8
ATOM      8  C   UNL     1      44.140   3.604   9.863  0.00  0.00    +0.000 C 
BRANCH   8   9
ATOM      9  C   UNL     1      44.545   2.193   9.426  0.00  0.00    +0.000 C 
BRANCH   9  10
ATOM     10  C   UNL     1      45.596   2.204   8.344  0.00  0.00    +0.000 A 
ATOM     11  C   UNL     1      45.802   3.340   7.565  0.00  0.00    +0.000 A 
ATOM     12  C   UNL     1      46.811   3.325   6.603  0.00  0.00    +0.000 A 
ATOM     13  C   UNL     1      47.580   2.181   6.444  0.00  0.00    +0.000 A 
ATOM     14  C   UNL     1      47.302   1.090   7.250  0.00  0.00    +0.000 A 
ATOM     15  N   UNL     1      46.328   1.075   8.188  0.00  0.00    +0.000 NA
ENDBRANCH   9  10
ENDBRANCH   8   9
ENDBRANCH   5   8
ENDBRANCH   1   2
BRANCH   1  16
ATOM     16  N   UNL     1      48.307   6.610  13.870  0.00  0.00    +0.000 N 
ATOM     17  C   UNL     1      48.401   7.974  13.815  0.00  0.00    +0.000 C 
ATOM     18  O   UNL     1      47.572   8.728  14.311  0.00  0.00    +0.000 OA
ATOM     19  H   UNL     1      48.870   6.076  13.217  0.00  0.00    +0.000 HD
BRANCH  17  20
ATOM     20  C   UNL     1      49.611   8.487  13.168  0.00  0.00    +0.000 A 
ATOM     21  C   UNL     1      49.527   9.206  11.985  0.00  0.00    +0.000 A 
ATOM     22  S   UNL     1      51.043   9.742  11.411  0.00  0.00    +0.000 S 
ATOM     23  C   UNL     1      51.862   8.985  12.697  0.00  0.00    +0.000 A 
ATOM     24  N   UNL     1      53.219   9.027  12.794  0.00  0.00    +0.000 NA
ATOM     25  C   UNL     1      53.703   8.382  13.804  0.00  0.00    +0.000 A 
ATOM     26  N   UNL     1      52.952   7.710  14.733  0.00  0.00    +0.000 N 
ATOM     27  C   UNL     1      51.584   7.670  14.699  0.00  0.00    +0.000 A 
ATOM     28  O   UNL     1      50.940   7.119  15.583  0.00  0.00    +0.000 OA
ATOM     29  C   UNL     1      50.989   8.359  13.568  0.00  0.00    +0.000 A 
ATOM     30  H   UNL     1      53.388   7.240  15.517  0.00  0.00    +0.000 HD
ENDBRANCH  17  20
ENDBRANCH   1  16
BRANCH   1  31
ATOM     31  C   UNL     1      47.523   4.804  15.416  0.00  0.00    +0.000 C 
BRANCH  31  32
ATOM     32  N   UNL     1      48.706   5.126  16.228  0.00  0.00    +0.000 NA
ATOM     33  H   UNL     1      49.346   4.333  16.195  0.00  0.00    +0.000 HD
ATOM     34  H   UNL     1      48.427   5.225  17.204  0.00  0.00    +0.000 HD
ENDBRANCH  31  32
ENDBRANCH   1  31
TORSDOF 8
ENDMDL
MODEL 5
REMARK VINA RESULT:    -7.217      2.658      4.534
REMARK INTER + INTRA:         -11.768
REMARK INTER:                 -10.488
REMARK INTRA:                  -1.279
REMARK UNBOUND:                -1.387
REMARK  Name = 
REMARK  8 active torsions:
REMARK  status: ('A' for Active; 'I' for Inactive)
REMARK    1  A    between atoms: N_1  and  C_2
REMARK    2  A    between atoms: C_2  and  C_3
REMARK    3  A    between atoms: C_3  and  N_4
REMARK    4  A    between atoms: C_3  and  C_17
REMARK    5  A    between atoms: C_5  and  C_7
REMARK    6  A    between atoms: C_20  and  C_21
REMARK    7  A    between atoms: C_21  and  C_22
REMARK    8  A    between atoms: C_22  and  C_23
REMARK                            x       y       z     vdW  Elec       q    Type
REMARK                         _______ _______ _______ _____ _____    ______ ____
ROOT
ATOM      1  C   UNL     1      47.147   5.057  15.026  0.00  0.00    +0.000 C 
ENDROOT
BRANCH   1   2
ATOM      2  C   UNL     1      46.349   4.810  13.745  0.00  0.00    +0.000 A 
ATOM      3  C   UNL     1      46.173   3.510  13.257  0.00  0.00    +0.000 A 
ATOM      4  C   UNL     1      45.476   3.280  12.064  0.00  0.00    +0.000 A 
ATOM      5  C   UNL     1      44.915   4.340  11.338  0.00  0.00    +0.000 A 
ATOM      6  C   UNL     1      45.078   5.639  11.837  0.00  0.00    +0.000 A 
ATOM      7  C   UNL     1      45.776   5.872  13.027  0.00  0.00    +0.000 A 
BRANCH   5   8
ATOM      8  C   UNL     1      44.211   4.149  10.007  0.00  0.00    +0.000 C 
BRANCH   8   9
ATOM      9  C   UNL     1      44.335   2.753   9.388  0.00  0.00    +0.000 C 
BRANCH   9  10
ATOM     10  C   UNL     1      45.465   2.662   8.393  0.00  0.00    +0.000 A 
ATOM     11  C   UNL     1      46.178   1.476   8.233  0.00  0.00    +0.000 A 
ATOM     12  C   UNL     1      47.187   1.420   7.273  0.00  0.00    +0.000 A 
ATOM     13  C   UNL     1      47.459   2.545   6.506  0.00  0.00    +0.000 A 
ATOM     14  C   UNL     1      46.712   3.688   6.737  0.00  0.00    +0.000 A 
ATOM     15  N   UNL     1      45.730   3.772   7.663  0.00  0.00    +0.000 NA
ENDBRANCH   9  10
ENDBRANCH   8   9
ENDBRANCH   5   8
ENDBRANCH   1   2
BRANCH   1  16
ATOM     16  N   UNL     1      48.362   5.774  14.670  0.00  0.00    +0.000 N 
ATOM     17  C   UNL     1      48.956   6.710  15.472  0.00  0.00    +0.000 C 
ATOM     18  O   UNL     1      48.600   6.935  16.623  0.00  0.00    +0.000 OA
ATOM     19  H   UNL     1      48.529   5.840  13.671  0.00  0.00    +0.000 HD
BRANCH  17  20
ATOM     20  C   UNL     1      50.106   7.396  14.879  0.00  0.00    +0.000 A 
ATOM     21  C   UNL     1      51.342   7.373  15.508  0.00  0.00    +0.000 A 
ATOM     22  S   UNL     1      52.557   8.203  14.641  0.00  0.00    +0.000 S 
ATOM     23  C   UNL     1      51.456   8.663  13.426  0.00  0.00    +0.000 A 
ATOM     24  N   UNL     1      51.845   9.435  12.375  0.00  0.00    +0.000 NA
ATOM     25  C   UNL     1      50.896   9.730  11.549  0.00  0.00    +0.000 A 
ATOM     26  N   UNL     1      49.596   9.313  11.673  0.00  0.00    +0.000 N 
ATOM     27  C   UNL     1      49.165   8.507  12.691  0.00  0.00    +0.000 A 
ATOM     28  O   UNL     1      48.012   8.095  12.735  0.00  0.00    +0.000 OA
ATOM     29  C   UNL     1      50.188   8.165  13.663  0.00  0.00    +0.000 A 
ATOM     30  H   UNL     1      48.900   9.560  10.980  0.00  0.00    +0.000 HD
ENDBRANCH  17  20
ENDBRANCH   1  16
BRANCH   1  31
ATOM     31  C   UNL     1      47.446   3.723  15.773  0.00  0.00    +0.000 C 
BRANCH  31  32
ATOM     32  N   UNL     1      46.754   3.584  17.064  0.00  0.00    +0.000 NA
ATOM     33  H   UNL     1      47.183   4.224  17.730  0.00  0.00    +0.000 HD
ATOM     34  H   UNL     1      46.911   2.645  17.430  0.00  0.00    +0.000 HD
ENDBRANCH  31  32
ENDBRANCH   1  31
TORSDOF 8
ENDMDL
MODEL 6
REMARK VINA RESULT:    -7.201      2.863      4.090
REMARK INTER + INTRA:         -11.746
REMARK INTER:                 -10.594
REMARK INTRA:                  -1.152
REMARK UNBOUND:                -1.387
REMARK  Name = 
REMARK  8 active torsions:
REMARK  status: ('A' for Active; 'I' for Inactive)
REMARK    1  A    between atoms: N_1  and  C_2
REMARK    2  A    between atoms: C_2  and  C_3
REMARK    3  A    between atoms: C_3  and  N_4
REMARK    4  A    between atoms: C_3  and  C_17
REMARK    5  A    between atoms: C_5  and  C_7
REMARK    6  A    between atoms: C_20  and  C_21
REMARK    7  A    between atoms: C_21  and  C_22
REMARK    8  A    between atoms: C_22  and  C_23
REMARK                            x       y       z     vdW  Elec       q    Type
REMARK                         _______ _______ _______ _____ _____    ______ ____
ROOT
ATOM      1  C   UNL     1      47.163   5.134  15.026  0.00  0.00    +0.000 C 
ENDROOT
BRANCH   1   2
ATOM      2  C   UNL     1      46.491   4.897  13.673  0.00  0.00    +0.000 A 
ATOM      3  C   UNL     1      46.340   5.948  12.761  0.00  0.00    +0.000 A 
ATOM      4  C   UNL     1      45.692   5.747  11.536  0.00  0.00    +0.000 A 
ATOM      5  C   UNL     1      45.199   4.485  11.177  0.00  0.00    +0.000 A 
ATOM      6  C   UNL     1      45.366   3.430  12.084  0.00  0.00    +0.000 A 
ATOM      7  C   UNL     1      46.010   3.629  13.310  0.00  0.00    +0.000 A 
BRANCH   5   8
ATOM      8  C   UNL     1      44.430   4.233   9.892  0.00  0.00    +0.000 C 
BRANCH   8   9
ATOM      9  C   UNL     1      44.394   2.775   9.420  0.00  0.00    +0.000 C 
BRANCH   9  10
ATOM     10  C   UNL     1      45.477   2.468   8.416  0.00  0.00    +0.000 A 
ATOM     11  C   UNL     1      45.950   3.456   7.555  0.00  0.00    +0.000 A 
ATOM     12  C   UNL     1      46.981   3.144   6.671  0.00  0.00    +0.000 A 
ATOM     13  C   UNL     1      47.507   1.859   6.668  0.00  0.00    +0.000 A 
ATOM     14  C   UNL     1      46.971   0.932   7.546  0.00  0.00    +0.000 A 
ATOM     15  N   UNL     1      45.970   1.206   8.412  0.00  0.00    +0.000 NA
ENDBRANCH   9  10
ENDBRANCH   8   9
ENDBRANCH   5   8
ENDBRANCH   1   2
BRANCH   1  16
ATOM     16  N   UNL     1      48.359   5.930  14.803  0.00  0.00    +0.000 N 
ATOM     17  C   UNL     1      48.920   6.744  15.751  0.00  0.00    +0.000 C 
ATOM     18  O   UNL     1      48.549   6.774  16.919  0.00  0.00    +0.000 OA
ATOM     19  H   UNL     1      48.532   6.158  13.830  0.00  0.00    +0.000 HD
BRANCH  17  20
ATOM     20  C   UNL     1      50.055   7.545  15.288  0.00  0.00    +0.000 A 
ATOM     21  C   UNL     1      49.856   8.632  14.450  0.00  0.00    +0.000 A 
ATOM     22  S   UNL     1      51.299   9.452  14.052  0.00  0.00    +0.000 S 
ATOM     23  C   UNL     1      52.240   8.348  14.944  0.00  0.00    +0.000 A 
ATOM     24  N   UNL     1      53.596   8.457  14.998  0.00  0.00    +0.000 NA
ATOM     25  C   UNL     1      54.178   7.531  15.687  0.00  0.00    +0.000 A 
ATOM     26  N   UNL     1      53.527   6.515  16.337  0.00  0.00    +0.000 N 
ATOM     27  C   UNL     1      52.164   6.386  16.343  0.00  0.00    +0.000 A 
ATOM     28  O   UNL     1      51.610   5.507  16.992  0.00  0.00    +0.000 OA
ATOM     29  C   UNL     1      51.461   7.387  15.562  0.00  0.00    +0.000 A 
ATOM     30  H   UNL     1      54.038   5.830  16.880  0.00  0.00    +0.000 HD
ENDBRANCH  17  20
ENDBRANCH   1  16
BRANCH   1  31
ATOM     31  C   UNL     1      47.474   3.788  15.747  0.00  0.00    +0.000 C 
BRANCH  31  32
ATOM     32  N   UNL     1      46.734   3.588  17.002  0.00  0.00    +0.000 NA
ATOM     33  H   UNL     1      47.122   4.212  17.709  0.00  0.00    +0.000 HD
ATOM     34  H   UNL     1      46.896   2.639  17.341  0.00  0.00    +0.000 HD
ENDBRANCH  31  32
ENDBRANCH   1  31
TORSDOF 8
ENDMDL
MODEL 7
REMARK VINA RESULT:    -7.115      3.596      5.699
REMARK INTER + INTRA:         -11.622
REMARK INTER:                 -10.128
REMARK INTRA:                  -1.494
REMARK UNBOUND:                -1.387
REMARK  Name = 
REMARK  8 active torsions:
REMARK  status: ('A' for Active; 'I' for Inactive)
REMARK    1  A    between atoms: N_1  and  C_2
REMARK    2  A    between atoms: C_2  and  C_3
REMARK    3  A    between atoms: C_3  and  N_4
REMARK    4  A    between atoms: C_3  and  C_17
REMARK    5  A    between atoms: C_5  and  C_7
REMARK    6  A    between atoms: C_20  and  C_21
REMARK    7  A    between atoms: C_21  and  C_22
REMARK    8  A    between atoms: C_22  and  C_23
REMARK                            x       y       z     vdW  Elec       q    Type
REMARK                         _______ _______ _______ _____ _____    ______ ____
ROOT
ATOM      1  C   UNL     1      47.483   7.003  13.617  0.00  0.00    +0.000 C 
ENDROOT
BRANCH   1   2
ATOM      2  C   UNL     1      46.640   6.162  12.658  0.00  0.00    +0.000 A 
ATOM      3  C   UNL     1      46.449   6.572  11.334  0.00  0.00    +0.000 A 
ATOM      4  C   UNL     1      45.647   5.827  10.461  0.00  0.00    +0.000 A 
ATOM      5  C   UNL     1      45.033   4.638  10.879  0.00  0.00    +0.000 A 
ATOM      6  C   UNL     1      45.240   4.220  12.201  0.00  0.00    +0.000 A 
ATOM      7  C   UNL     1      46.039   4.964  13.075  0.00  0.00    +0.000 A 
BRANCH   5   8
ATOM      8  C   UNL     1      44.101   3.832   9.992  0.00  0.00    +0.000 C 
BRANCH   8   9
ATOM      9  C   UNL     1      44.548   2.396   9.697  0.00  0.00    +0.000 C 
BRANCH   9  10
ATOM     10  C   UNL     1      45.475   2.314   8.510  0.00  0.00    +0.000 A 
ATOM     11  C   UNL     1      45.589   3.381   7.621  0.00  0.00    +0.000 A 
ATOM     12  C   UNL     1      46.488   3.283   6.561  0.00  0.00    +0.000 A 
ATOM     13  C   UNL     1      47.242   2.127   6.414  0.00  0.00    +0.000 A 
ATOM     14  C   UNL     1      47.059   1.107   7.333  0.00  0.00    +0.000 A 
ATOM     15  N   UNL     1      46.193   1.174   8.370  0.00  0.00    +0.000 NA
ENDBRANCH   9  10
ENDBRANCH   8   9
ENDBRANCH   5   8
ENDBRANCH   1   2
BRANCH   1  16
ATOM     16  N   UNL     1      48.363   7.847  12.824  0.00  0.00    +0.000 N 
ATOM     17  C   UNL     1      48.661   9.145  13.140  0.00  0.00    +0.000 C 
ATOM     18  O   UNL     1      48.326   9.677  14.192  0.00  0.00    +0.000 OA
ATOM     19  H   UNL     1      48.433   7.575  11.849  0.00  0.00    +0.000 HD
BRANCH  17  20
ATOM     20  C   UNL     1      49.475   9.854  12.150  0.00  0.00    +0.000 A 
ATOM     21  C   UNL     1      48.897  10.778  11.292  0.00  0.00    +0.000 A 
ATOM     22  S   UNL     1      50.018  11.516  10.238  0.00  0.00    +0.000 S 
ATOM     23  C   UNL     1      51.302  10.585  10.859  0.00  0.00    +0.000 A 
ATOM     24  N   UNL     1      52.564  10.701  10.363  0.00  0.00    +0.000 NA
ATOM     25  C   UNL     1      53.427   9.911  10.910  0.00  0.00    +0.000 A 
ATOM     26  N   UNL     1      53.145   9.024  11.917  0.00  0.00    +0.000 N 
ATOM     27  C   UNL     1      51.901   8.897  12.473  0.00  0.00    +0.000 A 
ATOM     28  O   UNL     1      51.698   8.145  13.418  0.00  0.00    +0.000 OA
ATOM     29  C   UNL     1      50.886   9.746  11.877  0.00  0.00    +0.000 A 
ATOM     30  H   UNL     1      53.871   8.444  12.321  0.00  0.00    +0.000 HD
ENDBRANCH  17  20
ENDBRANCH   1  16
BRANCH   1  31
ATOM     31  C   UNL     1      48.271   6.104  14.617  0.00  0.00    +0.000 C 
BRANCH  31  32
ATOM     32  N   UNL     1      49.525   6.695  15.106  0.00  0.00    +0.000 NA
ATOM     33  H   UNL     1      50.299   6.286  14.584  0.00  0.00    +0.000 HD
ATOM     34  H   UNL     1      49.666   6.429  16.080  0.00  0.00    +0.000 HD
ENDBRANCH  31  32
ENDBRANCH   1  31
TORSDOF 8
ENDMDL
MODEL 8
REMARK VINA RESULT:    -6.781      4.163      5.737
REMARK INTER + INTRA:         -11.140
REMARK INTER:                  -9.893
REMARK INTRA:                  -1.248
REMARK UNBOUND:                -1.387
REMARK  Name = 
REMARK  8 active torsions:
REMARK  status: ('A' for Active; 'I' for Inactive)
REMARK    1  A    between atoms: N_1  and  C_2
REMARK    2  A    between atoms: C_2  and  C_3
REMARK    3  A    between atoms: C_3  and  N_4
REMARK    4  A    between atoms: C_3  and  C_17
REMARK    5  A    between atoms: C_5  and  C_7
REMARK    6  A    between atoms: C_20  and  C_21
REMARK    7  A    between atoms: C_21  and  C_22
REMARK    8  A    between atoms: C_22  and  C_23
REMARK                            x       y       z     vdW  Elec       q    Type
REMARK                         _______ _______ _______ _____ _____    ______ ____
ROOT
ATOM      1  C   UNL     1      48.430   7.148  13.724  0.00  0.00    +0.000 C 
ENDROOT
BRANCH   1   2
ATOM      2  C   UNL     1      47.359   6.367  12.960  0.00  0.00    +0.000 A 
ATOM      3  C   UNL     1      46.797   5.209  13.510  0.00  0.00    +0.000 A 
ATOM      4  C   UNL     1      45.843   4.468  12.800  0.00  0.00    +0.000 A 
ATOM      5  C   UNL     1      45.407   4.876  11.532  0.00  0.00    +0.000 A 
ATOM      6  C   UNL     1      45.959   6.046  10.991  0.00  0.00    +0.000 A 
ATOM      7  C   UNL     1      46.914   6.786  11.696  0.00  0.00    +0.000 A 
BRANCH   5   8
ATOM      8  C   UNL     1      44.429   4.072  10.695  0.00  0.00    +0.000 C 
BRANCH   8   9
ATOM      9  C   UNL     1      44.467   4.347   9.188  0.00  0.00    +0.000 C 
BRANCH   9  10
ATOM     10  C   UNL     1      45.458   3.467   8.467  0.00  0.00    +0.000 A 
ATOM     11  C   UNL     1      45.514   2.099   8.725  0.00  0.00    +0.000 A 
ATOM     12  C   UNL     1      46.415   1.314   8.008  0.00  0.00    +0.000 A 
ATOM     13  C   UNL     1      47.233   1.912   7.060  0.00  0.00    +0.000 A 
ATOM     14  C   UNL     1      47.124   3.280   6.874  0.00  0.00    +0.000 A 
ATOM     15  N   UNL     1      46.262   4.067   7.557  0.00  0.00    +0.000 NA
ENDBRANCH   9  10
ENDBRANCH   8   9
ENDBRANCH   5   8
ENDBRANCH   1   2
BRANCH   1  16
ATOM     16  N   UNL     1      49.654   7.120  12.939  0.00  0.00    +0.000 N 
ATOM     17  C   UNL     1      50.251   8.236  12.417  0.00  0.00    +0.000 C 
ATOM     18  O   UNL     1      49.887   9.378  12.676  0.00  0.00    +0.000 OA
ATOM     19  H   UNL     1      49.831   6.235  12.474  0.00  0.00    +0.000 HD
BRANCH  17  20
ATOM     20  C   UNL     1      51.412   7.979  11.564  0.00  0.00    +0.000 A 
ATOM     21  C   UNL     1      51.256   7.385  10.321  0.00  0.00    +0.000 A 
ATOM     22  S   UNL     1      52.725   7.201   9.470  0.00  0.00    +0.000 S 
ATOM     23  C   UNL     1      53.621   7.861  10.759  0.00  0.00    +0.000 A 
ATOM     24  N   UNL     1      54.976   7.967  10.697  0.00  0.00    +0.000 NA
ATOM     25  C   UNL     1      55.522   8.458  11.760  0.00  0.00    +0.000 A 
ATOM     26  N   UNL     1      54.835   8.864  12.875  0.00  0.00    +0.000 N 
ATOM     27  C   UNL     1      53.470   8.812  12.970  0.00  0.00    +0.000 A 
ATOM     28  O   UNL     1      52.882   9.248  13.952  0.00  0.00    +0.000 OA
ATOM     29  C   UNL     1      52.807   8.244  11.810  0.00  0.00    +0.000 A 
ATOM     30  H   UNL     1      55.318   9.262  13.670  0.00  0.00    +0.000 HD
ENDBRANCH  17  20
ENDBRANCH   1  16
BRANCH   1  31
ATOM     31  C   UNL     1      48.634   6.576  15.158  0.00  0.00    +0.000 C 
BRANCH  31  32
ATOM     32  N   UNL     1      50.027   6.599  15.627  0.00  0.00    +0.000 NA
ATOM     33  H   UNL     1      50.029   6.809  16.625  0.00  0.00    +0.000 HD
ATOM     34  H   UNL     1      50.522   7.367  15.174  0.00  0.00    +0.000 HD
ENDBRANCH  31  32
ENDBRANCH   1  31
TORSDOF 8
ENDMDL
MODEL 9
REMARK VINA RESULT:    -6.701      3.638      8.344
REMARK INTER + INTRA:         -11.026
REMARK INTER:                  -9.646
REMARK INTRA:                  -1.380
REMARK UNBOUND:                -1.387
REMARK  Name = 
REMARK  8 active torsions:
REMARK  status: ('A' for Active; 'I' for Inactive)
REMARK    1  A    between atoms: N_1  and  C_2
REMARK    2  A    between atoms: C_2  and  C_3
REMARK    3  A    between atoms: C_3  and  N_4
REMARK    4  A    between atoms: C_3  and  C_17
REMARK    5  A    between atoms: C_5  and  C_7
REMARK    6  A    between atoms: C_20  and  C_21
REMARK    7  A    between atoms: C_21  and  C_22
REMARK    8  A    between atoms: C_22  and  C_23
REMARK                            x       y       z     vdW  Elec       q    Type
REMARK                         _______ _______ _______ _____ _____    ______ ____
ROOT
ATOM      1  C   UNL     1      48.089   7.720  12.901  0.00  0.00    +0.000 C 
ENDROOT
BRANCH   1   2
ATOM      2  C   UNL     1      48.326   7.114  14.286  0.00  0.00    +0.000 A 
ATOM      3  C   UNL     1      49.036   7.824  15.260  0.00  0.00    +0.000 A 
ATOM      4  C   UNL     1      49.290   7.261  16.517  0.00  0.00    +0.000 A 
ATOM      5  C   UNL     1      48.819   5.982  16.844  0.00  0.00    +0.000 A 
ATOM      6  C   UNL     1      48.092   5.279  15.873  0.00  0.00    +0.000 A 
ATOM      7  C   UNL     1      47.841   5.839  14.616  0.00  0.00    +0.000 A 
BRANCH   5   8
ATOM      8  C   UNL     1      49.126   5.301  18.166  0.00  0.00    +0.000 C 
BRANCH   8   9
ATOM      9  C   UNL     1      50.613   5.117  18.484  0.00  0.00    +0.000 C 
BRANCH   9  10
ATOM     10  C   UNL     1      51.106   3.731  18.150  0.00  0.00    +0.000 A 
ATOM     11  C   UNL     1      50.275   2.816  17.506  0.00  0.00    +0.000 A 
ATOM     12  C   UNL     1      50.782   1.560  17.177  0.00  0.00    +0.000 A 
ATOM     13  C   UNL     1      52.096   1.251  17.500  0.00  0.00    +0.000 A 
ATOM     14  C   UNL     1      52.851   2.212  18.151  0.00  0.00    +0.000 A 
ATOM     15  N   UNL     1      52.385   3.437  18.485  0.00  0.00    +0.000 NA
ENDBRANCH   9  10
ENDBRANCH   8   9
ENDBRANCH   5   8
ENDBRANCH   1   2
BRANCH   1  16
ATOM     16  N   UNL     1      47.416   6.724  12.083  0.00  0.00    +0.000 N 
ATOM     17  C   UNL     1      46.161   6.889  11.560  0.00  0.00    +0.000 C 
ATOM     18  O   UNL     1      45.541   7.945  11.616  0.00  0.00    +0.000 OA
ATOM     19  H   UNL     1      47.737   5.774  12.234  0.00  0.00    +0.000 HD
BRANCH  17  20
ATOM     20  C   UNL     1      45.621   5.722  10.860  0.00  0.00    +0.000 A 
ATOM     21  C   UNL     1      45.837   5.552   9.501  0.00  0.00    +0.000 A 
ATOM     22  S   UNL     1      45.153   4.115   8.882  0.00  0.00    +0.000 S 
ATOM     23  C   UNL     1      44.503   3.703  10.401  0.00  0.00    +0.000 A 
ATOM     24  N   UNL     1      43.756   2.577  10.568  0.00  0.00    +0.000 NA
ATOM     25  C   UNL     1      43.304   2.410  11.767  0.00  0.00    +0.000 A 
ATOM     26  N   UNL     1      43.541   3.260  12.816  0.00  0.00    +0.000 N 
ATOM     27  C   UNL     1      44.315   4.383  12.706  0.00  0.00    +0.000 A 
ATOM     28  O   UNL     1      44.565   5.084  13.679  0.00  0.00    +0.000 OA
ATOM     29  C   UNL     1      44.829   4.632  11.371  0.00  0.00    +0.000 A 
ATOM     30  H   UNL     1      43.176   3.063  13.740  0.00  0.00    +0.000 HD
ENDBRANCH  17  20
ENDBRANCH   1  16
BRANCH   1  31
ATOM     31  C   UNL     1      49.423   8.208  12.261  0.00  0.00    +0.000 C 
BRANCH  31  32
ATOM     32  N   UNL     1      50.302   7.126  11.793  0.00  0.00    +0.000 NA
ATOM     33  H   UNL     1      49.792   6.570  11.108  0.00  0.00    +0.000 HD
ATOM     34  H   UNL     1      50.509   6.501  12.571  0.00  0.00    +0.000 HD
ENDBRANCH  31  32
ENDBRANCH   1  31
TORSDOF 8
ENDMDL
