MODEL 1
REMARK VINA RESULT:    -7.749      0.000      0.000
REMARK INTER + INTRA:         -12.773
REMARK INTER:                 -11.826
REMARK INTRA:                  -0.947
REMARK UNBOUND:                -0.947
REMARK  Name = 
REMARK  9 active torsions:
REMARK  status: ('A' for Active; 'I' for Inactive)
REMARK    1  A    between atoms: C_2  and  C_3
REMARK    2  A    between atoms: C_3  and  N_4
REMARK    3  A    between atoms: C_3  and  C_20
REMARK    4  A    between atoms: N_4  and  C_5
REMARK    5  A    between atoms: C_5  and  C_6
REMARK    6  A    between atoms: C_9  and  C_10
REMARK    7  A    between atoms: C_10  and  N_11
REMARK    8  A    between atoms: N_11  and  C_12
REMARK    9  A    between atoms: C_12  and  C_13
REMARK                            x       y       z     vdW  Elec       q    Type
REMARK                         _______ _______ _______ _____ _____    ______ ____
ROOT
ATOM      1  C   UNL     1      47.429   4.891  14.898  0.00  0.00    +0.000 C 
ENDROOT
BRANCH   1   2
ATOM      2  C   UNL     1      46.624   4.759  13.615  0.00  0.00    +0.000 A 
ATOM      3  C   UNL     1      46.472   5.833  12.744  0.00  0.00    +0.000 A 
ATOM      4  C   UNL     1      45.662   5.672  11.611  0.00  0.00    +0.000 A 
ATOM      5  C   UNL     1      45.045   4.452  11.363  0.00  0.00    +0.000 A 
ATOM      6  C   UNL     1      45.262   3.434  12.286  0.00  0.00    +0.000 A 
ATOM      7  N   UNL     1      46.018   3.568  13.397  0.00  0.00    +0.000 NA
BRANCH   5   8
ATOM      8  C   UNL     1      44.150   4.225  10.174  0.00  0.00    +0.000 C 
BRANCH   8   9
ATOM      9  N   UNL     1      44.959   3.878   9.012  0.00  0.00    +0.000 NA
ATOM     10  H   UNL     1      45.916   4.194   9.172  0.00  0.00    +0.000 HD
BRANCH   9  11
ATOM     11  C   UNL     1      44.985   2.446   8.758  0.00  0.00    +0.000 C 
BRANCH  11  12
ATOM     12  C   UNL     1      46.181   2.160   7.934  0.00  0.00    +0.000 A 
ATOM     13  C   UNL     1      46.858   0.995   7.646  0.00  0.00    +0.000 A 
ATOM     14  N   UNL     1      47.949   1.245   6.853  0.00  0.00    +0.000 NA
ATOM     15  C   UNL     1      47.949   2.546   6.663  0.00  0.00    +0.000 A 
ATOM     16  N   UNL     1      46.895   3.142   7.291  0.00  0.00    +0.000 N 
ATOM     17  H   UNL     1      46.699   4.132   7.329  0.00  0.00    +0.000 HD
ENDBRANCH  11  12
ENDBRANCH   9  11
ENDBRANCH   8   9
ENDBRANCH   5   8
ENDBRANCH   1   2
BRANCH   1  18
ATOM     18  N   UNL     1      46.846   4.252  16.096  0.00  0.00    +0.000 NA
ATOM     19  H   UNL     1      46.262   3.473  15.782  0.00  0.00    +0.000 HD
BRANCH  18  20
ATOM     20  C   UNL     1      47.880   3.687  16.990  0.00  0.00    +0.000 C 
BRANCH  20  21
ATOM     21  C   UNL     1      48.804   4.817  17.461  0.00  0.00    +0.000 A 
ATOM     22  C   UNL     1      50.098   5.054  17.010  0.00  0.00    +0.000 A 
ATOM     23  S   UNL     1      50.954   6.191  17.960  0.00  0.00    +0.000 S 
ATOM     24  C   UNL     1      49.621   6.417  18.991  0.00  0.00    +0.000 A 
ATOM     25  N   UNL     1      49.715   7.166  20.122  0.00  0.00    +0.000 NA
ATOM     26  C   UNL     1      48.631   7.201  20.824  0.00  0.00    +0.000 A 
ATOM     27  N   UNL     1      47.442   6.612  20.465  0.00  0.00    +0.000 N 
ATOM     28  C   UNL     1      47.276   5.933  19.278  0.00  0.00    +0.000 A 
ATOM     29  O   UNL     1      46.177   5.557  18.879  0.00  0.00    +0.000 OA
ATOM     30  C   UNL     1      48.509   5.730  18.544  0.00  0.00    +0.000 A 
ATOM     31  H   UNL     1      46.617   6.746  21.028  0.00  0.00    +0.000 HD
ENDBRANCH  20  21
BRANCH  20  33
ATOM     32  N   UNL     1      49.308   1.697  15.965  0.00  0.00    +0.000 NA
ATOM     33  C   UNL     1      48.679   2.576  16.400  0.00  0.00    +0.000 C 
ENDBRANCH  20  33
ENDBRANCH  18  20
ENDBRANCH   1  18
TORSDOF 9
ENDMDL
MODEL 2
REMARK VINA RESULT:    -7.542      2.100      2.981
REMARK INTER + INTRA:         -12.457
REMARK INTER:                 -11.262
REMARK INTRA:                  -1.195
REMARK UNBOUND:                -0.947
REMARK  Name = 
REMARK  9 active torsions:
REMARK  status: ('A' for Active; 'I' for Inactive)
REMARK    1  A    between atoms: C_2  and  C_3
REMARK    2  A    between atoms: C_3  and  N_4
REMARK    3  A    between atoms: C_3  and  C_20
REMARK    4  A    between atoms: N_4  and  C_5
REMARK    5  A    between atoms: C_5  and  C_6
REMARK    6  A    between atoms: C_9  and  C_10
REMARK    7  A    between atoms: C_10  and  N_11
REMARK    8  A    between atoms: N_11  and  C_12
REMARK    9  A    between atoms: C_12  and  C_13
REMARK                            x       y       z     vdW  Elec       q    Type
REMARK                         _______ _______ _______ _____ _____    ______ ____
ROOT
ATOM      1  C   UNL     1      46.945   7.718  12.971  0.00  0.00    +0.000 C 
ENDROOT
BRANCH   1   2
ATOM      2  C   UNL     1      46.193   6.654  12.188  0.00  0.00    +0.000 A 
ATOM      3  C   UNL     1      46.465   6.418  10.844  0.00  0.00    +0.000 A 
ATOM      4  C   UNL     1      45.693   5.472  10.156  0.00  0.00    +0.000 A 
ATOM      5  C   UNL     1      44.691   4.774  10.820  0.00  0.00    +0.000 A 
ATOM      6  C   UNL     1      44.499   5.072  12.165  0.00  0.00    +0.000 A 
ATOM      7  N   UNL     1      45.211   5.994  12.846  0.00  0.00    +0.000 NA
BRANCH   5   8
ATOM      8  C   UNL     1      43.819   3.760  10.129  0.00  0.00    +0.000 C 
BRANCH   8   9
ATOM      9  N   UNL     1      44.462   3.321   8.896  0.00  0.00    +0.000 NA
ATOM     10  H   UNL     1      45.218   3.968   8.671  0.00  0.00    +0.000 HD
BRANCH   9  11
ATOM     11  C   UNL     1      45.020   1.982   9.004  0.00  0.00    +0.000 C 
BRANCH  11  12
ATOM     12  C   UNL     1      46.176   1.904   8.083  0.00  0.00    +0.000 A 
ATOM     13  C   UNL     1      46.940   0.850   7.633  0.00  0.00    +0.000 A 
ATOM     14  N   UNL     1      47.942   1.289   6.805  0.00  0.00    +0.000 NA
ATOM     15  C   UNL     1      47.802   2.594   6.753  0.00  0.00    +0.000 A 
ATOM     16  N   UNL     1      46.742   3.013   7.503  0.00  0.00    +0.000 N 
ATOM     17  H   UNL     1      46.454   3.969   7.657  0.00  0.00    +0.000 HD
ENDBRANCH  11  12
ENDBRANCH   9  11
ENDBRANCH   8   9
ENDBRANCH   5   8
ENDBRANCH   1   2
BRANCH   1  18
ATOM     18  N   UNL     1      47.261   7.386  14.375  0.00  0.00    +0.000 NA
ATOM     19  H   UNL     1      46.560   6.716  14.703  0.00  0.00    +0.000 HD
BRANCH  18  20
ATOM     20  C   UNL     1      48.582   6.735  14.514  0.00  0.00    +0.000 C 
BRANCH  20  21
ATOM     21  C   UNL     1      48.814   6.385  15.989  0.00  0.00    +0.000 A 
ATOM     22  C   UNL     1      49.619   7.089  16.878  0.00  0.00    +0.000 A 
ATOM     23  S   UNL     1      49.903   6.259  18.346  0.00  0.00    +0.000 S 
ATOM     24  C   UNL     1      48.949   4.942  17.851  0.00  0.00    +0.000 A 
ATOM     25  N   UNL     1      48.875   3.800  18.585  0.00  0.00    +0.000 NA
ATOM     26  C   UNL     1      48.149   2.874  18.052  0.00  0.00    +0.000 A 
ATOM     27  N   UNL     1      47.433   3.011  16.886  0.00  0.00    +0.000 N 
ATOM     28  C   UNL     1      47.396   4.185  16.167  0.00  0.00    +0.000 A 
ATOM     29  O   UNL     1      46.628   4.361  15.226  0.00  0.00    +0.000 OA
ATOM     30  C   UNL     1      48.328   5.189  16.642  0.00  0.00    +0.000 A 
ATOM     31  H   UNL     1      46.827   2.269  16.571  0.00  0.00    +0.000 HD
ENDBRANCH  20  21
BRANCH  20  33
ATOM     32  N   UNL     1      50.640   8.119  13.563  0.00  0.00    +0.000 NA
ATOM     33  C   UNL     1      49.728   7.525  13.981  0.00  0.00    +0.000 C 
ENDBRANCH  20  33
ENDBRANCH  18  20
ENDBRANCH   1  18
TORSDOF 9
ENDMDL
MODEL 3
REMARK VINA RESULT:    -7.448      1.807      2.207
REMARK INTER + INTRA:         -12.314
REMARK INTER:                 -11.281
REMARK INTRA:                  -1.034
REMARK UNBOUND:                -0.947
REMARK  Name = 
REMARK  9 active torsions:
REMARK  status: ('A' for Active; 'I' for Inactive)
REMARK    1  A    between atoms: C_2  and  C_3
REMARK    2  A    between atoms: C_3  and  N_4
REMARK    3  A    between atoms: C_3  and  C_20
REMARK    4  A    between atoms: N_4  and  C_5
REMARK    5  A    between atoms: C_5  and  C_6
REMARK    6  A    between atoms: C_9  and  C_10
REMARK    7  A    between atoms: C_10  and  N_11
REMARK    8  A    between atoms: N_11  and  C_12
REMARK    9  A    between atoms: C_12  and  C_13
REMARK                            x       y       z     vdW  Elec       q    Type
REMARK                         _______ _______ _______ _____ _____    ______ ____
ROOT
ATOM      1  C   UNL     1      47.194   4.342  14.569  0.00  0.00    +0.000 C 
ENDROOT
BRANCH   1   2
ATOM      2  C   UNL     1      46.381   4.405  13.286  0.00  0.00    +0.000 A 
ATOM      3  C   UNL     1      46.227   5.598  12.587  0.00  0.00    +0.000 A 
ATOM      4  C   UNL     1      45.410   5.610  11.448  0.00  0.00    +0.000 A 
ATOM      5  C   UNL     1      44.789   4.442  11.023  0.00  0.00    +0.000 A 
ATOM      6  C   UNL     1      45.009   3.297  11.782  0.00  0.00    +0.000 A 
ATOM      7  N   UNL     1      45.771   3.261  12.896  0.00  0.00    +0.000 NA
BRANCH   5   8
ATOM      8  C   UNL     1      43.886   4.397   9.819  0.00  0.00    +0.000 C 
BRANCH   8   9
ATOM      9  N   UNL     1      44.386   3.410   8.870  0.00  0.00    +0.000 NA
ATOM     10  H   UNL     1      43.630   3.151   8.236  0.00  0.00    +0.000 HD
BRANCH   9  11
ATOM     11  C   UNL     1      45.498   3.910   8.077  0.00  0.00    +0.000 C 
BRANCH  11  12
ATOM     12  C   UNL     1      46.348   2.752   7.717  0.00  0.00    +0.000 A 
ATOM     13  C   UNL     1      47.460   2.626   6.915  0.00  0.00    +0.000 A 
ATOM     14  N   UNL     1      47.880   1.321   6.860  0.00  0.00    +0.000 NA
ATOM     15  C   UNL     1      47.033   0.653   7.611  0.00  0.00    +0.000 A 
ATOM     16  N   UNL     1      46.092   1.476   8.157  0.00  0.00    +0.000 N 
ATOM     17  H   UNL     1      45.312   1.198   8.736  0.00  0.00    +0.000 HD
ENDBRANCH  11  12
ENDBRANCH   9  11
ENDBRANCH   8   9
ENDBRANCH   5   8
ENDBRANCH   1   2
BRANCH   1  18
ATOM     18  N   UNL     1      47.248   5.587  15.363  0.00  0.00    +0.000 NA
ATOM     19  H   UNL     1      46.676   5.450  16.200  0.00  0.00    +0.000 HD
BRANCH  18  20
ATOM     20  C   UNL     1      48.619   5.902  15.820  0.00  0.00    +0.000 C 
BRANCH  20  21
ATOM     21  C   UNL     1      48.553   6.460  17.247  0.00  0.00    +0.000 A 
ATOM     22  C   UNL     1      48.722   7.791  17.611  0.00  0.00    +0.000 A 
ATOM     23  S   UNL     1      48.898   8.021  19.297  0.00  0.00    +0.000 S 
ATOM     24  C   UNL     1      48.739   6.355  19.598  0.00  0.00    +0.000 A 
ATOM     25  N   UNL     1      48.934   5.833  20.837  0.00  0.00    +0.000 NA
ATOM     26  C   UNL     1      48.825   4.547  20.893  0.00  0.00    +0.000 A 
ATOM     27  N   UNL     1      48.470   3.742  19.837  0.00  0.00    +0.000 N 
ATOM     28  C   UNL     1      48.161   4.241  18.591  0.00  0.00    +0.000 A 
ATOM     29  O   UNL     1      47.682   3.545  17.699  0.00  0.00    +0.000 OA
ATOM     30  C   UNL     1      48.434   5.657  18.445  0.00  0.00    +0.000 A 
ATOM     31  H   UNL     1      48.331   2.753  19.975  0.00  0.00    +0.000 HD
ENDBRANCH  20  21
BRANCH  20  33
ATOM     32  N   UNL     1      49.983   7.533  14.230  0.00  0.00    +0.000 NA
ATOM     33  C   UNL     1      49.378   6.830  14.935  0.00  0.00    +0.000 C 
ENDBRANCH  20  33
ENDBRANCH  18  20
ENDBRANCH   1  18
TORSDOF 9
ENDMDL
MODEL 4
REMARK VINA RESULT:    -7.369      1.613      2.962
REMARK INTER + INTRA:         -12.193
REMARK INTER:                 -11.551
REMARK INTRA:                  -0.642
REMARK UNBOUND:                -0.947
REMARK  Name = 
REMARK  9 active torsions:
REMARK  status: ('A' for Active; 'I' for Inactive)
REMARK    1  A    between atoms: C_2  and  C_3
REMARK    2  A    between atoms: C_3  and  N_4
REMARK    3  A    between atoms: C_3  and  C_20
REMARK    4  A    between atoms: N_4  and  C_5
REMARK    5  A    between atoms: C_5  and  C_6
REMARK    6  A    between atoms: C_9  and  C_10
REMARK    7  A    between atoms: C_10  and  N_11
REMARK    8  A    between atoms: N_11  and  C_12
REMARK    9  A    between atoms: C_12  and  C_13
REMARK                            x       y       z     vdW  Elec       q    Type
REMARK                         _______ _______ _______ _____ _____    ______ ____
ROOT
ATOM      1  C   UNL     1      47.889   5.851  14.647  0.00  0.00    +0.000 C 
ENDROOT
BRANCH   1   2
ATOM      2  C   UNL     1      46.992   5.279  13.561  0.00  0.00    +0.000 A 
ATOM      3  C   UNL     1      46.576   6.055  12.484  0.00  0.00    +0.000 A 
ATOM      4  C   UNL     1      45.695   5.493  11.550  0.00  0.00    +0.000 A 
ATOM      5  C   UNL     1      45.267   4.179  11.696  0.00  0.00    +0.000 A 
ATOM      6  C   UNL     1      45.744   3.480  12.800  0.00  0.00    +0.000 A 
ATOM      7  N   UNL     1      46.574   4.001  13.728  0.00  0.00    +0.000 NA
BRANCH   5   8
ATOM      8  C   UNL     1      44.308   3.529  10.736  0.00  0.00    +0.000 C 
BRANCH   8   9
ATOM      9  N   UNL     1      44.943   3.385   9.432  0.00  0.00    +0.000 NA
ATOM     10  H   UNL     1      45.886   3.774   9.481  0.00  0.00    +0.000 HD
BRANCH   9  11
ATOM     11  C   UNL     1      45.041   1.997   9.008  0.00  0.00    +0.000 C 
BRANCH  11  12
ATOM     12  C   UNL     1      46.189   1.892   8.079  0.00  0.00    +0.000 A 
ATOM     13  C   UNL     1      46.907   0.819   7.602  0.00  0.00    +0.000 A 
ATOM     14  N   UNL     1      47.922   1.234   6.779  0.00  0.00    +0.000 NA
ATOM     15  C   UNL     1      47.835   2.546   6.757  0.00  0.00    +0.000 A 
ATOM     16  N   UNL     1      46.797   2.991   7.522  0.00  0.00    +0.000 N 
ATOM     17  H   UNL     1      46.550   3.954   7.698  0.00  0.00    +0.000 HD
ENDBRANCH  11  12
ENDBRANCH   9  11
ENDBRANCH   8   9
ENDBRANCH   5   8
ENDBRANCH   1   2
BRANCH   1  18
ATOM     18  N   UNL     1      48.267   4.921  15.731  0.00  0.00    +0.000 NA
ATOM     19  H   UNL     1      49.151   4.478  15.469  0.00  0.00    +0.000 HD
BRANCH  18  20
ATOM     20  C   UNL     1      48.493   5.619  17.015  0.00  0.00    +0.000 C 
BRANCH  20  21
ATOM     21  C   UNL     1      49.818   5.135  17.619  0.00  0.00    +0.000 A 
ATOM     22  C   UNL     1      50.826   5.945  18.130  0.00  0.00    +0.000 A 
ATOM     23  S   UNL     1      52.287   5.109  18.432  0.00  0.00    +0.000 S 
ATOM     24  C   UNL     1      51.618   3.636  17.908  0.00  0.00    +0.000 A 
ATOM     25  N   UNL     1      52.377   2.517  17.771  0.00  0.00    +0.000 NA
ATOM     26  C   UNL     1      51.734   1.493  17.316  0.00  0.00    +0.000 A 
ATOM     27  N   UNL     1      50.385   1.467  17.052  0.00  0.00    +0.000 N 
ATOM     28  C   UNL     1      49.561   2.547  17.276  0.00  0.00    +0.000 A 
ATOM     29  O   UNL     1      48.337   2.472  17.203  0.00  0.00    +0.000 OA
ATOM     30  C   UNL     1      50.271   3.761  17.625  0.00  0.00    +0.000 A 
ATOM     31  H   UNL     1      49.939   0.608  16.770  0.00  0.00    +0.000 HD
ENDBRANCH  20  21
BRANCH  20  33
ATOM     32  N   UNL     1      46.535   5.397  18.795  0.00  0.00    +0.000 NA
ATOM     33  C   UNL     1      47.390   5.481  18.007  0.00  0.00    +0.000 C 
ENDBRANCH  20  33
ENDBRANCH  18  20
ENDBRANCH   1  18
TORSDOF 9
ENDMDL
MODEL 5
REMARK VINA RESULT:    -6.664      2.452      3.272
REMARK INTER + INTRA:         -11.117
REMARK INTER:                 -10.277
REMARK INTRA:                  -0.839
REMARK UNBOUND:                -0.947
REMARK  Name = 
REMARK  9 active torsions:
REMARK  status: ('A' for Active; 'I' for Inactive)
REMARK    1  A    between atoms: C_2  and  C_3
REMARK    2  A    between atoms: C_3  and  N_4
REMARK    3  A    between atoms: C_3  and  C_20
REMARK    4  A    between atoms: N_4  and  C_5
REMARK    5  A    between atoms: C_5  and  C_6
REMARK    6  A    between atoms: C_9  and  C_10
REMARK    7  A    between atoms: C_10  and  N_11
REMARK    8  A    between atoms: N_11  and  C_12
REMARK    9  A    between atoms: C_12  and  C_13
REMARK                            x       y       z     vdW  Elec       q    Type
REMARK                         _______ _______ _______ _____ _____    ______ ____
ROOT
ATOM      1  C   UNL     1      47.949   6.556  13.290  0.00  0.00    +0.000 C 
ENDROOT
BRANCH   1   2
ATOM      2  C   UNL     1      46.825   5.850  12.548  0.00  0.00    +0.000 A 
ATOM      3  C   UNL     1      46.157   4.766  13.110  0.00  0.00    +0.000 A 
ATOM      4  C   UNL     1      45.177   4.113  12.351  0.00  0.00    +0.000 A 
ATOM      5  C   UNL     1      44.870   4.561  11.072  0.00  0.00    +0.000 A 
ATOM      6  C   UNL     1      45.585   5.657  10.599  0.00  0.00    +0.000 A 
ATOM      7  N   UNL     1      46.550   6.291  11.298  0.00  0.00    +0.000 NA
BRANCH   5   8
ATOM      8  C   UNL     1      43.841   3.889  10.204  0.00  0.00    +0.000 C 
BRANCH   8   9
ATOM      9  N   UNL     1      44.467   3.429   8.970  0.00  0.00    +0.000 NA
ATOM     10  H   UNL     1      45.222   4.071   8.725  0.00  0.00    +0.000 HD
BRANCH   9  11
ATOM     11  C   UNL     1      45.024   2.091   9.092  0.00  0.00    +0.000 C 
BRANCH  11  12
ATOM     12  C   UNL     1      46.153   1.987   8.140  0.00  0.00    +0.000 A 
ATOM     13  C   UNL     1      46.862   0.915   7.647  0.00  0.00    +0.000 A 
ATOM     14  N   UNL     1      47.860   1.332   6.804  0.00  0.00    +0.000 NA
ATOM     15  C   UNL     1      47.773   2.643   6.785  0.00  0.00    +0.000 A 
ATOM     16  N   UNL     1      46.750   3.087   7.571  0.00  0.00    +0.000 N 
ATOM     17  H   UNL     1      46.506   4.049   7.754  0.00  0.00    +0.000 HD
ENDBRANCH  11  12
ENDBRANCH   9  11
ENDBRANCH   8   9
ENDBRANCH   5   8
ENDBRANCH   1   2
BRANCH   1  18
ATOM     18  N   UNL     1      47.675   6.904  14.700  0.00  0.00    +0.000 NA
ATOM     19  H   UNL     1      47.172   6.120  15.123  0.00  0.00    +0.000 HD
BRANCH  18  20
ATOM     20  C   UNL     1      48.917   7.096  15.481  0.00  0.00    +0.000 C 
BRANCH  20  21
ATOM     21  C   UNL     1      49.091   5.911  16.439  0.00  0.00    +0.000 A 
ATOM     22  C   UNL     1      48.081   5.065  16.883  0.00  0.00    +0.000 A 
ATOM     23  S   UNL     1      48.557   4.053  18.177  0.00  0.00    +0.000 S 
ATOM     24  C   UNL     1      50.131   4.697  18.175  0.00  0.00    +0.000 A 
ATOM     25  N   UNL     1      51.035   4.371  19.137  0.00  0.00    +0.000 NA
ATOM     26  C   UNL     1      52.168   4.981  19.026  0.00  0.00    +0.000 A 
ATOM     27  N   UNL     1      52.505   5.834  18.001  0.00  0.00    +0.000 N 
ATOM     28  C   UNL     1      51.656   6.109  16.952  0.00  0.00    +0.000 A 
ATOM     29  O   UNL     1      52.016   6.730  15.956  0.00  0.00    +0.000 OA
ATOM     30  C   UNL     1      50.319   5.578  17.128  0.00  0.00    +0.000 A 
ATOM     31  H   UNL     1      53.437   6.214  17.941  0.00  0.00    +0.000 HD
ENDBRANCH  20  21
BRANCH  20  33
ATOM     32  N   UNL     1      49.075   9.398  16.794  0.00  0.00    +0.000 NA
ATOM     33  C   UNL     1      48.994   8.383  16.228  0.00  0.00    +0.000 C 
ENDBRANCH  20  33
ENDBRANCH  18  20
ENDBRANCH   1  18
TORSDOF 9
ENDMDL
MODEL 6
REMARK VINA RESULT:    -6.493      2.249      3.955
REMARK INTER + INTRA:         -10.856
REMARK INTER:                 -10.180
REMARK INTRA:                  -0.677
REMARK UNBOUND:                -0.947
REMARK  Name = 
REMARK  9 active torsions:
REMARK  status: ('A' for Active; 'I' for Inactive)
REMARK    1  A    between atoms: C_2  and  C_3
REMARK    2  A    between atoms: C_3  and  N_4
REMARK    3  A    between atoms: C_3  and  C_20
REMARK    4  A    between atoms: N_4  and  C_5
REMARK    5  A    between atoms: C_5  and  C_6
REMARK    6  A    between atoms: C_9  and  C_10
REMARK    7  A    between atoms: C_10  and  N_11
REMARK    8  A    between atoms: N_11  and  C_12
REMARK    9  A    between atoms: C_12  and  C_13
REMARK                            x       y       z     vdW  Elec       q    Type
REMARK                         _______ _______ _______ _____ _____    ______ ____
ROOT
ATOM      1  C   UNL     1      49.472   7.007  15.159  0.00  0.00    +0.000 C 
ENDROOT
BRANCH   1   2
ATOM      2  C   UNL     1      48.289   7.008  14.204  0.00  0.00    +0.000 A 
ATOM      3  C   UNL     1      47.612   8.183  13.894  0.00  0.00    +0.000 A 
ATOM      4  C   UNL     1      46.486   8.111  13.062  0.00  0.00    +0.000 A 
ATOM      5  C   UNL     1      46.077   6.888  12.545  0.00  0.00    +0.000 A 
ATOM      6  C   UNL     1      46.822   5.770  12.905  0.00  0.00    +0.000 A 
ATOM      7  N   UNL     1      47.895   5.805  13.722  0.00  0.00    +0.000 NA
BRANCH   5   8
ATOM      8  C   UNL     1      44.866   6.747  11.662  0.00  0.00    +0.000 C 
BRANCH   8   9
ATOM      9  N   UNL     1      44.173   5.504  11.978  0.00  0.00    +0.000 NA
ATOM     10  H   UNL     1      43.654   5.629  12.849  0.00  0.00    +0.000 HD
BRANCH   9  11
ATOM     11  C   UNL     1      43.235   5.108  10.939  0.00  0.00    +0.000 C 
BRANCH  11  12
ATOM     12  C   UNL     1      43.930   4.146  10.053  0.00  0.00    +0.000 A 
ATOM     13  C   UNL     1      44.510   2.918  10.283  0.00  0.00    +0.000 A 
ATOM     14  N   UNL     1      45.072   2.419   9.135  0.00  0.00    +0.000 NA
ATOM     15  C   UNL     1      44.848   3.330   8.215  0.00  0.00    +0.000 A 
ATOM     16  N   UNL     1      44.154   4.390   8.720  0.00  0.00    +0.000 N 
ATOM     17  H   UNL     1      43.898   5.232   8.225  0.00  0.00    +0.000 HD
ENDBRANCH  11  12
ENDBRANCH   9  11
ENDBRANCH   8   9
ENDBRANCH   5   8
ENDBRANCH   1   2
BRANCH   1  18
ATOM     18  N   UNL     1      49.616   5.808  16.010  0.00  0.00    +0.000 NA
ATOM     19  H   UNL     1      50.475   5.327  15.731  0.00  0.00    +0.000 HD
BRANCH  18  20
ATOM     20  C   UNL     1      49.755   6.150  17.442  0.00  0.00    +0.000 C 
BRANCH  20  21
ATOM     21  C   UNL     1      50.826   5.248  18.068  0.00  0.00    +0.000 A 
ATOM     22  C   UNL     1      51.940   5.678  18.781  0.00  0.00    +0.000 A 
ATOM     23  S   UNL     1      53.088   4.442  19.067  0.00  0.00    +0.000 S 
ATOM     24  C   UNL     1      52.128   3.290  18.264  0.00  0.00    +0.000 A 
ATOM     25  N   UNL     1      52.583   2.033  18.016  0.00  0.00    +0.000 NA
ATOM     26  C   UNL     1      51.756   1.292  17.355  0.00  0.00    +0.000 A 
ATOM     27  N   UNL     1      50.489   1.670  16.980  0.00  0.00    +0.000 N 
ATOM     28  C   UNL     1      49.951   2.896  17.303  0.00  0.00    +0.000 A 
ATOM     29  O   UNL     1      48.768   3.169  17.120  0.00  0.00    +0.000 OA
ATOM     30  C   UNL     1      50.904   3.814  17.896  0.00  0.00    +0.000 A 
ATOM     31  H   UNL     1      49.872   1.010  16.532  0.00  0.00    +0.000 HD
ENDBRANCH  20  21
BRANCH  20  33
ATOM     32  N   UNL     1      47.514   6.046  18.862  0.00  0.00    +0.000 NA
ATOM     33  C   UNL     1      48.492   6.080  18.230  0.00  0.00    +0.000 C 
ENDBRANCH  20  33
ENDBRANCH  18  20
ENDBRANCH   1  18
TORSDOF 9
ENDMDL
MODEL 7
REMARK VINA RESULT:    -6.459      2.581      3.476
REMARK INTER + INTRA:         -10.805
REMARK INTER:                  -9.479
REMARK INTRA:                  -1.325
REMARK UNBOUND:                -0.947
REMARK  Name = 
REMARK  9 active torsions:
REMARK  status: ('A' for Active; 'I' for Inactive)
REMARK    1  A    between atoms: C_2  and  C_3
REMARK    2  A    between atoms: C_3  and  N_4
REMARK    3  A    between atoms: C_3  and  C_20
REMARK    4  A    between atoms: N_4  and  C_5
REMARK    5  A    between atoms: C_5  and  C_6
REMARK    6  A    between atoms: C_9  and  C_10
REMARK    7  A    between atoms: C_10  and  N_11
REMARK    8  A    between atoms: N_11  and  C_12
REMARK    9  A    between atoms: C_12  and  C_13
REMARK                            x       y       z     vdW  Elec       q    Type
REMARK                         _______ _______ _______ _____ _____    ______ ____
ROOT
ATOM      1  C   UNL     1      48.549   7.478  14.019  0.00  0.00    +0.000 C 
ENDROOT
BRANCH   1   2
ATOM      2  C   UNL     1      47.423   6.532  13.632  0.00  0.00    +0.000 A 
ATOM      3  C   UNL     1      47.402   5.214  14.078  0.00  0.00    +0.000 A 
ATOM      4  C   UNL     1      46.375   4.370  13.633  0.00  0.00    +0.000 A 
ATOM      5  C   UNL     1      45.391   4.857  12.781  0.00  0.00    +0.000 A 
ATOM      6  C   UNL     1      45.492   6.190  12.397  0.00  0.00    +0.000 A 
ATOM      7  N   UNL     1      46.482   7.019  12.790  0.00  0.00    +0.000 NA
BRANCH   5   8
ATOM      8  C   UNL     1      44.275   3.993  12.257  0.00  0.00    +0.000 C 
BRANCH   8   9
ATOM      9  N   UNL     1      44.832   2.909  11.455  0.00  0.00    +0.000 NA
ATOM     10  H   UNL     1      44.759   2.039  11.983  0.00  0.00    +0.000 HD
BRANCH   9  11
ATOM     11  C   UNL     1      44.136   2.738  10.189  0.00  0.00    +0.000 C 
BRANCH  11  12
ATOM     12  C   UNL     1      45.055   3.170   9.112  0.00  0.00    +0.000 A 
ATOM     13  C   UNL     1      45.406   4.411   8.627  0.00  0.00    +0.000 A 
ATOM     14  N   UNL     1      46.280   4.298   7.577  0.00  0.00    +0.000 NA
ATOM     15  C   UNL     1      46.458   3.006   7.412  0.00  0.00    +0.000 A 
ATOM     16  N   UNL     1      45.744   2.283   8.321  0.00  0.00    +0.000 N 
ATOM     17  H   UNL     1      45.683   1.276   8.374  0.00  0.00    +0.000 HD
ENDBRANCH  11  12
ENDBRANCH   9  11
ENDBRANCH   8   9
ENDBRANCH   5   8
ENDBRANCH   1   2
BRANCH   1  18
ATOM     18  N   UNL     1      49.724   6.855  14.663  0.00  0.00    +0.000 NA
ATOM     19  H   UNL     1      50.476   6.815  13.970  0.00  0.00    +0.000 HD
BRANCH  18  20
ATOM     20  C   UNL     1      50.226   7.652  15.804  0.00  0.00    +0.000 C 
BRANCH  20  21
ATOM     21  C   UNL     1      49.195   7.605  16.938  0.00  0.00    +0.000 A 
ATOM     22  C   UNL     1      48.445   8.679  17.404  0.00  0.00    +0.000 A 
ATOM     23  S   UNL     1      47.628   8.356  18.872  0.00  0.00    +0.000 S 
ATOM     24  C   UNL     1      48.234   6.768  18.924  0.00  0.00    +0.000 A 
ATOM     25  N   UNL     1      48.037   5.965  20.004  0.00  0.00    +0.000 NA
ATOM     26  C   UNL     1      48.601   4.806  19.911  0.00  0.00    +0.000 A 
ATOM     27  N   UNL     1      49.283   4.350  18.809  0.00  0.00    +0.000 N 
ATOM     28  C   UNL     1      49.416   5.091  17.655  0.00  0.00    +0.000 A 
ATOM     29  O   UNL     1      49.874   4.623  16.617  0.00  0.00    +0.000 OA
ATOM     30  C   UNL     1      48.944   6.456  17.781  0.00  0.00    +0.000 A 
ATOM     31  H   UNL     1      49.631   3.404  18.781  0.00  0.00    +0.000 HD
ENDBRANCH  20  21
BRANCH  20  33
ATOM     32  N   UNL     1      50.818  10.173  15.214  0.00  0.00    +0.000 NA
ATOM     33  C   UNL     1      50.574   9.064  15.477  0.00  0.00    +0.000 C 
ENDBRANCH  20  33
ENDBRANCH  18  20
ENDBRANCH   1  18
TORSDOF 9
ENDMDL
MODEL 8
REMARK VINA RESULT:    -6.333      2.585      3.889
REMARK INTER + INTRA:         -10.613
REMARK INTER:                  -9.774
REMARK INTRA:                  -0.838
REMARK UNBOUND:                -0.947
REMARK  Name = 
REMARK  9 active torsions:
REMARK  status: ('A' for Active; 'I' for Inactive)
REMARK    1  A    between atoms: C_2  and  C_3
REMARK    2  A    between atoms: C_3  and  N_4
REMARK    3  A    between atoms: C_3  and  C_20
REMARK    4  A    between atoms: N_4  and  C_5
REMARK    5  A    between atoms: C_5  and  C_6
REMARK    6  A    between atoms: C_9  and  C_10
REMARK    7  A    between atoms: C_10  and  N_11
REMARK    8  A    between atoms: N_11  and  C_12
REMARK    9  A    between atoms: C_12  and  C_13
REMARK                            x       y       z     vdW  Elec       q    Type
REMARK                         _______ _______ _______ _____ _____    ______ ____
ROOT
ATOM      1  C   UNL     1      48.834   7.279  13.645  0.00  0.00    +0.000 C 
ENDROOT
BRANCH   1   2
ATOM      2  C   UNL     1      47.534   6.518  13.440  0.00  0.00    +0.000 A 
ATOM      3  C   UNL     1      46.405   7.143  12.922  0.00  0.00    +0.000 A 
ATOM      4  C   UNL     1      45.216   6.408  12.820  0.00  0.00    +0.000 A 
ATOM      5  C   UNL     1      45.183   5.075  13.213  0.00  0.00    +0.000 A 
ATOM      6  C   UNL     1      46.364   4.535  13.711  0.00  0.00    +0.000 A 
ATOM      7  N   UNL     1      47.517   5.225  13.842  0.00  0.00    +0.000 NA
BRANCH   5   8
ATOM      8  C   UNL     1      43.931   4.242  13.144  0.00  0.00    +0.000 C 
BRANCH   8   9
ATOM      9  N   UNL     1      44.243   2.939  12.569  0.00  0.00    +0.000 NA
ATOM     10  H   UNL     1      44.100   2.223  13.282  0.00  0.00    +0.000 HD
BRANCH   9  11
ATOM     11  C   UNL     1      43.406   2.619  11.423  0.00  0.00    +0.000 C 
BRANCH  11  12
ATOM     12  C   UNL     1      44.176   2.945  10.202  0.00  0.00    +0.000 A 
ATOM     13  C   UNL     1      44.317   4.103   9.469  0.00  0.00    +0.000 A 
ATOM     14  N   UNL     1      45.121   3.897   8.377  0.00  0.00    +0.000 NA
ATOM     15  C   UNL     1      45.462   2.629   8.432  0.00  0.00    +0.000 A 
ATOM     16  N   UNL     1      44.922   2.013   9.522  0.00  0.00    +0.000 N 
ATOM     17  H   UNL     1      45.003   1.035   9.762  0.00  0.00    +0.000 HD
ENDBRANCH  11  12
ENDBRANCH   9  11
ENDBRANCH   8   9
ENDBRANCH   5   8
ENDBRANCH   1   2
BRANCH   1  18
ATOM     18  N   UNL     1      49.798   6.673  14.587  0.00  0.00    +0.000 NA
ATOM     19  H   UNL     1      50.466   6.123  14.040  0.00  0.00    +0.000 HD
BRANCH  18  20
ATOM     20  C   UNL     1      50.575   7.691  15.326  0.00  0.00    +0.000 C 
BRANCH  20  21
ATOM     21  C   UNL     1      51.658   6.987  16.153  0.00  0.00    +0.000 A 
ATOM     22  C   UNL     1      53.009   7.318  16.179  0.00  0.00    +0.000 A 
ATOM     23  S   UNL     1      53.985   6.146  16.954  0.00  0.00    +0.000 S 
ATOM     24  C   UNL     1      52.637   5.167  17.294  0.00  0.00    +0.000 A 
ATOM     25  N   UNL     1      52.775   3.924  17.827  0.00  0.00    +0.000 NA
ATOM     26  C   UNL     1      51.661   3.287  17.980  0.00  0.00    +0.000 A 
ATOM     27  N   UNL     1      50.416   3.806  17.716  0.00  0.00    +0.000 N 
ATOM     28  C   UNL     1      50.226   5.097  17.275  0.00  0.00    +0.000 A 
ATOM     29  O   UNL     1      49.114   5.614  17.202  0.00  0.00    +0.000 OA
ATOM     30  C   UNL     1      51.455   5.784  16.932  0.00  0.00    +0.000 A 
ATOM     31  H   UNL     1      49.587   3.276  17.933  0.00  0.00    +0.000 HD
ENDBRANCH  20  21
BRANCH  20  33
ATOM     32  N   UNL     1      49.135   9.279  16.893  0.00  0.00    +0.000 NA
ATOM     33  C   UNL     1      49.764   8.591  16.193  0.00  0.00    +0.000 C 
ENDBRANCH  20  33
ENDBRANCH  18  20
ENDBRANCH   1  18
TORSDOF 9
ENDMDL
MODEL 9
REMARK VINA RESULT:    -6.235      3.598      8.400
REMARK INTER + INTRA:         -10.462
REMARK INTER:                  -9.448
REMARK INTRA:                  -1.014
REMARK UNBOUND:                -0.947
REMARK  Name = 
REMARK  9 active torsions:
REMARK  status: ('A' for Active; 'I' for Inactive)
REMARK    1  A    between atoms: C_2  and  C_3
REMARK    2  A    between atoms: C_3  and  N_4
REMARK    3  A    between atoms: C_3  and  C_20
REMARK    4  A    between atoms: N_4  and  C_5
REMARK    5  A    between atoms: C_5  and  C_6
REMARK    6  A    between atoms: C_9  and  C_10
REMARK    7  A    between atoms: C_10  and  N_11
REMARK    8  A    between atoms: N_11  and  C_12
REMARK    9  A    between atoms: C_12  and  C_13
REMARK                            x       y       z     vdW  Elec       q    Type
REMARK                         _______ _______ _______ _____ _____    ______ ____
ROOT
ATOM      1  C   UNL     1      48.214   9.219  14.222  0.00  0.00    +0.000 C 
ENDROOT
BRANCH   1   2
ATOM      2  C   UNL     1      48.346   8.543  15.578  0.00  0.00    +0.000 A 
ATOM      3  C   UNL     1      48.008   9.209  16.752  0.00  0.00    +0.000 A 
ATOM      4  C   UNL     1      48.215   8.559  17.977  0.00  0.00    +0.000 A 
ATOM      5  C   UNL     1      48.729   7.269  18.005  0.00  0.00    +0.000 A 
ATOM      6  C   UNL     1      49.028   6.682  16.779  0.00  0.00    +0.000 A 
ATOM      7  N   UNL     1      48.862   7.291  15.586  0.00  0.00    +0.000 NA
BRANCH   5   8
ATOM      8  C   UNL     1      48.990   6.529  19.289  0.00  0.00    +0.000 C 
BRANCH   8   9
ATOM      9  N   UNL     1      49.748   5.315  19.009  0.00  0.00    +0.000 NA
ATOM     10  H   UNL     1      50.534   5.261  19.657  0.00  0.00    +0.000 HD
BRANCH   9  11
ATOM     11  C   UNL     1      48.947   4.110  19.158  0.00  0.00    +0.000 C 
BRANCH  11  12
ATOM     12  C   UNL     1      49.316   3.188  18.060  0.00  0.00    +0.000 A 
ATOM     13  C   UNL     1      48.632   2.732  16.955  0.00  0.00    +0.000 A 
ATOM     14  N   UNL     1      49.393   1.846  16.237  0.00  0.00    +0.000 NA
ATOM     15  C   UNL     1      50.527   1.751  16.895  0.00  0.00    +0.000 A 
ATOM     16  N   UNL     1      50.531   2.550  18.001  0.00  0.00    +0.000 N 
ATOM     17  H   UNL     1      51.268   2.622  18.688  0.00  0.00    +0.000 HD
ENDBRANCH  11  12
ENDBRANCH   9  11
ENDBRANCH   8   9
ENDBRANCH   5   8
ENDBRANCH   1   2
BRANCH   1  18
ATOM     18  N   UNL     1      46.982   8.916  13.466  0.00  0.00    +0.000 NA
ATOM     19  H   UNL     1      46.636   9.793  13.067  0.00  0.00    +0.000 HD
BRANCH  18  20
ATOM     20  C   UNL     1      47.229   7.993  12.336  0.00  0.00    +0.000 C 
BRANCH  20  21
ATOM     21  C   UNL     1      46.588   6.636  12.652  0.00  0.00    +0.000 A 
ATOM     22  C   UNL     1      47.183   5.598  13.361  0.00  0.00    +0.000 A 
ATOM     23  S   UNL     1      46.322   4.123  13.263  0.00  0.00    +0.000 S 
ATOM     24  C   UNL     1      45.120   4.825  12.286  0.00  0.00    +0.000 A 
ATOM     25  N   UNL     1      44.138   4.077  11.717  0.00  0.00    +0.000 NA
ATOM     26  C   UNL     1      43.330   4.748  10.964  0.00  0.00    +0.000 A 
ATOM     27  N   UNL     1      43.373   6.110  10.784  0.00  0.00    +0.000 N 
ATOM     28  C   UNL     1      44.287   6.918  11.424  0.00  0.00    +0.000 A 
ATOM     29  O   UNL     1      44.219   8.143  11.399  0.00  0.00    +0.000 OA
ATOM     30  C   UNL     1      45.310   6.185  12.143  0.00  0.00    +0.000 A 
ATOM     31  H   UNL     1      42.662   6.574  10.241  0.00  0.00    +0.000 HD
ENDBRANCH  20  21
BRANCH  20  33
ATOM     32  N   UNL     1      49.792   7.696  11.711  0.00  0.00    +0.000 NA
ATOM     33  C   UNL     1      48.663   7.818  11.973  0.00  0.00    +0.000 C 
ENDBRANCH  20  33
ENDBRANCH  18  20
ENDBRANCH   1  18
TORSDOF 9
ENDMDL
