MODEL 1
REMARK VINA RESULT:    -7.526      0.000      0.000
REMARK INTER + INTRA:         -10.416
REMARK INTER:                  -9.726
REMARK INTRA:                  -0.690
REMARK UNBOUND:                -0.690
REMARK  Name = 
REMARK  7 active torsions:
REMARK  status: ('A' for Active; 'I' for Inactive)
REMARK    1  A    between atoms: C_1  and  O_2
REMARK    2  A    between atoms: O_2  and  C_3
REMARK    3  A    between atoms: C_7  and  C_8
REMARK    4  A    between atoms: C_12  and  C_13
REMARK    5  A    between atoms: C_13  and  N_14
REMARK    6  A    between atoms: C_19  and  O_20
REMARK    7  A    between atoms: O_20  and  C_21
REMARK                            x       y       z     vdW  Elec       q    Type
REMARK                         _______ _______ _______ _____ _____    ______ ____
ROOT
ATOM      1  C   UNL     1      46.444   5.365  13.683  0.00  0.00    +0.000 A 
ATOM      2  C   UNL     1      46.933   6.607  13.237  0.00  0.00    +0.000 A 
ATOM      3  C   UNL     1      46.318   7.305  12.195  0.00  0.00    +0.000 A 
ATOM      4  C   UNL     1      45.195   6.777  11.565  0.00  0.00    +0.000 A 
ATOM      5  C   UNL     1      44.681   5.540  11.967  0.00  0.00    +0.000 A 
ATOM      6  C   UNL     1      45.301   4.859  13.034  0.00  0.00    +0.000 A 
ENDROOT
BRANCH   1  11
ATOM      7  C   UNL     1      48.135   4.513  16.986  0.00  0.00    +0.000 A 
ATOM      8  C   UNL     1      48.391   3.170  16.746  0.00  0.00    +0.000 A 
ATOM      9  N   UNL     1      48.054   2.521  15.609  0.00  0.00    +0.000 NA
ATOM     10  C   UNL     1      47.426   3.256  14.659  0.00  0.00    +0.000 A 
ATOM     11  C   UNL     1      47.120   4.616  14.766  0.00  0.00    +0.000 A 
ATOM     12  C   UNL     1      47.502   5.234  15.972  0.00  0.00    +0.000 A 
BRANCH   7  14
ATOM     13  C   UNL     1      47.737   6.025  18.770  0.00  0.00    +0.000 C 
ATOM     14  O   UNL     1      48.538   4.999  18.195  0.00  0.00    +0.000 OA
ENDBRANCH   7  14
ENDBRANCH   1  11
BRANCH   5  15
ATOM     15  C   UNL     1      43.504   4.924  11.249  0.00  0.00    +0.000 C 
BRANCH  15  16
ATOM     16  N   UNL     1      43.686   4.985   9.811  0.00  0.00    +0.000 N 
ATOM     17  C   UNL     1      44.504   4.035   9.207  0.00  0.00    +0.000 A 
ATOM     18  C   UNL     1      44.574   2.696   9.615  0.00  0.00    +0.000 A 
ATOM     19  N   UNL     1      45.331   1.749   9.006  0.00  0.00    +0.000 NA
ATOM     20  C   UNL     1      46.009   2.190   7.926  0.00  0.00    +0.000 A 
ATOM     21  C   UNL     1      45.945   3.505   7.491  0.00  0.00    +0.000 A 
ATOM     22  N   UNL     1      45.203   4.451   8.126  0.00  0.00    +0.000 NA
ATOM     23  H   UNL     1      43.926   5.900   9.439  0.00  0.00    +0.000 HD
BRANCH  21  24
ATOM     24  O   UNL     1      46.673   3.816   6.361  0.00  0.00    +0.000 OA
ATOM     25  C   UNL     1      47.132   2.673   5.650  0.00  0.00    +0.000 C 
ENDBRANCH  21  24
ENDBRANCH  15  16
ENDBRANCH   5  15
TORSDOF 5
ENDMDL
MODEL 2
REMARK VINA RESULT:    -7.495      2.943      4.365
REMARK INTER + INTRA:         -10.376
REMARK INTER:                  -9.735
REMARK INTRA:                  -0.641
REMARK UNBOUND:                -0.690
REMARK  Name = 
REMARK  7 active torsions:
REMARK  status: ('A' for Active; 'I' for Inactive)
REMARK    1  A    between atoms: C_1  and  O_2
REMARK    2  A    between atoms: O_2  and  C_3
REMARK    3  A    between atoms: C_7  and  C_8
REMARK    4  A    between atoms: C_12  and  C_13
REMARK    5  A    between atoms: C_13  and  N_14
REMARK    6  A    between atoms: C_19  and  O_20
REMARK    7  A    between atoms: O_20  and  C_21
REMARK                            x       y       z     vdW  Elec       q    Type
REMARK                         _______ _______ _______ _____ _____    ______ ____
ROOT
ATOM      1  C   UNL     1      46.662   6.471  12.256  0.00  0.00    +0.000 A 
ATOM      2  C   UNL     1      46.997   5.559  13.273  0.00  0.00    +0.000 A 
ATOM      3  C   UNL     1      46.276   4.377  13.463  0.00  0.00    +0.000 A 
ATOM      4  C   UNL     1      45.194   4.077  12.641  0.00  0.00    +0.000 A 
ATOM      5  C   UNL     1      44.818   4.961  11.625  0.00  0.00    +0.000 A 
ATOM      6  C   UNL     1      45.569   6.138  11.433  0.00  0.00    +0.000 A 
ENDROOT
BRANCH   1  11
ATOM      7  C   UNL     1      49.486   8.955  11.661  0.00  0.00    +0.000 A 
ATOM      8  C   UNL     1      48.756  10.129  11.778  0.00  0.00    +0.000 A 
ATOM      9  N   UNL     1      47.428  10.180  12.026  0.00  0.00    +0.000 NA
ATOM     10  C   UNL     1      46.795   8.989  12.163  0.00  0.00    +0.000 A 
ATOM     11  C   UNL     1      47.410   7.737  12.082  0.00  0.00    +0.000 A 
ATOM     12  C   UNL     1      48.795   7.754  11.827  0.00  0.00    +0.000 A 
BRANCH   7  14
ATOM     13  C   UNL     1      51.479   7.968  10.833  0.00  0.00    +0.000 C 
ATOM     14  O   UNL     1      50.818   9.093  11.400  0.00  0.00    +0.000 OA
ENDBRANCH   7  14
ENDBRANCH   1  11
BRANCH   5  15
ATOM     15  C   UNL     1      43.606   4.681  10.768  0.00  0.00    +0.000 C 
BRANCH  15  16
ATOM     16  N   UNL     1      43.952   4.707   9.359  0.00  0.00    +0.000 N 
ATOM     17  C   UNL     1      44.796   3.717   8.865  0.00  0.00    +0.000 A 
ATOM     18  C   UNL     1      44.768   2.385   9.298  0.00  0.00    +0.000 A 
ATOM     19  N   UNL     1      45.551   1.399   8.793  0.00  0.00    +0.000 NA
ATOM     20  C   UNL     1      46.363   1.795   7.791  0.00  0.00    +0.000 A 
ATOM     21  C   UNL     1      46.399   3.103   7.332  0.00  0.00    +0.000 A 
ATOM     22  N   UNL     1      45.627   4.087   7.865  0.00  0.00    +0.000 NA
ATOM     23  H   UNL     1      44.267   5.606   9.003  0.00  0.00    +0.000 HD
BRANCH  21  24
ATOM     24  O   UNL     1      47.262   3.366   6.287  0.00  0.00    +0.000 OA
ATOM     25  C   UNL     1      47.898   2.203   5.771  0.00  0.00    +0.000 C 
ENDBRANCH  21  24
ENDBRANCH  15  16
ENDBRANCH   5  15
TORSDOF 5
ENDMDL
MODEL 3
REMARK VINA RESULT:    -6.956      3.448      7.548
REMARK INTER + INTRA:          -9.679
REMARK INTER:                  -9.012
REMARK INTRA:                  -0.667
REMARK UNBOUND:                -0.690
REMARK  Name = 
REMARK  7 active torsions:
REMARK  status: ('A' for Active; 'I' for Inactive)
REMARK    1  A    between atoms: C_1  and  O_2
REMARK    2  A    between atoms: O_2  and  C_3
REMARK    3  A    between atoms: C_7  and  C_8
REMARK    4  A    between atoms: C_12  and  C_13
REMARK    5  A    between atoms: C_13  and  N_14
REMARK    6  A    between atoms: C_19  and  O_20
REMARK    7  A    between atoms: O_20  and  C_21
REMARK                            x       y       z     vdW  Elec       q    Type
REMARK                         _______ _______ _______ _____ _____    ______ ____
ROOT
ATOM      1  C   UNL     1      44.832   3.546  10.152  0.00  0.00    +0.000 A 
ATOM      2  C   UNL     1      43.994   2.562  10.707  0.00  0.00    +0.000 A 
ATOM      3  C   UNL     1      43.326   2.766  11.918  0.00  0.00    +0.000 A 
ATOM      4  C   UNL     1      43.482   3.964  12.610  0.00  0.00    +0.000 A 
ATOM      5  C   UNL     1      44.315   4.965  12.101  0.00  0.00    +0.000 A 
ATOM      6  C   UNL     1      44.964   4.751  10.869  0.00  0.00    +0.000 A 
ENDROOT
BRANCH   1  11
ATOM      7  C   UNL     1      46.639   1.810   7.286  0.00  0.00    +0.000 A 
ATOM      8  C   UNL     1      46.934   2.930   6.520  0.00  0.00    +0.000 A 
ATOM      9  N   UNL     1      46.589   4.194   6.853  0.00  0.00    +0.000 NA
ATOM     10  C   UNL     1      45.911   4.346   8.016  0.00  0.00    +0.000 A 
ATOM     11  C   UNL     1      45.562   3.309   8.886  0.00  0.00    +0.000 A 
ATOM     12  C   UNL     1      45.955   2.018   8.484  0.00  0.00    +0.000 A 
BRANCH   7  14
ATOM     13  C   UNL     1      46.671  -0.551   7.515  0.00  0.00    +0.000 C 
ATOM     14  O   UNL     1      47.057   0.610   6.789  0.00  0.00    +0.000 OA
ENDBRANCH   7  14
ENDBRANCH   1  11
BRANCH   5  15
ATOM     15  C   UNL     1      44.545   6.243  12.874  0.00  0.00    +0.000 C 
BRANCH  15  16
ATOM     16  N   UNL     1      45.929   6.349  13.295  0.00  0.00    +0.000 N 
ATOM     17  C   UNL     1      46.696   7.397  12.795  0.00  0.00    +0.000 A 
ATOM     18  C   UNL     1      46.196   8.684  12.562  0.00  0.00    +0.000 A 
ATOM     19  N   UNL     1      46.942   9.727  12.119  0.00  0.00    +0.000 NA
ATOM     20  C   UNL     1      48.248   9.439  11.943  0.00  0.00    +0.000 A 
ATOM     21  C   UNL     1      48.773   8.178  12.182  0.00  0.00    +0.000 A 
ATOM     22  N   UNL     1      48.009   7.135  12.600  0.00  0.00    +0.000 NA
ATOM     23  H   UNL     1      46.473   5.491  13.231  0.00  0.00    +0.000 HD
BRANCH  21  24
ATOM     24  O   UNL     1      50.130   8.027  11.980  0.00  0.00    +0.000 OA
ATOM     25  C   UNL     1      50.914   8.398  13.107  0.00  0.00    +0.000 C 
ENDBRANCH  21  24
ENDBRANCH  15  16
ENDBRANCH   5  15
TORSDOF 5
ENDMDL
MODEL 4
REMARK VINA RESULT:    -6.744      2.122      8.120
REMARK INTER + INTRA:          -9.406
REMARK INTER:                  -8.934
REMARK INTRA:                  -0.472
REMARK UNBOUND:                -0.690
REMARK  Name = 
REMARK  7 active torsions:
REMARK  status: ('A' for Active; 'I' for Inactive)
REMARK    1  A    between atoms: C_1  and  O_2
REMARK    2  A    between atoms: O_2  and  C_3
REMARK    3  A    between atoms: C_7  and  C_8
REMARK    4  A    between atoms: C_12  and  C_13
REMARK    5  A    between atoms: C_13  and  N_14
REMARK    6  A    between atoms: C_19  and  O_20
REMARK    7  A    between atoms: O_20  and  C_21
REMARK                            x       y       z     vdW  Elec       q    Type
REMARK                         _______ _______ _______ _____ _____    ______ ____
ROOT
ATOM      1  C   UNL     1      45.608   6.282  11.402  0.00  0.00    +0.000 A 
ATOM      2  C   UNL     1      44.833   7.456  11.390  0.00  0.00    +0.000 A 
ATOM      3  C   UNL     1      45.163   8.560  12.182  0.00  0.00    +0.000 A 
ATOM      4  C   UNL     1      46.279   8.516  13.013  0.00  0.00    +0.000 A 
ATOM      5  C   UNL     1      47.071   7.365  13.065  0.00  0.00    +0.000 A 
ATOM      6  C   UNL     1      46.736   6.269  12.245  0.00  0.00    +0.000 A 
ENDROOT
BRANCH   1  11
ATOM      7  C   UNL     1      45.248   3.874   8.475  0.00  0.00    +0.000 A 
ATOM      8  C   UNL     1      44.495   2.893   9.107  0.00  0.00    +0.000 A 
ATOM      9  N   UNL     1      44.104   2.947  10.399  0.00  0.00    +0.000 NA
ATOM     10  C   UNL     1      44.487   4.042  11.099  0.00  0.00    +0.000 A 
ATOM     11  C   UNL     1      45.234   5.106  10.585  0.00  0.00    +0.000 A 
ATOM     12  C   UNL     1      45.605   4.991   9.231  0.00  0.00    +0.000 A 
BRANCH   7  14
ATOM     13  C   UNL     1      46.941   3.503   6.855  0.00  0.00    +0.000 C 
ATOM     14  O   UNL     1      45.560   3.648   7.167  0.00  0.00    +0.000 OA
ENDBRANCH   7  14
ENDBRANCH   1  11
BRANCH   5  15
ATOM     15  C   UNL     1      48.246   7.280  14.012  0.00  0.00    +0.000 C 
BRANCH  15  16
ATOM     16  N   UNL     1      47.934   6.432  15.147  0.00  0.00    +0.000 N 
ATOM     17  C   UNL     1      48.984   5.955  15.925  0.00  0.00    +0.000 A 
ATOM     18  C   UNL     1      50.134   6.698  16.221  0.00  0.00    +0.000 A 
ATOM     19  N   UNL     1      51.143   6.264  17.016  0.00  0.00    +0.000 NA
ATOM     20  C   UNL     1      50.943   5.040  17.547  0.00  0.00    +0.000 A 
ATOM     21  C   UNL     1      49.807   4.290  17.285  0.00  0.00    +0.000 A 
ATOM     22  N   UNL     1      48.815   4.726  16.465  0.00  0.00    +0.000 NA
ATOM     23  H   UNL     1      47.298   5.661  14.956  0.00  0.00    +0.000 HD
BRANCH  21  24
ATOM     24  O   UNL     1      49.722   3.062  17.911  0.00  0.00    +0.000 OA
ATOM     25  C   UNL     1      50.505   2.053  17.287  0.00  0.00    +0.000 C 
ENDBRANCH  21  24
ENDBRANCH  15  16
ENDBRANCH   5  15
TORSDOF 5
ENDMDL
MODEL 5
REMARK VINA RESULT:    -6.333      3.783      4.943
REMARK INTER + INTRA:          -8.874
REMARK INTER:                  -8.253
REMARK INTRA:                  -0.621
REMARK UNBOUND:                -0.690
REMARK  Name = 
REMARK  7 active torsions:
REMARK  status: ('A' for Active; 'I' for Inactive)
REMARK    1  A    between atoms: C_1  and  O_2
REMARK    2  A    between atoms: O_2  and  C_3
REMARK    3  A    between atoms: C_7  and  C_8
REMARK    4  A    between atoms: C_12  and  C_13
REMARK    5  A    between atoms: C_13  and  N_14
REMARK    6  A    between atoms: C_19  and  O_20
REMARK    7  A    between atoms: O_20  and  C_21
REMARK                            x       y       z     vdW  Elec       q    Type
REMARK                         _______ _______ _______ _____ _____    ______ ____
ROOT
ATOM      1  C   UNL     1      48.174   8.236  12.044  0.00  0.00    +0.000 A 
ATOM      2  C   UNL     1      47.450   9.267  12.670  0.00  0.00    +0.000 A 
ATOM      3  C   UNL     1      46.078   9.156  12.912  0.00  0.00    +0.000 A 
ATOM      4  C   UNL     1      45.391   8.008  12.529  0.00  0.00    +0.000 A 
ATOM      5  C   UNL     1      46.068   6.963  11.894  0.00  0.00    +0.000 A 
ATOM      6  C   UNL     1      47.455   7.082  11.676  0.00  0.00    +0.000 A 
ENDROOT
BRANCH   1  11
ATOM      7  C   UNL     1      51.675   7.600  10.689  0.00  0.00    +0.000 A 
ATOM      8  C   UNL     1      52.323   8.676  11.280  0.00  0.00    +0.000 A 
ATOM      9  N   UNL     1      51.718   9.589  12.072  0.00  0.00    +0.000 NA
ATOM     10  C   UNL     1      50.391   9.417  12.284  0.00  0.00    +0.000 A 
ATOM     11  C   UNL     1      49.621   8.374  11.762  0.00  0.00    +0.000 A 
ATOM     12  C   UNL     1      50.312   7.454  10.950  0.00  0.00    +0.000 A 
BRANCH   7  14
ATOM     13  C   UNL     1      53.840   6.772  10.182  0.00  0.00    +0.000 C 
ATOM     14  O   UNL     1      52.443   6.783   9.912  0.00  0.00    +0.000 OA
ENDBRANCH   7  14
ENDBRANCH   1  11
BRANCH   5  15
ATOM     15  C   UNL     1      45.322   5.740  11.414  0.00  0.00    +0.000 C 
BRANCH  15  16
ATOM     16  N   UNL     1      45.276   5.699   9.965  0.00  0.00    +0.000 N 
ATOM     17  C   UNL     1      45.454   4.473   9.330  0.00  0.00    +0.000 A 
ATOM     18  C   UNL     1      44.965   3.260   9.831  0.00  0.00    +0.000 A 
ATOM     19  N   UNL     1      45.090   2.066   9.200  0.00  0.00    +0.000 NA
ATOM     20  C   UNL     1      45.709   2.132   8.004  0.00  0.00    +0.000 A 
ATOM     21  C   UNL     1      46.187   3.322   7.477  0.00  0.00    +0.000 A 
ATOM     22  N   UNL     1      46.079   4.508   8.131  0.00  0.00    +0.000 NA
ATOM     23  H   UNL     1      45.846   6.395   9.489  0.00  0.00    +0.000 HD
BRANCH  21  24
ATOM     24  O   UNL     1      46.782   3.250   6.233  0.00  0.00    +0.000 OA
ATOM     25  C   UNL     1      47.896   2.366   6.188  0.00  0.00    +0.000 C 
ENDBRANCH  21  24
ENDBRANCH  15  16
ENDBRANCH   5  15
TORSDOF 5
ENDMDL
MODEL 6
REMARK VINA RESULT:    -6.320      1.999      2.492
REMARK INTER + INTRA:          -8.858
REMARK INTER:                  -8.283
REMARK INTRA:                  -0.575
REMARK UNBOUND:                -0.690
REMARK  Name = 
REMARK  7 active torsions:
REMARK  status: ('A' for Active; 'I' for Inactive)
REMARK    1  A    between atoms: C_1  and  O_2
REMARK    2  A    between atoms: O_2  and  C_3
REMARK    3  A    between atoms: C_7  and  C_8
REMARK    4  A    between atoms: C_12  and  C_13
REMARK    5  A    between atoms: C_13  and  N_14
REMARK    6  A    between atoms: C_19  and  O_20
REMARK    7  A    between atoms: O_20  and  C_21
REMARK                            x       y       z     vdW  Elec       q    Type
REMARK                         _______ _______ _______ _____ _____    ______ ____
ROOT
ATOM      1  C   UNL     1      48.507   6.871  14.141  0.00  0.00    +0.000 A 
ATOM      2  C   UNL     1      49.332   7.450  13.160  0.00  0.00    +0.000 A 
ATOM      3  C   UNL     1      48.887   7.640  11.849  0.00  0.00    +0.000 A 
ATOM      4  C   UNL     1      47.603   7.249  11.482  0.00  0.00    +0.000 A 
ATOM      5  C   UNL     1      46.753   6.658  12.422  0.00  0.00    +0.000 A 
ATOM      6  C   UNL     1      47.210   6.493  13.745  0.00  0.00    +0.000 A 
ENDROOT
BRANCH   1  11
ATOM      7  C   UNL     1      49.096   5.305  17.561  0.00  0.00    +0.000 A 
ATOM      8  C   UNL     1      49.931   6.278  18.093  0.00  0.00    +0.000 A 
ATOM      9  N   UNL     1      50.320   7.391  17.433  0.00  0.00    +0.000 NA
ATOM     10  C   UNL     1      49.851   7.538  16.170  0.00  0.00    +0.000 A 
ATOM     11  C   UNL     1      48.997   6.643  15.520  0.00  0.00    +0.000 A 
ATOM     12  C   UNL     1      48.623   5.507  16.264  0.00  0.00    +0.000 A 
BRANCH   7  14
ATOM     13  C   UNL     1      48.548   4.532  19.737  0.00  0.00    +0.000 C 
ATOM     14  O   UNL     1      48.814   4.242  18.369  0.00  0.00    +0.000 OA
ENDBRANCH   7  14
ENDBRANCH   1  11
BRANCH   5  15
ATOM     15  C   UNL     1      45.381   6.169  12.021  0.00  0.00    +0.000 C 
BRANCH  15  16
ATOM     16  N   UNL     1      45.251   6.122  10.577  0.00  0.00    +0.000 N 
ATOM     17  C   UNL     1      45.142   4.879   9.962  0.00  0.00    +0.000 A 
ATOM     18  C   UNL     1      44.443   3.797  10.513  0.00  0.00    +0.000 A 
ATOM     19  N   UNL     1      44.289   2.596   9.903  0.00  0.00    +0.000 NA
ATOM     20  C   UNL     1      44.845   2.520   8.676  0.00  0.00    +0.000 A 
ATOM     21  C   UNL     1      45.527   3.581   8.100  0.00  0.00    +0.000 A 
ATOM     22  N   UNL     1      45.697   4.772   8.733  0.00  0.00    +0.000 NA
ATOM     23  H   UNL     1      45.924   6.681  10.059  0.00  0.00    +0.000 HD
BRANCH  21  24
ATOM     24  O   UNL     1      46.028   3.375   6.831  0.00  0.00    +0.000 OA
ATOM     25  C   UNL     1      47.331   2.806   6.822  0.00  0.00    +0.000 C 
ENDBRANCH  21  24
ENDBRANCH  15  16
ENDBRANCH   5  15
TORSDOF 5
ENDMDL
MODEL 7
REMARK VINA RESULT:    -6.310      3.132      7.637
REMARK INTER + INTRA:          -8.845
REMARK INTER:                  -8.205
REMARK INTRA:                  -0.640
REMARK UNBOUND:                -0.690
REMARK  Name = 
REMARK  7 active torsions:
REMARK  status: ('A' for Active; 'I' for Inactive)
REMARK    1  A    between atoms: C_1  and  O_2
REMARK    2  A    between atoms: O_2  and  C_3
REMARK    3  A    between atoms: C_7  and  C_8
REMARK    4  A    between atoms: C_12  and  C_13
REMARK    5  A    between atoms: C_13  and  N_14
REMARK    6  A    between atoms: C_19  and  O_20
REMARK    7  A    between atoms: O_20  and  C_21
REMARK                            x       y       z     vdW  Elec       q    Type
REMARK                         _______ _______ _______ _____ _____    ______ ____
ROOT
ATOM      1  C   UNL     1      44.705   4.746  10.586  0.00  0.00    +0.000 A 
ATOM      2  C   UNL     1      43.522   4.326  11.222  0.00  0.00    +0.000 A 
ATOM      3  C   UNL     1      42.996   5.014  12.319  0.00  0.00    +0.000 A 
ATOM      4  C   UNL     1      43.644   6.141  12.814  0.00  0.00    +0.000 A 
ATOM      5  C   UNL     1      44.829   6.587  12.221  0.00  0.00    +0.000 A 
ATOM      6  C   UNL     1      45.335   5.895  11.103  0.00  0.00    +0.000 A 
ENDROOT
BRANCH   1  11
ATOM      7  C   UNL     1      45.934   1.894   8.383  0.00  0.00    +0.000 A 
ATOM      8  C   UNL     1      46.354   2.643   7.293  0.00  0.00    +0.000 A 
ATOM      9  N   UNL     1      46.264   3.989   7.212  0.00  0.00    +0.000 NA
ATOM     10  C   UNL     1      45.723   4.622   8.281  0.00  0.00    +0.000 A 
ATOM     11  C   UNL     1      45.273   3.993   9.445  0.00  0.00    +0.000 A 
ATOM     12  C   UNL     1      45.400   2.590   9.468  0.00  0.00    +0.000 A 
BRANCH   7  14
ATOM     13  C   UNL     1      46.912   0.070   7.223  0.00  0.00    +0.000 C 
ATOM     14  O   UNL     1      46.094   0.543   8.288  0.00  0.00    +0.000 OA
ENDBRANCH   7  14
ENDBRANCH   1  11
BRANCH   5  15
ATOM     15  C   UNL     1      45.578   7.770  12.789  0.00  0.00    +0.000 C 
BRANCH  15  16
ATOM     16  N   UNL     1      46.910   7.858  12.222  0.00  0.00    +0.000 N 
ATOM     17  C   UNL     1      48.003   7.702  13.069  0.00  0.00    +0.000 A 
ATOM     18  C   UNL     1      48.031   6.807  14.146  0.00  0.00    +0.000 A 
ATOM     19  N   UNL     1      49.105   6.610  14.951  0.00  0.00    +0.000 NA
ATOM     20  C   UNL     1      50.191   7.335  14.613  0.00  0.00    +0.000 A 
ATOM     21  C   UNL     1      50.197   8.216  13.542  0.00  0.00    +0.000 A 
ATOM     22  N   UNL     1      49.105   8.423  12.759  0.00  0.00    +0.000 NA
ATOM     23  H   UNL     1      47.079   8.663  11.623  0.00  0.00    +0.000 HD
BRANCH  21  24
ATOM     24  O   UNL     1      51.382   8.878  13.296  0.00  0.00    +0.000 OA
ATOM     25  C   UNL     1      52.228   8.968  14.435  0.00  0.00    +0.000 C 
ENDBRANCH  21  24
ENDBRANCH  15  16
ENDBRANCH   5  15
TORSDOF 5
ENDMDL
MODEL 8
REMARK VINA RESULT:    -6.304      2.636      8.033
REMARK INTER + INTRA:          -8.836
REMARK INTER:                  -8.188
REMARK INTRA:                  -0.648
REMARK UNBOUND:                -0.690
REMARK  Name = 
REMARK  7 active torsions:
REMARK  status: ('A' for Active; 'I' for Inactive)
REMARK    1  A    between atoms: C_1  and  O_2
REMARK    2  A    between atoms: O_2  and  C_3
REMARK    3  A    between atoms: C_7  and  C_8
REMARK    4  A    between atoms: C_12  and  C_13
REMARK    5  A    between atoms: C_13  and  N_14
REMARK    6  A    between atoms: C_19  and  O_20
REMARK    7  A    between atoms: O_20  and  C_21
REMARK                            x       y       z     vdW  Elec       q    Type
REMARK                         _______ _______ _______ _____ _____    ______ ____
ROOT
ATOM      1  C   UNL     1      46.969   6.269  12.636  0.00  0.00    +0.000 A 
ATOM      2  C   UNL     1      47.501   7.145  11.672  0.00  0.00    +0.000 A 
ATOM      3  C   UNL     1      48.475   8.091  12.001  0.00  0.00    +0.000 A 
ATOM      4  C   UNL     1      48.941   8.191  13.309  0.00  0.00    +0.000 A 
ATOM      5  C   UNL     1      48.432   7.349  14.302  0.00  0.00    +0.000 A 
ATOM      6  C   UNL     1      47.466   6.385  13.949  0.00  0.00    +0.000 A 
ENDROOT
BRANCH   1  11
ATOM      7  C   UNL     1      44.528   4.136  10.640  0.00  0.00    +0.000 A 
ATOM      8  C   UNL     1      43.931   3.462  11.697  0.00  0.00    +0.000 A 
ATOM      9  N   UNL     1      44.260   3.638  12.996  0.00  0.00    +0.000 NA
ATOM     10  C   UNL     1      45.241   4.536  13.252  0.00  0.00    +0.000 A 
ATOM     11  C   UNL     1      45.914   5.290  12.287  0.00  0.00    +0.000 A 
ATOM     12  C   UNL     1      45.521   5.064  10.954  0.00  0.00    +0.000 A 
BRANCH   7  14
ATOM     13  C   UNL     1      44.615   2.655   8.788  0.00  0.00    +0.000 C 
ATOM     14  O   UNL     1      44.075   3.826   9.391  0.00  0.00    +0.000 OA
ENDBRANCH   7  14
ENDBRANCH   1  11
BRANCH   5  15
ATOM     15  C   UNL     1      48.880   7.490  15.738  0.00  0.00    +0.000 C 
BRANCH  15  16
ATOM     16  N   UNL     1      48.587   6.285  16.491  0.00  0.00    +0.000 N 
ATOM     17  C   UNL     1      49.649   5.482  16.895  0.00  0.00    +0.000 A 
ATOM     18  C   UNL     1      50.889   5.984  17.311  0.00  0.00    +0.000 A 
ATOM     19  N   UNL     1      51.916   5.215  17.752  0.00  0.00    +0.000 NA
ATOM     20  C   UNL     1      51.644   3.895  17.795  0.00  0.00    +0.000 A 
ATOM     21  C   UNL     1      50.420   3.374  17.405  0.00  0.00    +0.000 A 
ATOM     22  N   UNL     1      49.407   4.152  16.940  0.00  0.00    +0.000 NA
ATOM     23  H   UNL     1      47.863   5.689  16.098  0.00  0.00    +0.000 HD
BRANCH  21  24
ATOM     24  O   UNL     1      50.268   2.006  17.520  0.00  0.00    +0.000 OA
ATOM     25  C   UNL     1      51.494   1.292  17.435  0.00  0.00    +0.000 C 
ENDBRANCH  21  24
ENDBRANCH  15  16
ENDBRANCH   5  15
TORSDOF 5
ENDMDL
MODEL 9
REMARK VINA RESULT:    -5.834      2.800      8.862
REMARK INTER + INTRA:          -8.230
REMARK INTER:                  -7.667
REMARK INTRA:                  -0.563
REMARK UNBOUND:                -0.690
REMARK  Name = 
REMARK  7 active torsions:
REMARK  status: ('A' for Active; 'I' for Inactive)
REMARK    1  A    between atoms: C_1  and  O_2
REMARK    2  A    between atoms: O_2  and  C_3
REMARK    3  A    between atoms: C_7  and  C_8
REMARK    4  A    between atoms: C_12  and  C_13
REMARK    5  A    between atoms: C_13  and  N_14
REMARK    6  A    between atoms: C_19  and  O_20
REMARK    7  A    between atoms: O_20  and  C_21
REMARK                            x       y       z     vdW  Elec       q    Type
REMARK                         _______ _______ _______ _____ _____    ______ ____
ROOT
ATOM      1  C   UNL     1      46.758   5.962  12.569  0.00  0.00    +0.000 A 
ATOM      2  C   UNL     1      47.224   6.812  11.549  0.00  0.00    +0.000 A 
ATOM      3  C   UNL     1      48.288   7.693  11.758  0.00  0.00    +0.000 A 
ATOM      4  C   UNL     1      48.914   7.751  13.000  0.00  0.00    +0.000 A 
ATOM      5  C   UNL     1      48.476   6.934  14.046  0.00  0.00    +0.000 A 
ATOM      6  C   UNL     1      47.415   6.036  13.812  0.00  0.00    +0.000 A 
ENDROOT
BRANCH   1  11
ATOM      7  C   UNL     1      44.225   3.671  10.887  0.00  0.00    +0.000 A 
ATOM      8  C   UNL     1      43.444   3.378  11.997  0.00  0.00    +0.000 A 
ATOM      9  N   UNL     1      43.675   3.856  13.239  0.00  0.00    +0.000 NA
ATOM     10  C   UNL     1      44.748   4.670  13.381  0.00  0.00    +0.000 A 
ATOM     11  C   UNL     1      45.609   5.055  12.349  0.00  0.00    +0.000 A 
ATOM     12  C   UNL     1      45.309   4.528  11.078  0.00  0.00    +0.000 A 
BRANCH   7  14
ATOM     13  C   UNL     1      44.564   3.484   8.547  0.00  0.00    +0.000 C 
ATOM     14  O   UNL     1      43.847   3.092   9.711  0.00  0.00    +0.000 OA
ENDBRANCH   7  14
ENDBRANCH   1  11
BRANCH   5  15
ATOM     15  C   UNL     1      49.103   7.034  15.417  0.00  0.00    +0.000 C 
BRANCH  15  16
ATOM     16  N   UNL     1      48.273   6.383  16.413  0.00  0.00    +0.000 N 
ATOM     17  C   UNL     1      48.237   6.916  17.698  0.00  0.00    +0.000 A 
ATOM     18  C   UNL     1      48.274   8.289  17.971  0.00  0.00    +0.000 A 
ATOM     19  N   UNL     1      48.193   8.825  19.215  0.00  0.00    +0.000 NA
ATOM     20  C   UNL     1      48.037   7.917  20.200  0.00  0.00    +0.000 A 
ATOM     21  C   UNL     1      47.980   6.554  19.957  0.00  0.00    +0.000 A 
ATOM     22  N   UNL     1      48.089   6.028  18.708  0.00  0.00    +0.000 NA
ATOM     23  H   UNL     1      48.387   5.374  16.485  0.00  0.00    +0.000 HD
BRANCH  21  24
ATOM     24  O   UNL     1      47.796   5.739  21.055  0.00  0.00    +0.000 OA
ATOM     25  C   UNL     1      48.742   4.680  21.139  0.00  0.00    +0.000 C 
ENDBRANCH  21  24
ENDBRANCH  15  16
ENDBRANCH   5  15
TORSDOF 5
ENDMDL
