MODEL 1
REMARK VINA RESULT:    -8.014      0.000      0.000
REMARK INTER + INTRA:          -9.765
REMARK INTER:                  -9.419
REMARK INTRA:                  -0.346
REMARK UNBOUND:                -0.346
REMARK  Name = 
REMARK  3 active torsions:
REMARK  status: ('A' for Active; 'I' for Inactive)
REMARK    1  A    between atoms: C_2  and  C_4
REMARK    2  A    between atoms: N_8  and  C_9
REMARK    3  A    between atoms: C_9  and  C_10
REMARK                            x       y       z     vdW  Elec       q    Type
REMARK                         _______ _______ _______ _____ _____    ______ ____
ROOT
ATOM      1  C   UNL     1      46.507   2.623   7.414  0.00  0.00    +0.000 A 
ATOM      2  C   UNL     1      45.905   1.639   8.191  0.00  0.00    +0.000 A 
ATOM      3  C   UNL     1      44.983   2.021   9.161  0.00  0.00    +0.000 A 
ATOM      4  C   UNL     1      44.706   3.372   9.365  0.00  0.00    +0.000 A 
ATOM      5  N   UNL     1      43.809   3.687  10.381  0.00  0.00    +0.000 N 
ATOM      6  N   UNL     1      45.298   4.337   8.638  0.00  0.00    +0.000 NA
ATOM      7  C   UNL     1      46.182   3.946   7.679  0.00  0.00    +0.000 A 
ATOM      8  H   UNL     1      42.891   3.306  10.171  0.00  0.00    +0.000 HD
ENDROOT
BRANCH   1  10
ATOM      9  N   UNL     1      47.487   3.126   5.247  0.00  0.00    +0.000 N 
ATOM     10  C   UNL     1      47.486   2.317   6.350  0.00  0.00    +0.000 C 
ATOM     11  O   UNL     1      48.285   1.399   6.463  0.00  0.00    +0.000 OA
ATOM     12  H   UNL     1      48.223   2.964   4.571  0.00  0.00    +0.000 HD
ATOM     13  H   UNL     1      47.014   4.016   5.216  0.00  0.00    +0.000 HD
ENDBRANCH   1  10
BRANCH   5  14
ATOM     14  C   UNL     1      43.754   5.073  10.815  0.00  0.00    +0.000 C 
BRANCH  14  15
ATOM     15  C   UNL     1      44.862   5.267  11.821  0.00  0.00    +0.000 A 
ATOM     16  C   UNL     1      44.933   4.512  12.985  0.00  0.00    +0.000 A 
ATOM     17  N   UNL     1      45.925   4.625  13.901  0.00  0.00    +0.000 NA
ATOM     18  C   UNL     1      46.893   5.538  13.642  0.00  0.00    +0.000 A 
ATOM     19  C   UNL     1      46.904   6.351  12.521  0.00  0.00    +0.000 A 
ATOM     20 BR   UNL     1      48.297   7.584  12.223  0.00  0.00    +0.000 Br
ATOM     21  C   UNL     1      45.869   6.220  11.606  0.00  0.00    +0.000 A 
ENDBRANCH  14  15
ENDBRANCH   5  14
TORSDOF 3
ENDMDL
MODEL 2
REMARK VINA RESULT:    -7.213      3.343      6.334
REMARK INTER + INTRA:          -8.823
REMARK INTER:                  -8.449
REMARK INTRA:                  -0.374
REMARK UNBOUND:                -0.346
REMARK  Name = 
REMARK  3 active torsions:
REMARK  status: ('A' for Active; 'I' for Inactive)
REMARK    1  A    between atoms: C_2  and  C_4
REMARK    2  A    between atoms: N_8  and  C_9
REMARK    3  A    between atoms: C_9  and  C_10
REMARK                            x       y       z     vdW  Elec       q    Type
REMARK                         _______ _______ _______ _____ _____    ______ ____
ROOT
ATOM      1  C   UNL     1      46.626   5.104  13.693  0.00  0.00    +0.000 A 
ATOM      2  C   UNL     1      47.195   6.002  12.797  0.00  0.00    +0.000 A 
ATOM      3  C   UNL     1      46.631   6.139  11.532  0.00  0.00    +0.000 A 
ATOM      4  C   UNL     1      45.536   5.355  11.171  0.00  0.00    +0.000 A 
ATOM      5  N   UNL     1      45.048   5.508   9.876  0.00  0.00    +0.000 N 
ATOM      6  N   UNL     1      44.988   4.465  12.018  0.00  0.00    +0.000 NA
ATOM      7  C   UNL     1      45.539   4.358  13.258  0.00  0.00    +0.000 A 
ATOM      8  H   UNL     1      44.696   6.451   9.742  0.00  0.00    +0.000 HD
ENDROOT
BRANCH   1  10
ATOM      9  N   UNL     1      47.897   5.903  15.605  0.00  0.00    +0.000 N 
ATOM     10  C   UNL     1      47.142   4.900  15.062  0.00  0.00    +0.000 C 
ATOM     11  O   UNL     1      46.879   3.890  15.698  0.00  0.00    +0.000 OA
ATOM     12  H   UNL     1      48.165   5.791  16.574  0.00  0.00    +0.000 HD
ATOM     13  H   UNL     1      47.943   6.832  15.213  0.00  0.00    +0.000 HD
ENDBRANCH   1  10
BRANCH   5  14
ATOM     14  C   UNL     1      44.134   4.492   9.384  0.00  0.00    +0.000 C 
BRANCH  14  15
ATOM     15  C   UNL     1      44.973   3.401   8.766  0.00  0.00    +0.000 A 
ATOM     16  C   UNL     1      45.005   2.116   9.292  0.00  0.00    +0.000 A 
ATOM     17  N   UNL     1      45.715   1.095   8.754  0.00  0.00    +0.000 NA
ATOM     18  C   UNL     1      46.430   1.372   7.635  0.00  0.00    +0.000 A 
ATOM     19  C   UNL     1      46.479   2.623   7.044  0.00  0.00    +0.000 A 
ATOM     20 BR   UNL     1      47.482   2.924   5.478  0.00  0.00    +0.000 Br
ATOM     21  C   UNL     1      45.750   3.652   7.625  0.00  0.00    +0.000 A 
ENDBRANCH  14  15
ENDBRANCH   5  14
TORSDOF 3
ENDMDL
MODEL 3
REMARK VINA RESULT:    -6.898      3.355      6.511
REMARK INTER + INTRA:          -8.453
REMARK INTER:                  -8.121
REMARK INTRA:                  -0.332
REMARK UNBOUND:                -0.346
REMARK  Name = 
REMARK  3 active torsions:
REMARK  status: ('A' for Active; 'I' for Inactive)
REMARK    1  A    between atoms: C_2  and  C_4
REMARK    2  A    between atoms: N_8  and  C_9
REMARK    3  A    between atoms: C_9  and  C_10
REMARK                            x       y       z     vdW  Elec       q    Type
REMARK                         _______ _______ _______ _____ _____    ______ ____
ROOT
ATOM      1  C   UNL     1      46.980   5.620  13.686  0.00  0.00    +0.000 A 
ATOM      2  C   UNL     1      46.877   6.730  12.855  0.00  0.00    +0.000 A 
ATOM      3  C   UNL     1      46.038   6.663  11.746  0.00  0.00    +0.000 A 
ATOM      4  C   UNL     1      45.349   5.485  11.466  0.00  0.00    +0.000 A 
ATOM      5  N   UNL     1      44.562   5.469  10.317  0.00  0.00    +0.000 N 
ATOM      6  N   UNL     1      45.456   4.394  12.247  0.00  0.00    +0.000 NA
ATOM      7  C   UNL     1      46.264   4.483  13.339  0.00  0.00    +0.000 A 
ATOM      8  H   UNL     1      43.811   6.149  10.396  0.00  0.00    +0.000 HD
ENDROOT
BRANCH   1  10
ATOM      9  N   UNL     1      47.447   4.778  15.918  0.00  0.00    +0.000 N 
ATOM     10  C   UNL     1      47.831   5.599  14.894  0.00  0.00    +0.000 C 
ATOM     11  O   UNL     1      48.855   6.263  14.964  0.00  0.00    +0.000 OA
ATOM     12  H   UNL     1      48.087   4.702  16.699  0.00  0.00    +0.000 HD
ATOM     13  H   UNL     1      46.752   4.054  15.813  0.00  0.00    +0.000 HD
ENDBRANCH   1  10
BRANCH   5  14
ATOM     14  C   UNL     1      44.102   4.176   9.842  0.00  0.00    +0.000 C 
BRANCH  14  15
ATOM     15  C   UNL     1      45.125   3.676   8.853  0.00  0.00    +0.000 A 
ATOM     16  C   UNL     1      45.856   4.546   8.054  0.00  0.00    +0.000 A 
ATOM     17  N   UNL     1      46.810   4.148   7.177  0.00  0.00    +0.000 NA
ATOM     18  C   UNL     1      47.043   2.815   7.093  0.00  0.00    +0.000 A 
ATOM     19  C   UNL     1      46.357   1.866   7.832  0.00  0.00    +0.000 A 
ATOM     20 BR   UNL     1      46.753   0.031   7.671  0.00  0.00    +0.000 Br
ATOM     21  C   UNL     1      45.378   2.303   8.714  0.00  0.00    +0.000 A 
ENDBRANCH  14  15
ENDBRANCH   5  14
TORSDOF 3
ENDMDL
MODEL 4
REMARK VINA RESULT:    -6.534      3.415      6.422
REMARK INTER + INTRA:          -8.026
REMARK INTER:                  -7.910
REMARK INTRA:                  -0.116
REMARK UNBOUND:                -0.346
REMARK  Name = 
REMARK  3 active torsions:
REMARK  status: ('A' for Active; 'I' for Inactive)
REMARK    1  A    between atoms: C_2  and  C_4
REMARK    2  A    between atoms: N_8  and  C_9
REMARK    3  A    between atoms: C_9  and  C_10
REMARK                            x       y       z     vdW  Elec       q    Type
REMARK                         _______ _______ _______ _____ _____    ______ ____
ROOT
ATOM      1  C   UNL     1      47.307   5.798  13.783  0.00  0.00    +0.000 A 
ATOM      2  C   UNL     1      47.081   4.561  14.377  0.00  0.00    +0.000 A 
ATOM      3  C   UNL     1      46.292   3.629  13.708  0.00  0.00    +0.000 A 
ATOM      4  C   UNL     1      45.716   3.958  12.482  0.00  0.00    +0.000 A 
ATOM      5  N   UNL     1      44.902   2.998  11.888  0.00  0.00    +0.000 N 
ATOM      6  N   UNL     1      45.906   5.158  11.906  0.00  0.00    +0.000 NA
ATOM      7  C   UNL     1      46.696   6.051  12.563  0.00  0.00    +0.000 A 
ATOM      8  H   UNL     1      45.443   2.170  11.659  0.00  0.00    +0.000 HD
ENDROOT
BRANCH   1  10
ATOM      9  N   UNL     1      48.396   6.733  15.746  0.00  0.00    +0.000 N 
ATOM     10  C   UNL     1      48.142   6.846  14.406  0.00  0.00    +0.000 C 
ATOM     11  O   UNL     1      48.614   7.760  13.747  0.00  0.00    +0.000 OA
ATOM     12  H   UNL     1      49.044   7.403  16.139  0.00  0.00    +0.000 HD
ATOM     13  H   UNL     1      48.223   5.888  16.270  0.00  0.00    +0.000 HD
ENDBRANCH   1  10
BRANCH   5  14
ATOM     14  C   UNL     1      44.050   3.431  10.793  0.00  0.00    +0.000 C 
BRANCH  14  15
ATOM     15  C   UNL     1      44.856   3.299   9.525  0.00  0.00    +0.000 A 
ATOM     16  C   UNL     1      45.132   4.395   8.717  0.00  0.00    +0.000 A 
ATOM     17  N   UNL     1      45.879   4.333   7.588  0.00  0.00    +0.000 NA
ATOM     18  C   UNL     1      46.372   3.117   7.248  0.00  0.00    +0.000 A 
ATOM     19  C   UNL     1      46.140   1.962   7.976  0.00  0.00    +0.000 A 
ATOM     20 BR   UNL     1      46.877   0.311   7.448  0.00  0.00    +0.000 Br
ATOM     21  C   UNL     1      45.362   2.054   9.121  0.00  0.00    +0.000 A 
ENDBRANCH  14  15
ENDBRANCH   5  14
TORSDOF 3
ENDMDL
MODEL 5
REMARK VINA RESULT:    -6.476      3.978      5.951
REMARK INTER + INTRA:          -7.958
REMARK INTER:                  -7.621
REMARK INTRA:                  -0.337
REMARK UNBOUND:                -0.346
REMARK  Name = 
REMARK  3 active torsions:
REMARK  status: ('A' for Active; 'I' for Inactive)
REMARK    1  A    between atoms: C_2  and  C_4
REMARK    2  A    between atoms: N_8  and  C_9
REMARK    3  A    between atoms: C_9  and  C_10
REMARK                            x       y       z     vdW  Elec       q    Type
REMARK                         _______ _______ _______ _____ _____    ______ ____
ROOT
ATOM      1  C   UNL     1      45.334   4.527  11.596  0.00  0.00    +0.000 A 
ATOM      2  C   UNL     1      45.956   5.739  11.874  0.00  0.00    +0.000 A 
ATOM      3  C   UNL     1      46.635   5.886  13.080  0.00  0.00    +0.000 A 
ATOM      4  C   UNL     1      46.652   4.839  14.000  0.00  0.00    +0.000 A 
ATOM      5  N   UNL     1      47.310   5.066  15.205  0.00  0.00    +0.000 N 
ATOM      6  N   UNL     1      46.035   3.668  13.757  0.00  0.00    +0.000 NA
ATOM      7  C   UNL     1      45.392   3.534  12.564  0.00  0.00    +0.000 A 
ATOM      8  H   UNL     1      48.299   5.228  15.041  0.00  0.00    +0.000 HD
ENDROOT
BRANCH   1  10
ATOM      9  N   UNL     1      45.005   4.956   9.226  0.00  0.00    +0.000 N 
ATOM     10  C   UNL     1      44.603   4.270  10.339  0.00  0.00    +0.000 C 
ATOM     11  O   UNL     1      43.695   3.453  10.285  0.00  0.00    +0.000 OA
ATOM     12  H   UNL     1      44.559   4.702   8.354  0.00  0.00    +0.000 HD
ATOM     13  H   UNL     1      45.881   5.456   9.174  0.00  0.00    +0.000 HD
ENDBRANCH   1  10
BRANCH   5  14
ATOM     14  C   UNL     1      47.067   4.124  16.285  0.00  0.00    +0.000 C 
BRANCH  14  15
ATOM     15  C   UNL     1      48.402   3.535  16.670  0.00  0.00    +0.000 A 
ATOM     16  C   UNL     1      48.771   2.251  16.289  0.00  0.00    +0.000 A 
ATOM     17  N   UNL     1      49.970   1.691  16.580  0.00  0.00    +0.000 NA
ATOM     18  C   UNL     1      50.843   2.451  17.287  0.00  0.00    +0.000 A 
ATOM     19  C   UNL     1      50.564   3.733  17.727  0.00  0.00    +0.000 A 
ATOM     20 BR   UNL     1      51.839   4.733  18.689  0.00  0.00    +0.000 Br
ATOM     21  C   UNL     1      49.324   4.276  17.424  0.00  0.00    +0.000 A 
ENDBRANCH  14  15
ENDBRANCH   5  14
TORSDOF 3
ENDMDL
MODEL 6
REMARK VINA RESULT:    -6.038      5.020      8.412
REMARK INTER + INTRA:          -7.442
REMARK INTER:                  -7.206
REMARK INTRA:                  -0.236
REMARK UNBOUND:                -0.346
REMARK  Name = 
REMARK  3 active torsions:
REMARK  status: ('A' for Active; 'I' for Inactive)
REMARK    1  A    between atoms: C_2  and  C_4
REMARK    2  A    between atoms: N_8  and  C_9
REMARK    3  A    between atoms: C_9  and  C_10
REMARK                            x       y       z     vdW  Elec       q    Type
REMARK                         _______ _______ _______ _____ _____    ______ ____
ROOT
ATOM      1  C   UNL     1      48.950   4.545  18.196  0.00  0.00    +0.000 A 
ATOM      2  C   UNL     1      48.129   3.424  18.120  0.00  0.00    +0.000 A 
ATOM      3  C   UNL     1      47.403   3.202  16.953  0.00  0.00    +0.000 A 
ATOM      4  C   UNL     1      47.479   4.114  15.902  0.00  0.00    +0.000 A 
ATOM      5  N   UNL     1      46.694   3.856  14.782  0.00  0.00    +0.000 N 
ATOM      6  N   UNL     1      48.250   5.215  15.969  0.00  0.00    +0.000 NA
ATOM      7  C   UNL     1      48.969   5.408  17.109  0.00  0.00    +0.000 A 
ATOM      8  H   UNL     1      46.985   2.989  14.340  0.00  0.00    +0.000 HD
ENDROOT
BRANCH   1  10
ATOM      9  N   UNL     1      49.381   4.316  20.578  0.00  0.00    +0.000 N 
ATOM     10  C   UNL     1      49.770   4.859  19.385  0.00  0.00    +0.000 C 
ATOM     11  O   UNL     1      50.775   5.550  19.301  0.00  0.00    +0.000 OA
ATOM     12  H   UNL     1      50.002   4.461  21.363  0.00  0.00    +0.000 HD
ATOM     13  H   UNL     1      48.707   3.567  20.649  0.00  0.00    +0.000 HD
ENDBRANCH   1  10
BRANCH   5  14
ATOM     14  C   UNL     1      46.514   4.939  13.830  0.00  0.00    +0.000 C 
BRANCH  14  15
ATOM     15  C   UNL     1      45.331   4.579  12.966  0.00  0.00    +0.000 A 
ATOM     16  C   UNL     1      44.050   5.034  13.254  0.00  0.00    +0.000 A 
ATOM     17  N   UNL     1      42.963   4.767  12.491  0.00  0.00    +0.000 NA
ATOM     18  C   UNL     1      43.165   4.007  11.386  0.00  0.00    +0.000 A 
ATOM     19  C   UNL     1      44.397   3.491  11.022  0.00  0.00    +0.000 A 
ATOM     20 BR   UNL     1      44.599   2.459   9.459  0.00  0.00    +0.000 Br
ATOM     21  C   UNL     1      45.490   3.773  11.829  0.00  0.00    +0.000 A 
ENDBRANCH  14  15
ENDBRANCH   5  14
TORSDOF 3
ENDMDL
MODEL 7
REMARK VINA RESULT:    -5.772      3.591      5.272
REMARK INTER + INTRA:          -7.130
REMARK INTER:                  -6.799
REMARK INTRA:                  -0.331
REMARK UNBOUND:                -0.346
REMARK  Name = 
REMARK  3 active torsions:
REMARK  status: ('A' for Active; 'I' for Inactive)
REMARK    1  A    between atoms: C_2  and  C_4
REMARK    2  A    between atoms: N_8  and  C_9
REMARK    3  A    between atoms: C_9  and  C_10
REMARK                            x       y       z     vdW  Elec       q    Type
REMARK                         _______ _______ _______ _____ _____    ______ ____
ROOT
ATOM      1  C   UNL     1      44.493   4.051  11.735  0.00  0.00    +0.000 A 
ATOM      2  C   UNL     1      45.559   3.992  12.626  0.00  0.00    +0.000 A 
ATOM      3  C   UNL     1      46.036   5.176  13.182  0.00  0.00    +0.000 A 
ATOM      4  C   UNL     1      45.469   6.395  12.815  0.00  0.00    +0.000 A 
ATOM      5  N   UNL     1      46.022   7.544  13.373  0.00  0.00    +0.000 N 
ATOM      6  N   UNL     1      44.452   6.471  11.937  0.00  0.00    +0.000 NA
ATOM      7  C   UNL     1      43.984   5.303  11.417  0.00  0.00    +0.000 A 
ATOM      8  H   UNL     1      45.898   7.540  14.381  0.00  0.00    +0.000 HD
ENDROOT
BRANCH   1  10
ATOM      9  N   UNL     1      44.549   2.337  10.012  0.00  0.00    +0.000 N 
ATOM     10  C   UNL     1      43.907   2.850  11.105  0.00  0.00    +0.000 C 
ATOM     11  O   UNL     1      42.906   2.316  11.560  0.00  0.00    +0.000 OA
ATOM     12  H   UNL     1      44.192   1.463   9.648  0.00  0.00    +0.000 HD
ATOM     13  H   UNL     1      45.487   2.603   9.750  0.00  0.00    +0.000 HD
ENDBRANCH   1  10
BRANCH   5  14
ATOM     14  C   UNL     1      45.665   8.816  12.769  0.00  0.00    +0.000 C 
BRANCH  14  15
ATOM     15  C   UNL     1      46.927   9.395  12.176  0.00  0.00    +0.000 A 
ATOM     16  C   UNL     1      46.987  10.708  11.725  0.00  0.00    +0.000 A 
ATOM     17  N   UNL     1      48.104  11.283  11.218  0.00  0.00    +0.000 NA
ATOM     18  C   UNL     1      49.215  10.508  11.158  0.00  0.00    +0.000 A 
ATOM     19  C   UNL     1      49.254   9.185  11.564  0.00  0.00    +0.000 A 
ATOM     20 BR   UNL     1      50.844   8.180  11.465  0.00  0.00    +0.000 Br
ATOM     21  C   UNL     1      48.091   8.620  12.069  0.00  0.00    +0.000 A 
ENDBRANCH  14  15
ENDBRANCH   5  14
TORSDOF 3
ENDMDL
MODEL 8
REMARK VINA RESULT:    -5.531      2.529      3.839
REMARK INTER + INTRA:          -6.847
REMARK INTER:                  -6.420
REMARK INTRA:                  -0.427
REMARK UNBOUND:                -0.346
REMARK  Name = 
REMARK  3 active torsions:
REMARK  status: ('A' for Active; 'I' for Inactive)
REMARK    1  A    between atoms: C_2  and  C_4
REMARK    2  A    between atoms: N_8  and  C_9
REMARK    3  A    between atoms: C_9  and  C_10
REMARK                            x       y       z     vdW  Elec       q    Type
REMARK                         _______ _______ _______ _____ _____    ______ ____
ROOT
ATOM      1  C   UNL     1      45.086   3.815  10.210  0.00  0.00    +0.000 A 
ATOM      2  C   UNL     1      45.064   3.390  11.533  0.00  0.00    +0.000 A 
ATOM      3  C   UNL     1      45.196   4.336  12.545  0.00  0.00    +0.000 A 
ATOM      4  C   UNL     1      45.383   5.679  12.221  0.00  0.00    +0.000 A 
ATOM      5  N   UNL     1      45.553   6.567  13.279  0.00  0.00    +0.000 N 
ATOM      6  N   UNL     1      45.430   6.103  10.945  0.00  0.00    +0.000 NA
ATOM      7  C   UNL     1      45.279   5.168   9.968  0.00  0.00    +0.000 A 
ATOM      8  H   UNL     1      44.716   6.596  13.853  0.00  0.00    +0.000 HD
ENDROOT
BRANCH   1  10
ATOM      9  N   UNL     1      44.289   3.358   7.959  0.00  0.00    +0.000 N 
ATOM     10  C   UNL     1      44.939   2.889   9.067  0.00  0.00    +0.000 C 
ATOM     11  O   UNL     1      45.406   1.760   9.097  0.00  0.00    +0.000 OA
ATOM     12  H   UNL     1      44.278   2.748   7.151  0.00  0.00    +0.000 HD
ATOM     13  H   UNL     1      44.096   4.337   7.806  0.00  0.00    +0.000 HD
ENDBRANCH   1  10
BRANCH   5  14
ATOM     14  C   UNL     1      46.062   7.891  12.963  0.00  0.00    +0.000 C 
BRANCH  14  15
ATOM     15  C   UNL     1      47.547   7.872  13.231  0.00  0.00    +0.000 A 
ATOM     16  C   UNL     1      48.056   7.774  14.520  0.00  0.00    +0.000 A 
ATOM     17  N   UNL     1      49.378   7.718  14.809  0.00  0.00    +0.000 NA
ATOM     18  C   UNL     1      50.235   7.764  13.758  0.00  0.00    +0.000 A 
ATOM     19  C   UNL     1      49.829   7.879  12.440  0.00  0.00    +0.000 A 
ATOM     20 BR   UNL     1      51.082   7.918  11.033  0.00  0.00    +0.000 Br
ATOM     21  C   UNL     1      48.468   7.945  12.176  0.00  0.00    +0.000 A 
ENDBRANCH  14  15
ENDBRANCH   5  14
TORSDOF 3
ENDMDL
MODEL 9
REMARK VINA RESULT:    -5.478      3.571      5.292
REMARK INTER + INTRA:          -6.785
REMARK INTER:                  -6.466
REMARK INTRA:                  -0.319
REMARK UNBOUND:                -0.346
REMARK  Name = 
REMARK  3 active torsions:
REMARK  status: ('A' for Active; 'I' for Inactive)
REMARK    1  A    between atoms: C_2  and  C_4
REMARK    2  A    between atoms: N_8  and  C_9
REMARK    3  A    between atoms: C_9  and  C_10
REMARK                            x       y       z     vdW  Elec       q    Type
REMARK                         _______ _______ _______ _____ _____    ______ ____
ROOT
ATOM      1  C   UNL     1      45.019   4.301  11.095  0.00  0.00    +0.000 A 
ATOM      2  C   UNL     1      45.270   3.665  12.306  0.00  0.00    +0.000 A 
ATOM      3  C   UNL     1      45.948   4.361  13.303  0.00  0.00    +0.000 A 
ATOM      4  C   UNL     1      46.395   5.659  13.063  0.00  0.00    +0.000 A 
ATOM      5  N   UNL     1      47.106   6.282  14.085  0.00  0.00    +0.000 N 
ATOM      6  N   UNL     1      46.181   6.280  11.888  0.00  0.00    +0.000 NA
ATOM      7  C   UNL     1      45.499   5.593  10.932  0.00  0.00    +0.000 A 
ATOM      8  H   UNL     1      46.516   6.402  14.902  0.00  0.00    +0.000 HD
ENDROOT
BRANCH   1  10
ATOM      9  N   UNL     1      44.175   4.355   8.816  0.00  0.00    +0.000 N 
ATOM     10  C   UNL     1      44.294   3.652   9.983  0.00  0.00    +0.000 C 
ATOM     11  O   UNL     1      43.846   2.520  10.089  0.00  0.00    +0.000 OA
ATOM     12  H   UNL     1      43.760   3.864   8.034  0.00  0.00    +0.000 HD
ATOM     13  H   UNL     1      44.719   5.180   8.612  0.00  0.00    +0.000 HD
ENDBRANCH   1  10
BRANCH   5  14
ATOM     14  C   UNL     1      47.844   7.487  13.744  0.00  0.00    +0.000 C 
BRANCH  14  15
ATOM     15  C   UNL     1      49.181   7.400  14.440  0.00  0.00    +0.000 A 
ATOM     16  C   UNL     1      50.310   8.030  13.934  0.00  0.00    +0.000 A 
ATOM     17  N   UNL     1      51.523   8.011  14.539  0.00  0.00    +0.000 NA
ATOM     18  C   UNL     1      51.611   7.326  15.706  0.00  0.00    +0.000 A 
ATOM     19  C   UNL     1      50.549   6.650  16.284  0.00  0.00    +0.000 A 
ATOM     20 BR   UNL     1      50.748   5.736  17.919  0.00  0.00    +0.000 Br
ATOM     21  C   UNL     1      49.323   6.679  15.635  0.00  0.00    +0.000 A 
ENDBRANCH  14  15
ENDBRANCH   5  14
TORSDOF 3
ENDMDL
