MODEL 1
REMARK VINA RESULT:    -7.941      0.000      0.000
REMARK INTER + INTRA:         -11.147
REMARK INTER:                 -10.263
REMARK INTRA:                  -0.885
REMARK UNBOUND:                -0.885
REMARK  Name = 
REMARK  5 active torsions:
REMARK  status: ('A' for Active; 'I' for Inactive)
REMARK    1  A    between atoms: C_2  and  C_5
REMARK    2  A    between atoms: C_9  and  C_10
REMARK    3  A    between atoms: C_10  and  N_11
REMARK    4  A    between atoms: N_11  and  C_12
REMARK    5  A    between atoms: C_16  and  C_17
REMARK                            x       y       z     vdW  Elec       q    Type
REMARK                         _______ _______ _______ _____ _____    ______ ____
ROOT
ATOM      1  N   UNL     1      43.443   6.283  10.755  0.00  0.00    +0.000 N 
ATOM      2  H   UNL     1      42.463   6.449  10.532  0.00  0.00    +0.000 HD
ENDROOT
BRANCH   1   3
ATOM      3  C   UNL     1      43.760   4.916  10.633  0.00  0.00    +0.000 A 
ATOM      4  C   UNL     1      43.104   3.987  11.446  0.00  0.00    +0.000 A 
ATOM      5  C   UNL     1      43.353   2.616  11.317  0.00  0.00    +0.000 A 
ATOM      6  C   UNL     1      44.221   2.152  10.328  0.00  0.00    +0.000 A 
ATOM      7  C   UNL     1      44.832   3.042   9.433  0.00  0.00    +0.000 A 
ATOM      8  C   UNL     1      44.589   4.419   9.619  0.00  0.00    +0.000 A 
BRANCH   7   9
ATOM      9  C   UNL     1      45.648   2.593   8.285  0.00  0.00    +0.000 A 
ATOM     10  C   UNL     1      45.942   3.423   7.204  0.00  0.00    +0.000 A 
ATOM     11  C   UNL     1      46.810   2.974   6.211  0.00  0.00    +0.000 A 
ATOM     12  C   UNL     1      47.363   1.705   6.314  0.00  0.00    +0.000 A 
ATOM     13  C   UNL     1      47.017   0.933   7.407  0.00  0.00    +0.000 A 
ATOM     14  N   UNL     1      46.181   1.345   8.385  0.00  0.00    +0.000 NA
ENDBRANCH   7   9
ENDBRANCH   1   3
BRANCH   1  15
ATOM     15  C   UNL     1      43.792   6.916  12.031  0.00  0.00    +0.000 C 
BRANCH  15  20
ATOM     16  C   UNL     1      46.830   5.538  13.670  0.00  0.00    +0.000 A 
ATOM     17  C   UNL     1      47.875   6.129  12.958  0.00  0.00    +0.000 A 
ATOM     18  C   UNL     1      47.579   7.028  11.938  0.00  0.00    +0.000 A 
ATOM     19  C   UNL     1      46.252   7.311  11.642  0.00  0.00    +0.000 A 
ATOM     20  C   UNL     1      45.250   6.684  12.378  0.00  0.00    +0.000 A 
ATOM     21  N   UNL     1      45.524   5.816  13.385  0.00  0.00    +0.000 NA
BRANCH  16  23
ATOM     22  F   UNL     1      48.197   4.908  15.559  0.00  0.00    +0.000 F 
ATOM     23  C   UNL     1      47.133   4.543  14.782  0.00  0.00    +0.000 C 
ATOM     24  F   UNL     1      47.438   3.298  14.316  0.00  0.00    +0.000 F 
ATOM     25  F   UNL     1      46.093   4.377  15.649  0.00  0.00    +0.000 F 
ENDBRANCH  16  23
ENDBRANCH  15  20
ENDBRANCH   1  15
TORSDOF 5
ENDMDL
MODEL 2
REMARK VINA RESULT:    -7.855      2.152      2.638
REMARK INTER + INTRA:         -11.036
REMARK INTER:                 -10.164
REMARK INTRA:                  -0.872
REMARK UNBOUND:                -0.885
REMARK  Name = 
REMARK  5 active torsions:
REMARK  status: ('A' for Active; 'I' for Inactive)
REMARK    1  A    between atoms: C_2  and  C_5
REMARK    2  A    between atoms: C_9  and  C_10
REMARK    3  A    between atoms: C_10  and  N_11
REMARK    4  A    between atoms: N_11  and  C_12
REMARK    5  A    between atoms: C_16  and  C_17
REMARK                            x       y       z     vdW  Elec       q    Type
REMARK                         _______ _______ _______ _____ _____    ______ ____
ROOT
ATOM      1  N   UNL     1      43.795   6.360  10.989  0.00  0.00    +0.000 N 
ATOM      2  H   UNL     1      42.842   6.638  10.761  0.00  0.00    +0.000 HD
ENDROOT
BRANCH   1   3
ATOM      3  C   UNL     1      43.979   4.979  10.772  0.00  0.00    +0.000 A 
ATOM      4  C   UNL     1      43.218   4.065  11.506  0.00  0.00    +0.000 A 
ATOM      5  C   UNL     1      43.336   2.689  11.280  0.00  0.00    +0.000 A 
ATOM      6  C   UNL     1      44.175   2.212  10.272  0.00  0.00    +0.000 A 
ATOM      7  C   UNL     1      44.888   3.100   9.453  0.00  0.00    +0.000 A 
ATOM      8  C   UNL     1      44.777   4.477   9.736  0.00  0.00    +0.000 A 
BRANCH   7   9
ATOM      9  C   UNL     1      45.680   2.655   8.287  0.00  0.00    +0.000 A 
ATOM     10  C   UNL     1      45.966   3.494   7.211  0.00  0.00    +0.000 A 
ATOM     11  C   UNL     1      46.812   3.047   6.199  0.00  0.00    +0.000 A 
ATOM     12  C   UNL     1      47.354   1.772   6.278  0.00  0.00    +0.000 A 
ATOM     13  C   UNL     1      47.017   0.991   7.368  0.00  0.00    +0.000 A 
ATOM     14  N   UNL     1      46.201   1.401   8.365  0.00  0.00    +0.000 NA
ENDBRANCH   7   9
ENDBRANCH   1   3
BRANCH   1  15
ATOM     15  C   UNL     1      44.172   6.861  12.315  0.00  0.00    +0.000 C 
BRANCH  15  20
ATOM     16  C   UNL     1      47.865   7.262  12.427  0.00  0.00    +0.000 A 
ATOM     17  C   UNL     1      48.280   6.198  13.230  0.00  0.00    +0.000 A 
ATOM     18  C   UNL     1      47.330   5.307  13.719  0.00  0.00    +0.000 A 
ATOM     19  C   UNL     1      45.990   5.499  13.408  0.00  0.00    +0.000 A 
ATOM     20  C   UNL     1      45.633   6.583  12.612  0.00  0.00    +0.000 A 
ATOM     21  N   UNL     1      46.549   7.453  12.116  0.00  0.00    +0.000 NA
BRANCH  16  23
ATOM     22  F   UNL     1      49.713   8.758  12.860  0.00  0.00    +0.000 F 
ATOM     23  C   UNL     1      48.888   8.256  11.892  0.00  0.00    +0.000 C 
ATOM     24  F   UNL     1      48.316   9.346  11.305  0.00  0.00    +0.000 F 
ATOM     25  F   UNL     1      49.719   7.715  10.955  0.00  0.00    +0.000 F 
ENDBRANCH  16  23
ENDBRANCH  15  20
ENDBRANCH   1  15
TORSDOF 5
ENDMDL
MODEL 3
REMARK VINA RESULT:    -7.597      2.029      3.039
REMARK INTER + INTRA:         -10.702
REMARK INTER:                  -9.991
REMARK INTRA:                  -0.711
REMARK UNBOUND:                -0.885
REMARK  Name = 
REMARK  5 active torsions:
REMARK  status: ('A' for Active; 'I' for Inactive)
REMARK    1  A    between atoms: C_2  and  C_5
REMARK    2  A    between atoms: C_9  and  C_10
REMARK    3  A    between atoms: C_10  and  N_11
REMARK    4  A    between atoms: N_11  and  C_12
REMARK    5  A    between atoms: C_16  and  C_17
REMARK                            x       y       z     vdW  Elec       q    Type
REMARK                         _______ _______ _______ _____ _____    ______ ____
ROOT
ATOM      1  N   UNL     1      46.007   6.616  13.393  0.00  0.00    +0.000 N 
ATOM      2  H   UNL     1      45.678   6.700  14.353  0.00  0.00    +0.000 HD
ENDROOT
BRANCH   1   3
ATOM      3  C   UNL     1      45.152   5.785  12.641  0.00  0.00    +0.000 A 
ATOM      4  C   UNL     1      43.781   5.788  12.915  0.00  0.00    +0.000 A 
ATOM      5  C   UNL     1      42.895   5.017  12.154  0.00  0.00    +0.000 A 
ATOM      6  C   UNL     1      43.363   4.277  11.068  0.00  0.00    +0.000 A 
ATOM      7  C   UNL     1      44.717   4.316  10.704  0.00  0.00    +0.000 A 
ATOM      8  C   UNL     1      45.588   5.071  11.517  0.00  0.00    +0.000 A 
BRANCH   7   9
ATOM      9  C   UNL     1      45.239   3.663   9.485  0.00  0.00    +0.000 A 
ATOM     10  C   UNL     1      45.743   4.386   8.404  0.00  0.00    +0.000 A 
ATOM     11  C   UNL     1      46.323   3.708   7.335  0.00  0.00    +0.000 A 
ATOM     12  C   UNL     1      46.385   2.321   7.363  0.00  0.00    +0.000 A 
ATOM     13  C   UNL     1      45.854   1.670   8.460  0.00  0.00    +0.000 A 
ATOM     14  N   UNL     1      45.289   2.304   9.512  0.00  0.00    +0.000 NA
ENDBRANCH   7   9
ENDBRANCH   1   3
BRANCH   1  15
ATOM     15  C   UNL     1      47.431   6.266  13.368  0.00  0.00    +0.000 C 
BRANCH  15  20
ATOM     16  C   UNL     1      48.313   4.453  16.491  0.00  0.00    +0.000 A 
ATOM     17  C   UNL     1      48.996   5.414  17.239  0.00  0.00    +0.000 A 
ATOM     18  C   UNL     1      49.143   6.698  16.723  0.00  0.00    +0.000 A 
ATOM     19  C   UNL     1      48.616   6.995  15.472  0.00  0.00    +0.000 A 
ATOM     20  C   UNL     1      47.953   5.994  14.766  0.00  0.00    +0.000 A 
ATOM     21  N   UNL     1      47.791   4.742  15.263  0.00  0.00    +0.000 NA
BRANCH  16  23
ATOM     22  F   UNL     1      48.586   2.075  16.167  0.00  0.00    +0.000 F 
ATOM     23  C   UNL     1      48.152   3.039  17.034  0.00  0.00    +0.000 C 
ATOM     24  F   UNL     1      46.856   2.718  17.311  0.00  0.00    +0.000 F 
ATOM     25  F   UNL     1      48.848   2.827  18.187  0.00  0.00    +0.000 F 
ENDBRANCH  16  23
ENDBRANCH  15  20
ENDBRANCH   1  15
TORSDOF 5
ENDMDL
MODEL 4
REMARK VINA RESULT:    -7.509      3.241      7.013
REMARK INTER + INTRA:         -10.589
REMARK INTER:                 -10.212
REMARK INTRA:                  -0.377
REMARK UNBOUND:                -0.885
REMARK  Name = 
REMARK  5 active torsions:
REMARK  status: ('A' for Active; 'I' for Inactive)
REMARK    1  A    between atoms: C_2  and  C_5
REMARK    2  A    between atoms: C_9  and  C_10
REMARK    3  A    between atoms: C_10  and  N_11
REMARK    4  A    between atoms: N_11  and  C_12
REMARK    5  A    between atoms: C_16  and  C_17
REMARK                            x       y       z     vdW  Elec       q    Type
REMARK                         _______ _______ _______ _____ _____    ______ ____
ROOT
ATOM      1  N   UNL     1      43.873   4.023  11.738  0.00  0.00    +0.000 N 
ATOM      2  H   UNL     1      43.360   4.696  11.171  0.00  0.00    +0.000 HD
ENDROOT
BRANCH   1   3
ATOM      3  C   UNL     1      45.035   4.607  12.280  0.00  0.00    +0.000 A 
ATOM      4  C   UNL     1      45.481   5.834  11.781  0.00  0.00    +0.000 A 
ATOM      5  C   UNL     1      46.600   6.469  12.330  0.00  0.00    +0.000 A 
ATOM      6  C   UNL     1      47.252   5.912  13.431  0.00  0.00    +0.000 A 
ATOM      7  C   UNL     1      46.784   4.728  14.020  0.00  0.00    +0.000 A 
ATOM      8  C   UNL     1      45.680   4.094  13.414  0.00  0.00    +0.000 A 
BRANCH   7   9
ATOM      9  C   UNL     1      47.353   4.172  15.265  0.00  0.00    +0.000 A 
ATOM     10  C   UNL     1      47.275   4.839  16.488  0.00  0.00    +0.000 A 
ATOM     11  C   UNL     1      47.731   4.208  17.643  0.00  0.00    +0.000 A 
ATOM     12  C   UNL     1      48.259   2.927  17.556  0.00  0.00    +0.000 A 
ATOM     13  C   UNL     1      48.316   2.333  16.309  0.00  0.00    +0.000 A 
ATOM     14  N   UNL     1      47.878   2.921  15.174  0.00  0.00    +0.000 NA
ENDBRANCH   7   9
ENDBRANCH   1   3
BRANCH   1  15
ATOM     15  C   UNL     1      44.064   2.771  10.998  0.00  0.00    +0.000 C 
BRANCH  15  20
ATOM     16  C   UNL     1      46.135   2.144   7.975  0.00  0.00    +0.000 A 
ATOM     17  C   UNL     1      46.060   3.351   7.279  0.00  0.00    +0.000 A 
ATOM     18  C   UNL     1      45.342   4.409   7.828  0.00  0.00    +0.000 A 
ATOM     19  C   UNL     1      44.706   4.240   9.051  0.00  0.00    +0.000 A 
ATOM     20  C   UNL     1      44.806   3.010   9.697  0.00  0.00    +0.000 A 
ATOM     21  N   UNL     1      45.515   1.975   9.180  0.00  0.00    +0.000 NA
BRANCH  16  23
ATOM     22  F   UNL     1      46.605  -0.225   7.975  0.00  0.00    +0.000 F 
ATOM     23  C   UNL     1      46.906   0.971   7.386  0.00  0.00    +0.000 C 
ATOM     24  F   UNL     1      48.258   1.103   7.510  0.00  0.00    +0.000 F 
ATOM     25  F   UNL     1      46.666   0.788   6.055  0.00  0.00    +0.000 F 
ENDBRANCH  16  23
ENDBRANCH  15  20
ENDBRANCH   1  15
TORSDOF 5
ENDMDL
MODEL 5
REMARK VINA RESULT:    -7.313      3.359      7.419
REMARK INTER + INTRA:         -10.335
REMARK INTER:                  -9.558
REMARK INTRA:                  -0.777
REMARK UNBOUND:                -0.885
REMARK  Name = 
REMARK  5 active torsions:
REMARK  status: ('A' for Active; 'I' for Inactive)
REMARK    1  A    between atoms: C_2  and  C_5
REMARK    2  A    between atoms: C_9  and  C_10
REMARK    3  A    between atoms: C_10  and  N_11
REMARK    4  A    between atoms: N_11  and  C_12
REMARK    5  A    between atoms: C_16  and  C_17
REMARK                            x       y       z     vdW  Elec       q    Type
REMARK                         _______ _______ _______ _____ _____    ______ ____
ROOT
ATOM      1  N   UNL     1      45.164   5.936  11.394  0.00  0.00    +0.000 N 
ATOM      2  H   UNL     1      44.451   6.622  11.631  0.00  0.00    +0.000 HD
ENDROOT
BRANCH   1   3
ATOM      3  C   UNL     1      46.345   6.165  12.127  0.00  0.00    +0.000 A 
ATOM      4  C   UNL     1      47.214   7.182  11.724  0.00  0.00    +0.000 A 
ATOM      5  C   UNL     1      48.369   7.474  12.458  0.00  0.00    +0.000 A 
ATOM      6  C   UNL     1      48.638   6.789  13.644  0.00  0.00    +0.000 A 
ATOM      7  C   UNL     1      47.747   5.823  14.132  0.00  0.00    +0.000 A 
ATOM      8  C   UNL     1      46.615   5.526  13.345  0.00  0.00    +0.000 A 
BRANCH   7   9
ATOM      9  C   UNL     1      47.915   5.169  15.447  0.00  0.00    +0.000 A 
ATOM     10  C   UNL     1      47.152   4.070  15.840  0.00  0.00    +0.000 A 
ATOM     11  C   UNL     1      47.438   3.431  17.044  0.00  0.00    +0.000 A 
ATOM     12  C   UNL     1      48.477   3.904  17.834  0.00  0.00    +0.000 A 
ATOM     13  C   UNL     1      49.182   5.005  17.387  0.00  0.00    +0.000 A 
ATOM     14  N   UNL     1      48.927   5.641  16.222  0.00  0.00    +0.000 NA
ENDBRANCH   7   9
ENDBRANCH   1   3
BRANCH   1  15
ATOM     15  C   UNL     1      45.317   5.839   9.938  0.00  0.00    +0.000 C 
BRANCH  15  20
ATOM     16  C   UNL     1      45.992   2.736   8.006  0.00  0.00    +0.000 A 
ATOM     17  C   UNL     1      45.233   1.772   8.671  0.00  0.00    +0.000 A 
ATOM     18  C   UNL     1      44.454   2.153   9.759  0.00  0.00    +0.000 A 
ATOM     19  C   UNL     1      44.454   3.481  10.167  0.00  0.00    +0.000 A 
ATOM     20  C   UNL     1      45.239   4.398   9.472  0.00  0.00    +0.000 A 
ATOM     21  N   UNL     1      45.992   4.043   8.401  0.00  0.00    +0.000 NA
BRANCH  16  23
ATOM     22  F   UNL     1      46.998   0.984   6.682  0.00  0.00    +0.000 F 
ATOM     23  C   UNL     1      46.861   2.337   6.820  0.00  0.00    +0.000 C 
ATOM     24  F   UNL     1      48.133   2.821   6.903  0.00  0.00    +0.000 F 
ATOM     25  F   UNL     1      46.368   2.774   5.626  0.00  0.00    +0.000 F 
ENDBRANCH  16  23
ENDBRANCH  15  20
ENDBRANCH   1  15
TORSDOF 5
ENDMDL
MODEL 6
REMARK VINA RESULT:    -7.110      2.473      3.790
REMARK INTER + INTRA:         -10.072
REMARK INTER:                  -9.481
REMARK INTRA:                  -0.591
REMARK UNBOUND:                -0.885
REMARK  Name = 
REMARK  5 active torsions:
REMARK  status: ('A' for Active; 'I' for Inactive)
REMARK    1  A    between atoms: C_2  and  C_5
REMARK    2  A    between atoms: C_9  and  C_10
REMARK    3  A    between atoms: C_10  and  N_11
REMARK    4  A    between atoms: N_11  and  C_12
REMARK    5  A    between atoms: C_16  and  C_17
REMARK                            x       y       z     vdW  Elec       q    Type
REMARK                         _______ _______ _______ _____ _____    ______ ____
ROOT
ATOM      1  N   UNL     1      45.473   4.394  14.164  0.00  0.00    +0.000 N 
ATOM      2  H   UNL     1      45.377   3.475  14.592  0.00  0.00    +0.000 HD
ENDROOT
BRANCH   1   3
ATOM      3  C   UNL     1      44.771   4.454  12.943  0.00  0.00    +0.000 A 
ATOM      4  C   UNL     1      43.622   5.245  12.852  0.00  0.00    +0.000 A 
ATOM      5  C   UNL     1      42.931   5.371  11.643  0.00  0.00    +0.000 A 
ATOM      6  C   UNL     1      43.416   4.754  10.489  0.00  0.00    +0.000 A 
ATOM      7  C   UNL     1      44.614   4.025  10.516  0.00  0.00    +0.000 A 
ATOM      8  C   UNL     1      45.262   3.884  11.760  0.00  0.00    +0.000 A 
BRANCH   7   9
ATOM      9  C   UNL     1      45.241   3.469   9.298  0.00  0.00    +0.000 A 
ATOM     10  C   UNL     1      45.727   4.276   8.270  0.00  0.00    +0.000 A 
ATOM     11  C   UNL     1      46.408   3.693   7.204  0.00  0.00    +0.000 A 
ATOM     12  C   UNL     1      46.588   2.317   7.183  0.00  0.00    +0.000 A 
ATOM     13  C   UNL     1      46.070   1.578   8.230  0.00  0.00    +0.000 A 
ATOM     14  N   UNL     1      45.408   2.119   9.277  0.00  0.00    +0.000 NA
ENDBRANCH   7   9
ENDBRANCH   1   3
BRANCH   1  15
ATOM     15  C   UNL     1      46.884   4.793  14.118  0.00  0.00    +0.000 C 
BRANCH  15  20
ATOM     16  C   UNL     1      49.154   5.337  17.010  0.00  0.00    +0.000 A 
ATOM     17  C   UNL     1      48.703   4.411  17.952  0.00  0.00    +0.000 A 
ATOM     18  C   UNL     1      47.651   3.563  17.620  0.00  0.00    +0.000 A 
ATOM     19  C   UNL     1      47.065   3.661  16.364  0.00  0.00    +0.000 A 
ATOM     20  C   UNL     1      47.549   4.612  15.468  0.00  0.00    +0.000 A 
ATOM     21  N   UNL     1      48.583   5.435  15.774  0.00  0.00    +0.000 NA
BRANCH  16  23
ATOM     22  F   UNL     1      50.717   6.167  18.654  0.00  0.00    +0.000 F 
ATOM     23  C   UNL     1      50.296   6.282  17.359  0.00  0.00    +0.000 C 
ATOM     24  F   UNL     1      49.968   7.597  17.202  0.00  0.00    +0.000 F 
ATOM     25  F   UNL     1      51.410   6.078  16.598  0.00  0.00    +0.000 F 
ENDBRANCH  16  23
ENDBRANCH  15  20
ENDBRANCH   1  15
TORSDOF 5
ENDMDL
MODEL 7
REMARK VINA RESULT:    -6.913      2.425      4.515
REMARK INTER + INTRA:          -9.818
REMARK INTER:                  -9.067
REMARK INTRA:                  -0.751
REMARK UNBOUND:                -0.885
REMARK  Name = 
REMARK  5 active torsions:
REMARK  status: ('A' for Active; 'I' for Inactive)
REMARK    1  A    between atoms: C_2  and  C_5
REMARK    2  A    between atoms: C_9  and  C_10
REMARK    3  A    between atoms: C_10  and  N_11
REMARK    4  A    between atoms: N_11  and  C_12
REMARK    5  A    between atoms: C_16  and  C_17
REMARK                            x       y       z     vdW  Elec       q    Type
REMARK                         _______ _______ _______ _____ _____    ______ ____
ROOT
ATOM      1  N   UNL     1      48.609   6.911  13.515  0.00  0.00    +0.000 N 
ATOM      2  H   UNL     1      49.345   7.158  12.856  0.00  0.00    +0.000 HD
ENDROOT
BRANCH   1   3
ATOM      3  C   UNL     1      47.342   6.981  12.901  0.00  0.00    +0.000 A 
ATOM      4  C   UNL     1      46.614   8.172  12.971  0.00  0.00    +0.000 A 
ATOM      5  C   UNL     1      45.377   8.296  12.329  0.00  0.00    +0.000 A 
ATOM      6  C   UNL     1      44.880   7.246  11.556  0.00  0.00    +0.000 A 
ATOM      7  C   UNL     1      45.620   6.067  11.386  0.00  0.00    +0.000 A 
ATOM      8  C   UNL     1      46.842   5.961  12.081  0.00  0.00    +0.000 A 
BRANCH   7   9
ATOM      9  C   UNL     1      45.204   4.983  10.471  0.00  0.00    +0.000 A 
ATOM     10  C   UNL     1      45.588   4.945   9.131  0.00  0.00    +0.000 A 
ATOM     11  C   UNL     1      45.256   3.838   8.354  0.00  0.00    +0.000 A 
ATOM     12  C   UNL     1      44.544   2.794   8.926  0.00  0.00    +0.000 A 
ATOM     13  C   UNL     1      44.185   2.906  10.256  0.00  0.00    +0.000 A 
ATOM     14  N   UNL     1      44.497   3.966  11.034  0.00  0.00    +0.000 NA
ENDBRANCH   7   9
ENDBRANCH   1   3
BRANCH   1  15
ATOM     15  C   UNL     1      48.765   7.667  14.763  0.00  0.00    +0.000 C 
BRANCH  15  20
ATOM     16  C   UNL     1      48.394   4.589  16.815  0.00  0.00    +0.000 A 
ATOM     17  C   UNL     1      48.710   5.022  18.103  0.00  0.00    +0.000 A 
ATOM     18  C   UNL     1      49.020   6.362  18.312  0.00  0.00    +0.000 A 
ATOM     19  C   UNL     1      49.018   7.240  17.235  0.00  0.00    +0.000 A 
ATOM     20  C   UNL     1      48.705   6.750  15.970  0.00  0.00    +0.000 A 
ATOM     21  N   UNL     1      48.387   5.449  15.753  0.00  0.00    +0.000 NA
BRANCH  16  23
ATOM     22  F   UNL     1      47.628   2.879  15.291  0.00  0.00    +0.000 F 
ATOM     23  C   UNL     1      48.064   3.124  16.563  0.00  0.00    +0.000 C 
ATOM     24  F   UNL     1      47.078   2.651  17.379  0.00  0.00    +0.000 F 
ATOM     25  F   UNL     1      49.133   2.297  16.744  0.00  0.00    +0.000 F 
ENDBRANCH  16  23
ENDBRANCH  15  20
ENDBRANCH   1  15
TORSDOF 5
ENDMDL
MODEL 8
REMARK VINA RESULT:    -6.348      3.757      6.923
REMARK INTER + INTRA:          -9.088
REMARK INTER:                  -8.361
REMARK INTRA:                  -0.727
REMARK UNBOUND:                -0.885
REMARK  Name = 
REMARK  5 active torsions:
REMARK  status: ('A' for Active; 'I' for Inactive)
REMARK    1  A    between atoms: C_2  and  C_5
REMARK    2  A    between atoms: C_9  and  C_10
REMARK    3  A    between atoms: C_10  and  N_11
REMARK    4  A    between atoms: N_11  and  C_12
REMARK    5  A    between atoms: C_16  and  C_17
REMARK                            x       y       z     vdW  Elec       q    Type
REMARK                         _______ _______ _______ _____ _____    ______ ____
ROOT
ATOM      1  N   UNL     1      46.518   6.128  13.017  0.00  0.00    +0.000 N 
ATOM      2  H   UNL     1      46.802   5.920  13.972  0.00  0.00    +0.000 HD
ENDROOT
BRANCH   1   3
ATOM      3  C   UNL     1      47.132   7.311  12.557  0.00  0.00    +0.000 A 
ATOM      4  C   UNL     1      46.451   8.525  12.677  0.00  0.00    +0.000 A 
ATOM      5  C   UNL     1      47.049   9.726  12.282  0.00  0.00    +0.000 A 
ATOM      6  C   UNL     1      48.365   9.735  11.815  0.00  0.00    +0.000 A 
ATOM      7  C   UNL     1      49.114   8.551  11.763  0.00  0.00    +0.000 A 
ATOM      8  C   UNL     1      48.466   7.354  12.131  0.00  0.00    +0.000 A 
BRANCH   7   9
ATOM      9  C   UNL     1      50.549   8.525  11.409  0.00  0.00    +0.000 A 
ATOM     10  C   UNL     1      51.134   7.459  10.726  0.00  0.00    +0.000 A 
ATOM     11  C   UNL     1      52.464   7.549  10.324  0.00  0.00    +0.000 A 
ATOM     12  C   UNL     1      53.186   8.699  10.614  0.00  0.00    +0.000 A 
ATOM     13  C   UNL     1      52.546   9.710  11.304  0.00  0.00    +0.000 A 
ATOM     14  N   UNL     1      51.256   9.650  11.703  0.00  0.00    +0.000 NA
ENDBRANCH   7   9
ENDBRANCH   1   3
BRANCH   1  15
ATOM     15  C   UNL     1      45.058   6.068  12.892  0.00  0.00    +0.000 C 
BRANCH  15  20
ATOM     16  C   UNL     1      44.821   3.738  10.006  0.00  0.00    +0.000 A 
ATOM     17  C   UNL     1      43.987   2.724  10.479  0.00  0.00    +0.000 A 
ATOM     18  C   UNL     1      43.461   2.821  11.763  0.00  0.00    +0.000 A 
ATOM     19  C   UNL     1      43.783   3.919  12.552  0.00  0.00    +0.000 A 
ATOM     20  C   UNL     1      44.629   4.895  12.031  0.00  0.00    +0.000 A 
ATOM     21  N   UNL     1      45.138   4.820  10.775  0.00  0.00    +0.000 NA
BRANCH  16  23
ATOM     22  F   UNL     1      46.192   2.533   8.423  0.00  0.00    +0.000 F 
ATOM     23  C   UNL     1      45.416   3.643   8.607  0.00  0.00    +0.000 C 
ATOM     24  F   UNL     1      46.220   4.701   8.296  0.00  0.00    +0.000 F 
ATOM     25  F   UNL     1      44.469   3.588   7.626  0.00  0.00    +0.000 F 
ENDBRANCH  16  23
ENDBRANCH  15  20
ENDBRANCH   1  15
TORSDOF 5
ENDMDL
MODEL 9
REMARK VINA RESULT:    -6.230      3.055      5.975
REMARK INTER + INTRA:          -8.936
REMARK INTER:                  -8.048
REMARK INTRA:                  -0.888
REMARK UNBOUND:                -0.885
REMARK  Name = 
REMARK  5 active torsions:
REMARK  status: ('A' for Active; 'I' for Inactive)
REMARK    1  A    between atoms: C_2  and  C_5
REMARK    2  A    between atoms: C_9  and  C_10
REMARK    3  A    between atoms: C_10  and  N_11
REMARK    4  A    between atoms: N_11  and  C_12
REMARK    5  A    between atoms: C_16  and  C_17
REMARK                            x       y       z     vdW  Elec       q    Type
REMARK                         _______ _______ _______ _____ _____    ______ ____
ROOT
ATOM      1  N   UNL     1      50.269   7.049  14.759  0.00  0.00    +0.000 N 
ATOM      2  H   UNL     1      51.193   7.366  14.472  0.00  0.00    +0.000 HD
ENDROOT
BRANCH   1   3
ATOM      3  C   UNL     1      49.299   7.395  13.797  0.00  0.00    +0.000 A 
ATOM      4  C   UNL     1      49.451   8.578  13.067  0.00  0.00    +0.000 A 
ATOM      5  C   UNL     1      48.538   8.928  12.067  0.00  0.00    +0.000 A 
ATOM      6  C   UNL     1      47.490   8.065  11.742  0.00  0.00    +0.000 A 
ATOM      7  C   UNL     1      47.352   6.828  12.387  0.00  0.00    +0.000 A 
ATOM      8  C   UNL     1      48.267   6.527  13.417  0.00  0.00    +0.000 A 
BRANCH   7   9
ATOM      9  C   UNL     1      46.347   5.821  11.987  0.00  0.00    +0.000 A 
ATOM     10  C   UNL     1      45.685   5.870  10.760  0.00  0.00    +0.000 A 
ATOM     11  C   UNL     1      44.834   4.829  10.398  0.00  0.00    +0.000 A 
ATOM     12  C   UNL     1      44.655   3.762  11.268  0.00  0.00    +0.000 A 
ATOM     13  C   UNL     1      45.334   3.787  12.472  0.00  0.00    +0.000 A 
ATOM     14  N   UNL     1      46.168   4.783  12.847  0.00  0.00    +0.000 NA
ENDBRANCH   7   9
ENDBRANCH   1   3
BRANCH   1  15
ATOM     15  C   UNL     1      49.990   7.467  16.137  0.00  0.00    +0.000 C 
BRANCH  15  20
ATOM     16  C   UNL     1      48.919   4.099  17.291  0.00  0.00    +0.000 A 
ATOM     17  C   UNL     1      49.439   4.022  18.583  0.00  0.00    +0.000 A 
ATOM     18  C   UNL     1      50.130   5.112  19.104  0.00  0.00    +0.000 A 
ATOM     19  C   UNL     1      50.295   6.250  18.325  0.00  0.00    +0.000 A 
ATOM     20  C   UNL     1      49.763   6.268  17.038  0.00  0.00    +0.000 A 
ATOM     21  N   UNL     1      49.076   5.217  16.523  0.00  0.00    +0.000 NA
BRANCH  16  23
ATOM     22  F   UNL     1      47.172   2.445  17.507  0.00  0.00    +0.000 F 
ATOM     23  C   UNL     1      48.171   2.912  16.699  0.00  0.00    +0.000 C 
ATOM     24  F   UNL     1      48.976   1.837  16.463  0.00  0.00    +0.000 F 
ATOM     25  F   UNL     1      47.567   3.200  15.510  0.00  0.00    +0.000 F 
ENDBRANCH  16  23
ENDBRANCH  15  20
ENDBRANCH   1  15
TORSDOF 5
ENDMDL
