MODEL 1
REMARK VINA RESULT:    -8.959      0.000      0.000
REMARK INTER + INTRA:         -12.048
REMARK INTER:                 -11.578
REMARK INTRA:                  -0.470
REMARK UNBOUND:                -0.470
REMARK  Name = 
REMARK  5 active torsions:
REMARK  status: ('A' for Active; 'I' for Inactive)
REMARK    1  A    between atoms: C_2  and  C_4
REMARK    2  A    between atoms: C_7  and  N_8
REMARK    3  A    between atoms: N_8  and  C_9
REMARK    4  A    between atoms: C_9  and  C_10
REMARK    5  A    between atoms: C_14  and  C_15
REMARK                            x       y       z     vdW  Elec       q    Type
REMARK                         _______ _______ _______ _____ _____    ______ ____
ROOT
ATOM      1  C   UNL     1      43.885   5.119  11.396  0.00  0.00    +0.000 C 
ATOM      2  C   UNL     1      43.066   4.194  12.286  0.00  0.00    +0.000 C 
ATOM      3  C   UNL     1      42.655   5.622  12.129  0.00  0.00    +0.000 C 
ENDROOT
BRANCH   1   4
ATOM      4  C   UNL     1      45.272   5.536  11.872  0.00  0.00    +0.000 A 
ATOM      5  C   UNL     1      45.983   6.545  11.201  0.00  0.00    +0.000 A 
ATOM      6  C   UNL     1      47.176   7.050  11.710  0.00  0.00    +0.000 A 
ATOM      7  C   UNL     1      47.687   6.552  12.907  0.00  0.00    +0.000 A 
ATOM      8  C   UNL     1      47.026   5.538  13.617  0.00  0.00    +0.000 A 
ATOM      9  C   UNL     1      45.836   5.029  13.062  0.00  0.00    +0.000 A 
BRANCH   8  10
ATOM     10  C   UNL     1      47.511   5.088  14.938  0.00  0.00    +0.000 A 
ATOM     11  C   UNL     1      48.347   5.910  15.710  0.00  0.00    +0.000 A 
ATOM     12  C   UNL     1      48.767   5.484  16.961  0.00  0.00    +0.000 A 
ATOM     13  N   UNL     1      48.410   4.302  17.504  0.00  0.00    +0.000 NA
ATOM     14  C   UNL     1      47.601   3.521  16.762  0.00  0.00    +0.000 A 
ATOM     15  C   UNL     1      47.138   3.860  15.498  0.00  0.00    +0.000 A 
ENDBRANCH   8  10
ENDBRANCH   1   4
BRANCH   1  16
ATOM     16  N   UNL     1      43.840   4.784   9.959  0.00  0.00    +0.000 N 
ATOM     17  H   UNL     1      42.896   4.658   9.598  0.00  0.00    +0.000 HD
BRANCH  16  21
ATOM     18  C   UNL     1      46.273   2.028   8.005  0.00  0.00    +0.000 A 
ATOM     19  C   UNL     1      46.391   3.359   7.630  0.00  0.00    +0.000 A 
ATOM     20  C   UNL     1      45.602   4.308   8.286  0.00  0.00    +0.000 A 
ATOM     21  C   UNL     1      44.747   3.920   9.316  0.00  0.00    +0.000 A 
ATOM     22  C   UNL     1      44.708   2.549   9.602  0.00  0.00    +0.000 A 
ATOM     23  N   UNL     1      45.442   1.590   8.988  0.00  0.00    +0.000 NA
BRANCH  18  25
ATOM     24  N   UNL     1      46.762  -0.316   7.617  0.00  0.00    +0.000 N 
ATOM     25  C   UNL     1      47.059   0.979   7.280  0.00  0.00    +0.000 C 
ATOM     26  O   UNL     1      47.897   1.246   6.431  0.00  0.00    +0.000 OA
ATOM     27  H   UNL     1      47.221  -1.073   7.137  0.00  0.00    +0.000 HD
ATOM     28  H   UNL     1      46.032  -0.498   8.298  0.00  0.00    +0.000 HD
ENDBRANCH  18  25
ENDBRANCH  16  21
ENDBRANCH   1  16
TORSDOF 5
ENDMDL
MODEL 2
REMARK VINA RESULT:    -8.950      2.212      3.418
REMARK INTER + INTRA:         -12.036
REMARK INTER:                 -10.886
REMARK INTRA:                  -1.150
REMARK UNBOUND:                -0.470
REMARK  Name = 
REMARK  5 active torsions:
REMARK  status: ('A' for Active; 'I' for Inactive)
REMARK    1  A    between atoms: C_2  and  C_4
REMARK    2  A    between atoms: C_7  and  N_8
REMARK    3  A    between atoms: N_8  and  C_9
REMARK    4  A    between atoms: C_9  and  C_10
REMARK    5  A    between atoms: C_14  and  C_15
REMARK                            x       y       z     vdW  Elec       q    Type
REMARK                         _______ _______ _______ _____ _____    ______ ____
ROOT
ATOM      1  C   UNL     1      43.788   4.987  11.396  0.00  0.00    +0.000 C 
ATOM      2  C   UNL     1      42.453   5.237  12.084  0.00  0.00    +0.000 C 
ATOM      3  C   UNL     1      42.930   6.184  11.031  0.00  0.00    +0.000 C 
ENDROOT
BRANCH   1   4
ATOM      4  C   UNL     1      45.065   5.190  12.204  0.00  0.00    +0.000 A 
ATOM      5  C   UNL     1      45.518   4.194  13.085  0.00  0.00    +0.000 A 
ATOM      6  C   UNL     1      46.759   4.289  13.709  0.00  0.00    +0.000 A 
ATOM      7  C   UNL     1      47.576   5.391  13.466  0.00  0.00    +0.000 A 
ATOM      8  C   UNL     1      47.173   6.422  12.602  0.00  0.00    +0.000 A 
ATOM      9  C   UNL     1      45.902   6.309  12.008  0.00  0.00    +0.000 A 
BRANCH   8  10
ATOM     10  C   UNL     1      48.084   7.534  12.261  0.00  0.00    +0.000 A 
ATOM     11  C   UNL     1      49.456   7.302  12.075  0.00  0.00    +0.000 A 
ATOM     12  C   UNL     1      50.291   8.353  11.724  0.00  0.00    +0.000 A 
ATOM     13  N   UNL     1      49.859   9.617  11.539  0.00  0.00    +0.000 NA
ATOM     14  C   UNL     1      48.541   9.832  11.711  0.00  0.00    +0.000 A 
ATOM     15  C   UNL     1      47.631   8.845  12.070  0.00  0.00    +0.000 A 
ENDBRANCH   8  10
ENDBRANCH   1   4
BRANCH   1  16
ATOM     16  N   UNL     1      43.823   3.780  10.548  0.00  0.00    +0.000 N 
ATOM     17  H   UNL     1      43.557   2.928  11.038  0.00  0.00    +0.000 HD
BRANCH  16  21
ATOM     18  C   UNL     1      46.548   2.774   7.565  0.00  0.00    +0.000 A 
ATOM     19  C   UNL     1      46.262   4.121   7.738  0.00  0.00    +0.000 A 
ATOM     20  C   UNL     1      45.369   4.488   8.747  0.00  0.00    +0.000 A 
ATOM     21  C   UNL     1      44.810   3.518   9.578  0.00  0.00    +0.000 A 
ATOM     22  C   UNL     1      45.167   2.191   9.304  0.00  0.00    +0.000 A 
ATOM     23  N   UNL     1      46.018   1.784   8.332  0.00  0.00    +0.000 NA
BRANCH  18  25
ATOM     24  N   UNL     1      47.321   3.041   5.281  0.00  0.00    +0.000 N 
ATOM     25  C   UNL     1      47.453   2.342   6.453  0.00  0.00    +0.000 C 
ATOM     26  O   UNL     1      48.271   1.441   6.576  0.00  0.00    +0.000 OA
ATOM     27  H   UNL     1      47.930   2.832   4.505  0.00  0.00    +0.000 HD
ATOM     28  H   UNL     1      46.659   3.807   5.231  0.00  0.00    +0.000 HD
ENDBRANCH  18  25
ENDBRANCH  16  21
ENDBRANCH   1  16
TORSDOF 5
ENDMDL
MODEL 3
REMARK VINA RESULT:    -8.098      2.431      3.114
REMARK INTER + INTRA:         -10.936
REMARK INTER:                 -10.661
REMARK INTRA:                  -0.275
REMARK UNBOUND:                -0.470
REMARK  Name = 
REMARK  5 active torsions:
REMARK  status: ('A' for Active; 'I' for Inactive)
REMARK    1  A    between atoms: C_2  and  C_4
REMARK    2  A    between atoms: C_7  and  N_8
REMARK    3  A    between atoms: N_8  and  C_9
REMARK    4  A    between atoms: C_9  and  C_10
REMARK    5  A    between atoms: C_14  and  C_15
REMARK                            x       y       z     vdW  Elec       q    Type
REMARK                         _______ _______ _______ _____ _____    ______ ____
ROOT
ATOM      1  C   UNL     1      44.212   4.599  11.689  0.00  0.00    +0.000 C 
ATOM      2  C   UNL     1      44.885   3.552  12.566  0.00  0.00    +0.000 C 
ATOM      3  C   UNL     1      43.573   4.133  12.984  0.00  0.00    +0.000 C 
ENDROOT
BRANCH   1   4
ATOM      4  C   UNL     1      44.839   5.987  11.613  0.00  0.00    +0.000 A 
ATOM      5  C   UNL     1      44.041   7.118  11.376  0.00  0.00    +0.000 A 
ATOM      6  C   UNL     1      44.566   8.405  11.460  0.00  0.00    +0.000 A 
ATOM      7  C   UNL     1      45.909   8.588  11.784  0.00  0.00    +0.000 A 
ATOM      8  C   UNL     1      46.757   7.495  12.023  0.00  0.00    +0.000 A 
ATOM      9  C   UNL     1      46.203   6.206  11.902  0.00  0.00    +0.000 A 
BRANCH   8  10
ATOM     10  C   UNL     1      48.151   7.692  12.471  0.00  0.00    +0.000 A 
ATOM     11  C   UNL     1      48.522   7.411  13.796  0.00  0.00    +0.000 A 
ATOM     12  C   UNL     1      49.842   7.572  14.190  0.00  0.00    +0.000 A 
ATOM     13  N   UNL     1      50.822   7.985  13.361  0.00  0.00    +0.000 NA
ATOM     14  C   UNL     1      50.461   8.246  12.090  0.00  0.00    +0.000 A 
ATOM     15  C   UNL     1      49.165   8.122  11.607  0.00  0.00    +0.000 A 
ENDBRANCH   8  10
ENDBRANCH   1   4
BRANCH   1  16
ATOM     16  N   UNL     1      43.750   4.098  10.381  0.00  0.00    +0.000 N 
ATOM     17  H   UNL     1      42.875   3.579  10.427  0.00  0.00    +0.000 HD
BRANCH  16  21
ATOM     18  C   UNL     1      46.470   2.770   7.522  0.00  0.00    +0.000 A 
ATOM     19  C   UNL     1      45.895   1.813   8.345  0.00  0.00    +0.000 A 
ATOM     20  C   UNL     1      44.962   2.228   9.299  0.00  0.00    +0.000 A 
ATOM     21  C   UNL     1      44.598   3.571   9.387  0.00  0.00    +0.000 A 
ATOM     22  C   UNL     1      45.249   4.447   8.508  0.00  0.00    +0.000 A 
ATOM     23  N   UNL     1      46.168   4.094   7.576  0.00  0.00    +0.000 NA
BRANCH  18  25
ATOM     24  N   UNL     1      47.477   3.023   5.330  0.00  0.00    +0.000 N 
ATOM     25  C   UNL     1      47.519   2.366   6.532  0.00  0.00    +0.000 C 
ATOM     26  O   UNL     1      48.370   1.523   6.775  0.00  0.00    +0.000 OA
ATOM     27  H   UNL     1      48.180   2.833   4.633  0.00  0.00    +0.000 HD
ATOM     28  H   UNL     1      46.779   3.745   5.181  0.00  0.00    +0.000 HD
ENDBRANCH  18  25
ENDBRANCH  16  21
ENDBRANCH   1  16
TORSDOF 5
ENDMDL
MODEL 4
REMARK VINA RESULT:    -7.863      2.821      7.268
REMARK INTER + INTRA:         -10.631
REMARK INTER:                  -9.948
REMARK INTRA:                  -0.683
REMARK UNBOUND:                -0.470
REMARK  Name = 
REMARK  5 active torsions:
REMARK  status: ('A' for Active; 'I' for Inactive)
REMARK    1  A    between atoms: C_2  and  C_4
REMARK    2  A    between atoms: C_7  and  N_8
REMARK    3  A    between atoms: N_8  and  C_9
REMARK    4  A    between atoms: C_9  and  C_10
REMARK    5  A    between atoms: C_14  and  C_15
REMARK                            x       y       z     vdW  Elec       q    Type
REMARK                         _______ _______ _______ _____ _____    ______ ____
ROOT
ATOM      1  C   UNL     1      46.193   7.297  12.396  0.00  0.00    +0.000 C 
ATOM      2  C   UNL     1      46.403   8.652  11.734  0.00  0.00    +0.000 C 
ATOM      3  C   UNL     1      45.590   8.559  12.984  0.00  0.00    +0.000 C 
ENDROOT
BRANCH   1   4
ATOM      4  C   UNL     1      45.294   6.284  11.697  0.00  0.00    +0.000 A 
ATOM      5  C   UNL     1      43.898   6.356  11.832  0.00  0.00    +0.000 A 
ATOM      6  C   UNL     1      43.055   5.544  11.079  0.00  0.00    +0.000 A 
ATOM      7  C   UNL     1      43.594   4.634  10.171  0.00  0.00    +0.000 A 
ATOM      8  C   UNL     1      44.982   4.511  10.000  0.00  0.00    +0.000 A 
ATOM      9  C   UNL     1      45.808   5.327  10.796  0.00  0.00    +0.000 A 
BRANCH   8  10
ATOM     10  C   UNL     1      45.549   3.626   8.961  0.00  0.00    +0.000 A 
ATOM     11  C   UNL     1      46.187   4.166   7.834  0.00  0.00    +0.000 A 
ATOM     12  C   UNL     1      46.741   3.319   6.885  0.00  0.00    +0.000 A 
ATOM     13  N   UNL     1      46.713   1.973   6.980  0.00  0.00    +0.000 NA
ATOM     14  C   UNL     1      46.105   1.462   8.068  0.00  0.00    +0.000 A 
ATOM     15  C   UNL     1      45.516   2.229   9.064  0.00  0.00    +0.000 A 
ENDBRANCH   8  10
ENDBRANCH   1   4
BRANCH   1  16
ATOM     16  N   UNL     1      47.417   6.696  12.961  0.00  0.00    +0.000 N 
ATOM     17  H   UNL     1      48.048   6.316  12.258  0.00  0.00    +0.000 HD
BRANCH  16  21
ATOM     18  C   UNL     1      47.578   4.166  16.264  0.00  0.00    +0.000 A 
ATOM     19  C   UNL     1      48.316   5.339  16.325  0.00  0.00    +0.000 A 
ATOM     20  C   UNL     1      48.262   6.218  15.240  0.00  0.00    +0.000 A 
ATOM     21  C   UNL     1      47.454   5.928  14.141  0.00  0.00    +0.000 A 
ATOM     22  C   UNL     1      46.760   4.712  14.188  0.00  0.00    +0.000 A 
ATOM     23  N   UNL     1      46.789   3.823  15.211  0.00  0.00    +0.000 NA
BRANCH  18  25
ATOM     24  N   UNL     1      48.898   3.042  17.960  0.00  0.00    +0.000 N 
ATOM     25  C   UNL     1      47.662   3.174  17.383  0.00  0.00    +0.000 C 
ATOM     26  O   UNL     1      46.696   2.535  17.776  0.00  0.00    +0.000 OA
ATOM     27  H   UNL     1      49.016   2.424  18.748  0.00  0.00    +0.000 HD
ATOM     28  H   UNL     1      49.665   3.619  17.632  0.00  0.00    +0.000 HD
ENDBRANCH  18  25
ENDBRANCH  16  21
ENDBRANCH   1  16
TORSDOF 5
ENDMDL
MODEL 5
REMARK VINA RESULT:    -6.913      2.756      4.689
REMARK INTER + INTRA:          -9.404
REMARK INTER:                  -8.464
REMARK INTRA:                  -0.940
REMARK UNBOUND:                -0.470
REMARK  Name = 
REMARK  5 active torsions:
REMARK  status: ('A' for Active; 'I' for Inactive)
REMARK    1  A    between atoms: C_2  and  C_4
REMARK    2  A    between atoms: C_7  and  N_8
REMARK    3  A    between atoms: N_8  and  C_9
REMARK    4  A    between atoms: C_9  and  C_10
REMARK    5  A    between atoms: C_14  and  C_15
REMARK                            x       y       z     vdW  Elec       q    Type
REMARK                         _______ _______ _______ _____ _____    ______ ____
ROOT
ATOM      1  C   UNL     1      47.508   8.105  13.109  0.00  0.00    +0.000 C 
ATOM      2  C   UNL     1      47.974   9.270  12.247  0.00  0.00    +0.000 C 
ATOM      3  C   UNL     1      48.390   7.879  11.896  0.00  0.00    +0.000 C 
ENDROOT
BRANCH   1   4
ATOM      4  C   UNL     1      48.096   7.963  14.509  0.00  0.00    +0.000 A 
ATOM      5  C   UNL     1      48.072   9.043  15.406  0.00  0.00    +0.000 A 
ATOM      6  C   UNL     1      48.457   8.889  16.735  0.00  0.00    +0.000 A 
ATOM      7  C   UNL     1      48.878   7.643  17.197  0.00  0.00    +0.000 A 
ATOM      8  C   UNL     1      48.931   6.530  16.345  0.00  0.00    +0.000 A 
ATOM      9  C   UNL     1      48.562   6.724  15.000  0.00  0.00    +0.000 A 
BRANCH   8  10
ATOM     10  C   UNL     1      49.273   5.188  16.860  0.00  0.00    +0.000 A 
ATOM     11  C   UNL     1      48.341   4.140  16.797  0.00  0.00    +0.000 A 
ATOM     12  C   UNL     1      48.692   2.879  17.257  0.00  0.00    +0.000 A 
ATOM     13  N   UNL     1      49.904   2.582  17.768  0.00  0.00    +0.000 NA
ATOM     14  C   UNL     1      50.796   3.590  17.819  0.00  0.00    +0.000 A 
ATOM     15  C   UNL     1      50.533   4.885  17.391  0.00  0.00    +0.000 A 
ENDBRANCH   8  10
ENDBRANCH   1   4
BRANCH   1  16
ATOM     16  N   UNL     1      46.055   7.850  13.061  0.00  0.00    +0.000 N 
ATOM     17  H   UNL     1      45.538   8.288  13.821  0.00  0.00    +0.000 HD
BRANCH  16  21
ATOM     18  C   UNL     1      44.465   4.254  11.692  0.00  0.00    +0.000 A 
ATOM     19  C   UNL     1      45.141   4.230  12.902  0.00  0.00    +0.000 A 
ATOM     20  C   UNL     1      45.666   5.427  13.397  0.00  0.00    +0.000 A 
ATOM     21  C   UNL     1      45.476   6.618  12.698  0.00  0.00    +0.000 A 
ATOM     22  C   UNL     1      44.783   6.519  11.484  0.00  0.00    +0.000 A 
ATOM     23  N   UNL     1      44.267   5.382  10.959  0.00  0.00    +0.000 NA
BRANCH  18  25
ATOM     24  N   UNL     1      44.713   2.432  10.111  0.00  0.00    +0.000 N 
ATOM     25  C   UNL     1      43.944   2.979  11.105  0.00  0.00    +0.000 C 
ATOM     26  O   UNL     1      42.914   2.443  11.490  0.00  0.00    +0.000 OA
ATOM     27  H   UNL     1      44.444   1.550   9.702  0.00  0.00    +0.000 HD
ATOM     28  H   UNL     1      45.580   2.885   9.847  0.00  0.00    +0.000 HD
ENDBRANCH  18  25
ENDBRANCH  16  21
ENDBRANCH   1  16
TORSDOF 5
ENDMDL
MODEL 6
REMARK VINA RESULT:    -6.778      2.826      7.403
REMARK INTER + INTRA:          -9.229
REMARK INTER:                  -9.355
REMARK INTRA:                   0.126
REMARK UNBOUND:                -0.470
REMARK  Name = 
REMARK  5 active torsions:
REMARK  status: ('A' for Active; 'I' for Inactive)
REMARK    1  A    between atoms: C_2  and  C_4
REMARK    2  A    between atoms: C_7  and  N_8
REMARK    3  A    between atoms: N_8  and  C_9
REMARK    4  A    between atoms: C_9  and  C_10
REMARK    5  A    between atoms: C_14  and  C_15
REMARK                            x       y       z     vdW  Elec       q    Type
REMARK                         _______ _______ _______ _____ _____    ______ ____
ROOT
ATOM      1  C   UNL     1      48.648   8.032  12.676  0.00  0.00    +0.000 C 
ATOM      2  C   UNL     1      49.752   7.494  11.776  0.00  0.00    +0.000 C 
ATOM      3  C   UNL     1      49.492   8.964  11.826  0.00  0.00    +0.000 C 
ENDROOT
BRANCH   1   4
ATOM      4  C   UNL     1      47.200   7.755  12.285  0.00  0.00    +0.000 A 
ATOM      5  C   UNL     1      46.226   8.760  12.401  0.00  0.00    +0.000 A 
ATOM      6  C   UNL     1      44.938   8.580  11.903  0.00  0.00    +0.000 A 
ATOM      7  C   UNL     1      44.596   7.383  11.276  0.00  0.00    +0.000 A 
ATOM      8  C   UNL     1      45.525   6.341  11.138  0.00  0.00    +0.000 A 
ATOM      9  C   UNL     1      46.811   6.542  11.677  0.00  0.00    +0.000 A 
BRANCH   8  10
ATOM     10  C   UNL     1      45.195   5.117  10.379  0.00  0.00    +0.000 A 
ATOM     11  C   UNL     1      45.636   4.957   9.056  0.00  0.00    +0.000 A 
ATOM     12  C   UNL     1      45.343   3.787   8.370  0.00  0.00    +0.000 A 
ATOM     13  N   UNL     1      44.649   2.762   8.906  0.00  0.00    +0.000 NA
ATOM     14  C   UNL     1      44.236   2.919  10.179  0.00  0.00    +0.000 A 
ATOM     15  C   UNL     1      44.474   4.056  10.940  0.00  0.00    +0.000 A 
ENDBRANCH   8  10
ENDBRANCH   1   4
BRANCH   1  16
ATOM     16  N   UNL     1      48.901   7.868  14.120  0.00  0.00    +0.000 N 
ATOM     17  H   UNL     1      49.793   8.254  14.426  0.00  0.00    +0.000 HD
BRANCH  16  21
ATOM     18  C   UNL     1      47.823   4.662  16.548  0.00  0.00    +0.000 A 
ATOM     19  C   UNL     1      47.380   4.642  15.234  0.00  0.00    +0.000 A 
ATOM     20  C   UNL     1      47.746   5.694  14.390  0.00  0.00    +0.000 A 
ATOM     21  C   UNL     1      48.568   6.717  14.861  0.00  0.00    +0.000 A 
ATOM     22  C   UNL     1      48.948   6.635  16.207  0.00  0.00    +0.000 A 
ATOM     23  N   UNL     1      48.609   5.643  17.066  0.00  0.00    +0.000 NA
BRANCH  18  25
ATOM     24  N   UNL     1      48.249   3.348  18.541  0.00  0.00    +0.000 N 
ATOM     25  C   UNL     1      47.397   3.582  17.494  0.00  0.00    +0.000 C 
ATOM     26  O   UNL     1      46.354   2.957  17.361  0.00  0.00    +0.000 OA
ATOM     27  H   UNL     1      48.003   2.664  19.240  0.00  0.00    +0.000 HD
ATOM     28  H   UNL     1      49.085   3.914  18.639  0.00  0.00    +0.000 HD
ENDBRANCH  18  25
ENDBRANCH  16  21
ENDBRANCH   1  16
TORSDOF 5
ENDMDL
MODEL 7
REMARK VINA RESULT:    -6.483      2.864      4.752
REMARK INTER + INTRA:          -8.848
REMARK INTER:                  -8.226
REMARK INTRA:                  -0.622
REMARK UNBOUND:                -0.470
REMARK  Name = 
REMARK  5 active torsions:
REMARK  status: ('A' for Active; 'I' for Inactive)
REMARK    1  A    between atoms: C_2  and  C_4
REMARK    2  A    between atoms: C_7  and  N_8
REMARK    3  A    between atoms: N_8  and  C_9
REMARK    4  A    between atoms: C_9  and  C_10
REMARK    5  A    between atoms: C_14  and  C_15
REMARK                            x       y       z     vdW  Elec       q    Type
REMARK                         _______ _______ _______ _____ _____    ______ ____
ROOT
ATOM      1  C   UNL     1      48.065   7.717  13.223  0.00  0.00    +0.000 C 
ATOM      2  C   UNL     1      48.027   9.134  12.668  0.00  0.00    +0.000 C 
ATOM      3  C   UNL     1      48.472   8.010  11.791  0.00  0.00    +0.000 C 
ENDROOT
BRANCH   1   4
ATOM      4  C   UNL     1      49.133   7.376  14.257  0.00  0.00    +0.000 A 
ATOM      5  C   UNL     1      50.454   7.824  14.093  0.00  0.00    +0.000 A 
ATOM      6  C   UNL     1      51.403   7.661  15.098  0.00  0.00    +0.000 A 
ATOM      7  C   UNL     1      51.049   7.042  16.296  0.00  0.00    +0.000 A 
ATOM      8  C   UNL     1      49.746   6.567  16.513  0.00  0.00    +0.000 A 
ATOM      9  C   UNL     1      48.817   6.721  15.467  0.00  0.00    +0.000 A 
BRANCH   8  10
ATOM     10  C   UNL     1      49.344   6.009  17.821  0.00  0.00    +0.000 A 
ATOM     11  C   UNL     1      50.248   5.251  18.582  0.00  0.00    +0.000 A 
ATOM     12  C   UNL     1      49.863   4.762  19.821  0.00  0.00    +0.000 A 
ATOM     13  N   UNL     1      48.647   4.977  20.363  0.00  0.00    +0.000 NA
ATOM     14  C   UNL     1      47.787   5.711  19.631  0.00  0.00    +0.000 A 
ATOM     15  C   UNL     1      48.079   6.234  18.378  0.00  0.00    +0.000 A 
ENDBRANCH   8  10
ENDBRANCH   1   4
BRANCH   1  16
ATOM     16  N   UNL     1      46.742   7.149  13.545  0.00  0.00    +0.000 N 
ATOM     17  H   UNL     1      46.573   7.047  14.543  0.00  0.00    +0.000 HD
BRANCH  16  21
ATOM     18  C   UNL     1      44.768   3.997  11.673  0.00  0.00    +0.000 A 
ATOM     19  C   UNL     1      44.746   5.229  11.036  0.00  0.00    +0.000 A 
ATOM     20  C   UNL     1      45.420   6.299  11.630  0.00  0.00    +0.000 A 
ATOM     21  C   UNL     1      46.124   6.112  12.819  0.00  0.00    +0.000 A 
ATOM     22  C   UNL     1      46.069   4.826  13.374  0.00  0.00    +0.000 A 
ATOM     23  N   UNL     1      45.421   3.762  12.842  0.00  0.00    +0.000 NA
BRANCH  18  25
ATOM     24  N   UNL     1      44.589   2.235  10.016  0.00  0.00    +0.000 N 
ATOM     25  C   UNL     1      44.004   2.846  11.094  0.00  0.00    +0.000 C 
ATOM     26  O   UNL     1      42.940   2.457  11.554  0.00  0.00    +0.000 OA
ATOM     27  H   UNL     1      44.151   1.426   9.603  0.00  0.00    +0.000 HD
ATOM     28  H   UNL     1      45.491   2.563   9.687  0.00  0.00    +0.000 HD
ENDBRANCH  18  25
ENDBRANCH  16  21
ENDBRANCH   1  16
TORSDOF 5
ENDMDL
MODEL 8
REMARK VINA RESULT:    -6.308      3.701      8.293
REMARK INTER + INTRA:          -8.622
REMARK INTER:                  -7.540
REMARK INTRA:                  -1.083
REMARK UNBOUND:                -0.470
REMARK  Name = 
REMARK  5 active torsions:
REMARK  status: ('A' for Active; 'I' for Inactive)
REMARK    1  A    between atoms: C_2  and  C_4
REMARK    2  A    between atoms: C_7  and  N_8
REMARK    3  A    between atoms: N_8  and  C_9
REMARK    4  A    between atoms: C_9  and  C_10
REMARK    5  A    between atoms: C_14  and  C_15
REMARK                            x       y       z     vdW  Elec       q    Type
REMARK                         _______ _______ _______ _____ _____    ______ ____
ROOT
ATOM      1  C   UNL     1      49.130   7.843  12.604  0.00  0.00    +0.000 C 
ATOM      2  C   UNL     1      50.016   7.753  11.370  0.00  0.00    +0.000 C 
ATOM      3  C   UNL     1      49.912   9.046  12.111  0.00  0.00    +0.000 C 
ENDROOT
BRANCH   1   4
ATOM      4  C   UNL     1      47.618   7.795  12.412  0.00  0.00    +0.000 A 
ATOM      5  C   UNL     1      46.860   8.977  12.413  0.00  0.00    +0.000 A 
ATOM      6  C   UNL     1      45.508   8.971  12.082  0.00  0.00    +0.000 A 
ATOM      7  C   UNL     1      44.881   7.773  11.743  0.00  0.00    +0.000 A 
ATOM      8  C   UNL     1      45.585   6.559  11.733  0.00  0.00    +0.000 A 
ATOM      9  C   UNL     1      46.944   6.595  12.099  0.00  0.00    +0.000 A 
BRANCH   8  10
ATOM     10  C   UNL     1      44.948   5.309  11.269  0.00  0.00    +0.000 A 
ATOM     11  C   UNL     1      45.198   4.816   9.979  0.00  0.00    +0.000 A 
ATOM     12  C   UNL     1      44.616   3.624   9.572  0.00  0.00    +0.000 A 
ATOM     13  N   UNL     1      43.808   2.883  10.358  0.00  0.00    +0.000 NA
ATOM     14  C   UNL     1      43.578   3.358  11.598  0.00  0.00    +0.000 A 
ATOM     15  C   UNL     1      44.109   4.544  12.089  0.00  0.00    +0.000 A 
ENDBRANCH   8  10
ENDBRANCH   1   4
BRANCH   1  16
ATOM     16  N   UNL     1      49.596   7.042  13.752  0.00  0.00    +0.000 N 
ATOM     17  H   UNL     1      49.717   6.054  13.539  0.00  0.00    +0.000 HD
BRANCH  16  21
ATOM     18  C   UNL     1      48.505   7.345  17.759  0.00  0.00    +0.000 A 
ATOM     19  C   UNL     1      48.766   8.526  17.080  0.00  0.00    +0.000 A 
ATOM     20  C   UNL     1      49.112   8.455  15.728  0.00  0.00    +0.000 A 
ATOM     21  C   UNL     1      49.156   7.223  15.078  0.00  0.00    +0.000 A 
ATOM     22  C   UNL     1      48.879   6.098  15.867  0.00  0.00    +0.000 A 
ATOM     23  N   UNL     1      48.551   6.115  17.182  0.00  0.00    +0.000 NA
BRANCH  18  25
ATOM     24  N   UNL     1      48.930   6.532  20.005  0.00  0.00    +0.000 N 
ATOM     25  C   UNL     1      48.191   7.381  19.223  0.00  0.00    +0.000 C 
ATOM     26  O   UNL     1      47.348   8.127  19.702  0.00  0.00    +0.000 OA
ATOM     27  H   UNL     1      48.801   6.537  21.004  0.00  0.00    +0.000 HD
ATOM     28  H   UNL     1      49.647   5.958  19.575  0.00  0.00    +0.000 HD
ENDBRANCH  18  25
ENDBRANCH  16  21
ENDBRANCH   1  16
TORSDOF 5
ENDMDL
MODEL 9
REMARK VINA RESULT:    -6.226      4.623      6.543
REMARK INTER + INTRA:          -8.516
REMARK INTER:                  -7.633
REMARK INTRA:                  -0.882
REMARK UNBOUND:                -0.470
REMARK  Name = 
REMARK  5 active torsions:
REMARK  status: ('A' for Active; 'I' for Inactive)
REMARK    1  A    between atoms: C_2  and  C_4
REMARK    2  A    between atoms: C_7  and  N_8
REMARK    3  A    between atoms: N_8  and  C_9
REMARK    4  A    between atoms: C_9  and  C_10
REMARK    5  A    between atoms: C_14  and  C_15
REMARK                            x       y       z     vdW  Elec       q    Type
REMARK                         _______ _______ _______ _____ _____    ______ ____
ROOT
ATOM      1  C   UNL     1      48.340   8.004  13.250  0.00  0.00    +0.000 C 
ATOM      2  C   UNL     1      48.420   8.469  14.698  0.00  0.00    +0.000 C 
ATOM      3  C   UNL     1      47.254   8.874  13.855  0.00  0.00    +0.000 C 
ENDROOT
BRANCH   1   4
ATOM      4  C   UNL     1      49.317   8.604  12.245  0.00  0.00    +0.000 A 
ATOM      5  C   UNL     1      49.212   9.951  11.864  0.00  0.00    +0.000 A 
ATOM      6  C   UNL     1      50.184  10.559  11.075  0.00  0.00    +0.000 A 
ATOM      7  C   UNL     1      51.289   9.825  10.645  0.00  0.00    +0.000 A 
ATOM      8  C   UNL     1      51.444   8.473  10.987  0.00  0.00    +0.000 A 
ATOM      9  C   UNL     1      50.429   7.880  11.763  0.00  0.00    +0.000 A 
BRANCH   8  10
ATOM     10  C   UNL     1      52.666   7.727  10.623  0.00  0.00    +0.000 A 
ATOM     11  C   UNL     1      53.893   8.025  11.236  0.00  0.00    +0.000 A 
ATOM     12  C   UNL     1      55.024   7.293  10.905  0.00  0.00    +0.000 A 
ATOM     13  N   UNL     1      55.022   6.282  10.012  0.00  0.00    +0.000 NA
ATOM     14  C   UNL     1      53.840   5.996   9.433  0.00  0.00    +0.000 A 
ATOM     15  C   UNL     1      52.659   6.678   9.695  0.00  0.00    +0.000 A 
ENDBRANCH   8  10
ENDBRANCH   1   4
BRANCH   1  16
ATOM     16  N   UNL     1      48.155   6.550  13.083  0.00  0.00    +0.000 N 
ATOM     17  H   UNL     1      48.979   6.070  12.726  0.00  0.00    +0.000 HD
BRANCH  16  21
ATOM     18  C   UNL     1      44.523   4.856  11.952  0.00  0.00    +0.000 A 
ATOM     19  C   UNL     1      45.156   5.677  11.031  0.00  0.00    +0.000 A 
ATOM     20  C   UNL     1      46.388   6.241  11.376  0.00  0.00    +0.000 A 
ATOM     21  C   UNL     1      46.974   5.948  12.606  0.00  0.00    +0.000 A 
ATOM     22  C   UNL     1      46.239   5.111  13.457  0.00  0.00    +0.000 A 
ATOM     23  N   UNL     1      45.039   4.552  13.173  0.00  0.00    +0.000 NA
BRANCH  18  25
ATOM     24  N   UNL     1      42.130   5.169  11.715  0.00  0.00    +0.000 N 
ATOM     25  C   UNL     1      43.174   4.286  11.638  0.00  0.00    +0.000 C 
ATOM     26  O   UNL     1      43.007   3.118  11.316  0.00  0.00    +0.000 OA
ATOM     27  H   UNL     1      41.200   4.863  11.473  0.00  0.00    +0.000 HD
ATOM     28  H   UNL     1      42.315   6.139  11.947  0.00  0.00    +0.000 HD
ENDBRANCH  18  25
ENDBRANCH  16  21
ENDBRANCH   1  16
TORSDOF 5
ENDMDL
