MODEL 1
REMARK VINA RESULT:    -9.109      0.000      0.000
REMARK INTER + INTRA:         -13.582
REMARK INTER:                 -12.304
REMARK INTRA:                  -1.278
REMARK UNBOUND:                -1.278
REMARK  Name = 
REMARK  7 active torsions:
REMARK  status: ('A' for Active; 'I' for Inactive)
REMARK    1  A    between atoms: C_1  and  C_2
REMARK    2  A    between atoms: C_4  and  C_5
REMARK    3  A    between atoms: C_5  and  N_6
REMARK    4  A    between atoms: C_7  and  C_9
REMARK    5  A    between atoms: C_21  and  C_22
REMARK    6  A    between atoms: C_22  and  N_23
REMARK    7  A    between atoms: C_24  and  C_26
REMARK                            x       y       z     vdW  Elec       q    Type
REMARK                         _______ _______ _______ _____ _____    ______ ____
ROOT
ATOM      1  C   UNL     1      43.009   5.173  12.853  0.00  0.00    +0.000 C 
ATOM      2  C   UNL     1      44.275   5.746  12.275  0.00  0.00    +0.000 A 
ATOM      3  C   UNL     1      45.012   6.641  13.084  0.00  0.00    +0.000 A 
ATOM      4  C   UNL     1      46.204   7.229  12.642  0.00  0.00    +0.000 A 
ATOM      5  C   UNL     1      46.680   6.886  11.376  0.00  0.00    +0.000 A 
ATOM      6  C   UNL     1      45.958   6.008  10.558  0.00  0.00    +0.000 A 
ATOM      7  C   UNL     1      44.741   5.436  10.979  0.00  0.00    +0.000 A 
ENDROOT
BRANCH   4   8
ATOM      8  C   UNL     1      46.974   8.171  13.539  0.00  0.00    +0.000 C 
BRANCH   8   9
ATOM      9  N   UNL     1      47.480   7.483  14.700  0.00  0.00    +0.000 N 
ATOM     10  C   UNL     1      48.685   6.823  14.689  0.00  0.00    +0.000 C 
ATOM     11  O   UNL     1      49.414   6.808  13.704  0.00  0.00    +0.000 OA
ATOM     12  H   UNL     1      46.808   7.269  15.428  0.00  0.00    +0.000 HD
BRANCH  10  13
ATOM     13  C   UNL     1      49.083   6.188  15.951  0.00  0.00    +0.000 A 
ATOM     14  C   UNL     1      50.172   6.681  16.666  0.00  0.00    +0.000 A 
ATOM     15  S   UNL     1      50.469   5.847  18.123  0.00  0.00    +0.000 S 
ATOM     16  C   UNL     1      49.192   4.763  17.829  0.00  0.00    +0.000 A 
ATOM     17  N   UNL     1      48.918   3.752  18.698  0.00  0.00    +0.000 NA
ATOM     18  C   UNL     1      47.942   2.986  18.336  0.00  0.00    +0.000 A 
ATOM     19  N   UNL     1      47.211   3.146  17.186  0.00  0.00    +0.000 N 
ATOM     20  C   UNL     1      47.427   4.173  16.301  0.00  0.00    +0.000 A 
ATOM     21  O   UNL     1      46.712   4.322  15.316  0.00  0.00    +0.000 OA
ATOM     22  C   UNL     1      48.531   5.049  16.649  0.00  0.00    +0.000 A 
ATOM     23  H   UNL     1      46.448   2.521  16.970  0.00  0.00    +0.000 HD
ENDBRANCH  10  13
ENDBRANCH   8   9
ENDBRANCH   4   8
BRANCH   7  24
ATOM     24  C   UNL     1      44.027   4.505  10.014  0.00  0.00    +0.000 C 
BRANCH  24  25
ATOM     25  N   UNL     1      44.893   4.085   8.933  0.00  0.00    +0.000 N 
ATOM     26  C   UNL     1      45.263   2.768   8.748  0.00  0.00    +0.000 C 
ATOM     27  O   UNL     1      44.890   1.841   9.463  0.00  0.00    +0.000 OA
ATOM     28  H   UNL     1      44.972   4.716   8.144  0.00  0.00    +0.000 HD
BRANCH  26  29
ATOM     29  C   UNL     1      46.152   2.515   7.587  0.00  0.00    +0.000 A 
ATOM     30  C   UNL     1      46.183   3.384   6.492  0.00  0.00    +0.000 A 
ATOM     31  C   UNL     1      47.030   3.114   5.419  0.00  0.00    +0.000 A 
ATOM     32  C   UNL     1      47.827   1.984   5.479  0.00  0.00    +0.000 A 
ATOM     33  N   UNL     1      47.835   1.130   6.528  0.00  0.00    +0.000 NA
ATOM     34  C   UNL     1      47.005   1.419   7.567  0.00  0.00    +0.000 A 
ENDBRANCH  26  29
ENDBRANCH  24  25
ENDBRANCH   7  24
TORSDOF 6
ENDMDL
MODEL 2
REMARK VINA RESULT:    -8.177      1.040      1.174
REMARK INTER + INTRA:         -12.323
REMARK INTER:                 -11.345
REMARK INTRA:                  -0.979
REMARK UNBOUND:                -1.278
REMARK  Name = 
REMARK  7 active torsions:
REMARK  status: ('A' for Active; 'I' for Inactive)
REMARK    1  A    between atoms: C_1  and  C_2
REMARK    2  A    between atoms: C_4  and  C_5
REMARK    3  A    between atoms: C_5  and  N_6
REMARK    4  A    between atoms: C_7  and  C_9
REMARK    5  A    between atoms: C_21  and  C_22
REMARK    6  A    between atoms: C_22  and  N_23
REMARK    7  A    between atoms: C_24  and  C_26
REMARK                            x       y       z     vdW  Elec       q    Type
REMARK                         _______ _______ _______ _____ _____    ______ ____
ROOT
ATOM      1  C   UNL     1      43.505   8.499  10.903  0.00  0.00    +0.000 C 
ATOM      2  C   UNL     1      44.623   7.692  11.508  0.00  0.00    +0.000 A 
ATOM      3  C   UNL     1      45.512   8.364  12.378  0.00  0.00    +0.000 A 
ATOM      4  C   UNL     1      46.584   7.707  12.994  0.00  0.00    +0.000 A 
ATOM      5  C   UNL     1      46.746   6.341  12.756  0.00  0.00    +0.000 A 
ATOM      6  C   UNL     1      45.880   5.662  11.890  0.00  0.00    +0.000 A 
ATOM      7  C   UNL     1      44.817   6.320  11.239  0.00  0.00    +0.000 A 
ENDROOT
BRANCH   4   8
ATOM      8  C   UNL     1      47.507   8.452  13.930  0.00  0.00    +0.000 C 
BRANCH   8   9
ATOM      9  N   UNL     1      47.843   7.647  15.077  0.00  0.00    +0.000 N 
ATOM     10  C   UNL     1      49.035   6.970  15.169  0.00  0.00    +0.000 C 
ATOM     11  O   UNL     1      49.895   7.038  14.299  0.00  0.00    +0.000 OA
ATOM     12  H   UNL     1      47.074   7.375  15.680  0.00  0.00    +0.000 HD
BRANCH  10  13
ATOM     13  C   UNL     1      49.250   6.209  16.406  0.00  0.00    +0.000 A 
ATOM     14  C   UNL     1      50.249   6.594  17.296  0.00  0.00    +0.000 A 
ATOM     15  S   UNL     1      50.334   5.621  18.694  0.00  0.00    +0.000 S 
ATOM     16  C   UNL     1      49.078   4.618  18.140  0.00  0.00    +0.000 A 
ATOM     17  N   UNL     1      48.667   3.544  18.868  0.00  0.00    +0.000 NA
ATOM     18  C   UNL     1      47.727   2.851  18.315  0.00  0.00    +0.000 A 
ATOM     19  N   UNL     1      47.155   3.141  17.102  0.00  0.00    +0.000 N 
ATOM     20  C   UNL     1      47.511   4.235  16.353  0.00  0.00    +0.000 A 
ATOM     21  O   UNL     1      46.933   4.499  15.304  0.00  0.00    +0.000 OA
ATOM     22  C   UNL     1      48.582   5.033  16.918  0.00  0.00    +0.000 A 
ATOM     23  H   UNL     1      46.411   2.568  16.733  0.00  0.00    +0.000 HD
ENDBRANCH  10  13
ENDBRANCH   8   9
ENDBRANCH   4   8
BRANCH   7  24
ATOM     24  C   UNL     1      43.941   5.499  10.310  0.00  0.00    +0.000 C 
BRANCH  24  25
ATOM     25  N   UNL     1      44.726   4.768   9.337  0.00  0.00    +0.000 N 
ATOM     26  C   UNL     1      44.813   3.390   9.339  0.00  0.00    +0.000 C 
ATOM     27  O   UNL     1      44.234   2.664  10.143  0.00  0.00    +0.000 OA
ATOM     28  H   UNL     1      44.957   5.258   8.481  0.00  0.00    +0.000 HD
BRANCH  26  29
ATOM     29  C   UNL     1      45.658   2.807   8.267  0.00  0.00    +0.000 A 
ATOM     30  C   UNL     1      46.073   3.570   7.172  0.00  0.00    +0.000 A 
ATOM     31  C   UNL     1      46.866   2.987   6.184  0.00  0.00    +0.000 A 
ATOM     32  C   UNL     1      47.225   1.658   6.329  0.00  0.00    +0.000 A 
ATOM     33  N   UNL     1      46.855   0.894   7.383  0.00  0.00    +0.000 NA
ATOM     34  C   UNL     1      46.088   1.488   8.337  0.00  0.00    +0.000 A 
ENDBRANCH  26  29
ENDBRANCH  24  25
ENDBRANCH   7  24
TORSDOF 6
ENDMDL
MODEL 3
REMARK VINA RESULT:    -7.933      2.046      2.372
REMARK INTER + INTRA:         -11.994
REMARK INTER:                 -10.889
REMARK INTRA:                  -1.105
REMARK UNBOUND:                -1.278
REMARK  Name = 
REMARK  7 active torsions:
REMARK  status: ('A' for Active; 'I' for Inactive)
REMARK    1  A    between atoms: C_1  and  C_2
REMARK    2  A    between atoms: C_4  and  C_5
REMARK    3  A    between atoms: C_5  and  N_6
REMARK    4  A    between atoms: C_7  and  C_9
REMARK    5  A    between atoms: C_21  and  C_22
REMARK    6  A    between atoms: C_22  and  N_23
REMARK    7  A    between atoms: C_24  and  C_26
REMARK                            x       y       z     vdW  Elec       q    Type
REMARK                         _______ _______ _______ _____ _____    ______ ____
ROOT
ATOM      1  C   UNL     1      45.704   3.708  12.795  0.00  0.00    +0.000 C 
ATOM      2  C   UNL     1      45.918   5.165  12.486  0.00  0.00    +0.000 A 
ATOM      3  C   UNL     1      46.763   5.896  13.353  0.00  0.00    +0.000 A 
ATOM      4  C   UNL     1      47.030   7.257  13.155  0.00  0.00    +0.000 A 
ATOM      5  C   UNL     1      46.462   7.886  12.046  0.00  0.00    +0.000 A 
ATOM      6  C   UNL     1      45.617   7.179  11.182  0.00  0.00    +0.000 A 
ATOM      7  C   UNL     1      45.315   5.819  11.390  0.00  0.00    +0.000 A 
ENDROOT
BRANCH   4   8
ATOM      8  C   UNL     1      47.949   8.004  14.093  0.00  0.00    +0.000 C 
BRANCH   8   9
ATOM      9  N   UNL     1      47.985   7.379  15.391  0.00  0.00    +0.000 N 
ATOM     10  C   UNL     1      49.113   6.756  15.868  0.00  0.00    +0.000 C 
ATOM     11  O   UNL     1      50.161   6.724  15.235  0.00  0.00    +0.000 OA
ATOM     12  H   UNL     1      47.090   7.173  15.820  0.00  0.00    +0.000 HD
BRANCH  10  13
ATOM     13  C   UNL     1      49.011   6.184  17.217  0.00  0.00    +0.000 A 
ATOM     14  C   UNL     1      49.417   4.873  17.449  0.00  0.00    +0.000 A 
ATOM     15  S   UNL     1      49.262   4.386  19.077  0.00  0.00    +0.000 S 
ATOM     16  C   UNL     1      48.597   5.887  19.521  0.00  0.00    +0.000 A 
ATOM     17  N   UNL     1      48.204   6.127  20.801  0.00  0.00    +0.000 NA
ATOM     18  C   UNL     1      47.688   7.296  20.992  0.00  0.00    +0.000 A 
ATOM     19  N   UNL     1      47.537   8.250  20.017  0.00  0.00    +0.000 N 
ATOM     20  C   UNL     1      47.953   8.065  18.722  0.00  0.00    +0.000 A 
ATOM     21  O   UNL     1      47.860   8.963  17.892  0.00  0.00    +0.000 OA
ATOM     22  C   UNL     1      48.518   6.757  18.449  0.00  0.00    +0.000 A 
ATOM     23  H   UNL     1      47.140   9.152  20.236  0.00  0.00    +0.000 HD
ENDBRANCH  10  13
ENDBRANCH   8   9
ENDBRANCH   4   8
BRANCH   7  24
ATOM     24  C   UNL     1      44.378   5.144  10.404  0.00  0.00    +0.000 C 
BRANCH  24  25
ATOM     25  N   UNL     1      45.102   4.499   9.329  0.00  0.00    +0.000 N 
ATOM     26  C   UNL     1      45.105   3.129   9.153  0.00  0.00    +0.000 C 
ATOM     27  O   UNL     1      44.494   2.342   9.872  0.00  0.00    +0.000 OA
ATOM     28  H   UNL     1      45.351   5.080   8.537  0.00  0.00    +0.000 HD
BRANCH  26  29
ATOM     29  C   UNL     1      45.897   2.639   7.998  0.00  0.00    +0.000 A 
ATOM     30  C   UNL     1      46.174   3.464   6.904  0.00  0.00    +0.000 A 
ATOM     31  C   UNL     1      46.920   2.968   5.836  0.00  0.00    +0.000 A 
ATOM     32  C   UNL     1      47.373   1.662   5.902  0.00  0.00    +0.000 A 
ATOM     33  N   UNL     1      47.139   0.841   6.951  0.00  0.00    +0.000 NA
ATOM     34  C   UNL     1      46.415   1.350   7.984  0.00  0.00    +0.000 A 
ENDBRANCH  26  29
ENDBRANCH  24  25
ENDBRANCH   7  24
TORSDOF 6
ENDMDL
MODEL 4
REMARK VINA RESULT:    -7.883      1.447      1.603
REMARK INTER + INTRA:         -11.926
REMARK INTER:                 -10.937
REMARK INTRA:                  -0.989
REMARK UNBOUND:                -1.278
REMARK  Name = 
REMARK  7 active torsions:
REMARK  status: ('A' for Active; 'I' for Inactive)
REMARK    1  A    between atoms: C_1  and  C_2
REMARK    2  A    between atoms: C_4  and  C_5
REMARK    3  A    between atoms: C_5  and  N_6
REMARK    4  A    between atoms: C_7  and  C_9
REMARK    5  A    between atoms: C_21  and  C_22
REMARK    6  A    between atoms: C_22  and  N_23
REMARK    7  A    between atoms: C_24  and  C_26
REMARK                            x       y       z     vdW  Elec       q    Type
REMARK                         _______ _______ _______ _____ _____    ______ ____
ROOT
ATOM      1  C   UNL     1      42.882   6.208  11.380  0.00  0.00    +0.000 C 
ATOM      2  C   UNL     1      44.266   5.992  11.932  0.00  0.00    +0.000 A 
ATOM      3  C   UNL     1      44.960   7.127  12.409  0.00  0.00    +0.000 A 
ATOM      4  C   UNL     1      46.252   7.036  12.943  0.00  0.00    +0.000 A 
ATOM      5  C   UNL     1      46.843   5.775  13.029  0.00  0.00    +0.000 A 
ATOM      6  C   UNL     1      46.172   4.640  12.554  0.00  0.00    +0.000 A 
ATOM      7  C   UNL     1      44.886   4.725  11.985  0.00  0.00    +0.000 A 
ENDROOT
BRANCH   4   8
ATOM      8  C   UNL     1      46.959   8.268  13.457  0.00  0.00    +0.000 C 
BRANCH   8   9
ATOM      9  N   UNL     1      47.485   8.050  14.781  0.00  0.00    +0.000 N 
ATOM     10  C   UNL     1      48.810   7.759  15.001  0.00  0.00    +0.000 C 
ATOM     11  O   UNL     1      49.627   7.701  14.089  0.00  0.00    +0.000 OA
ATOM     12  H   UNL     1      46.809   7.847  15.509  0.00  0.00    +0.000 HD
BRANCH  10  13
ATOM     13  C   UNL     1      49.207   7.585  16.403  0.00  0.00    +0.000 A 
ATOM     14  C   UNL     1      49.743   8.657  17.113  0.00  0.00    +0.000 A 
ATOM     15  S   UNL     1      50.114   8.286  18.736  0.00  0.00    +0.000 S 
ATOM     16  C   UNL     1      49.626   6.669  18.537  0.00  0.00    +0.000 A 
ATOM     17  N   UNL     1      49.718   5.780  19.563  0.00  0.00    +0.000 NA
ATOM     18  C   UNL     1      49.342   4.580  19.265  0.00  0.00    +0.000 A 
ATOM     19  N   UNL     1      48.874   4.192  18.035  0.00  0.00    +0.000 N 
ATOM     20  C   UNL     1      48.728   5.064  16.984  0.00  0.00    +0.000 A 
ATOM     21  O   UNL     1      48.246   4.696  15.918  0.00  0.00    +0.000 OA
ATOM     22  C   UNL     1      49.161   6.421  17.259  0.00  0.00    +0.000 A 
ATOM     23  H   UNL     1      48.579   3.241  17.872  0.00  0.00    +0.000 HD
ENDBRANCH  10  13
ENDBRANCH   8   9
ENDBRANCH   4   8
BRANCH   7  24
ATOM     24  C   UNL     1      44.248   3.439  11.487  0.00  0.00    +0.000 C 
BRANCH  24  25
ATOM     25  N   UNL     1      44.991   2.861  10.388  0.00  0.00    +0.000 N 
ATOM     26  C   UNL     1      44.916   3.355   9.101  0.00  0.00    +0.000 C 
ATOM     27  O   UNL     1      44.232   4.322   8.773  0.00  0.00    +0.000 OA
ATOM     28  H   UNL     1      45.793   2.292  10.632  0.00  0.00    +0.000 HD
BRANCH  26  29
ATOM     29  C   UNL     1      45.748   2.644   8.098  0.00  0.00    +0.000 A 
ATOM     30  C   UNL     1      46.144   3.265   6.910  0.00  0.00    +0.000 A 
ATOM     31  C   UNL     1      46.925   2.565   5.992  0.00  0.00    +0.000 A 
ATOM     32  C   UNL     1      47.292   1.266   6.297  0.00  0.00    +0.000 A 
ATOM     33  N   UNL     1      46.942   0.639   7.443  0.00  0.00    +0.000 NA
ATOM     34  C   UNL     1      46.186   1.345   8.327  0.00  0.00    +0.000 A 
ENDBRANCH  26  29
ENDBRANCH  24  25
ENDBRANCH   7  24
TORSDOF 6
ENDMDL
MODEL 5
REMARK VINA RESULT:    -7.696      2.250      2.773
REMARK INTER + INTRA:         -11.674
REMARK INTER:                 -10.706
REMARK INTRA:                  -0.968
REMARK UNBOUND:                -1.278
REMARK  Name = 
REMARK  7 active torsions:
REMARK  status: ('A' for Active; 'I' for Inactive)
REMARK    1  A    between atoms: C_1  and  C_2
REMARK    2  A    between atoms: C_4  and  C_5
REMARK    3  A    between atoms: C_5  and  N_6
REMARK    4  A    between atoms: C_7  and  C_9
REMARK    5  A    between atoms: C_21  and  C_22
REMARK    6  A    between atoms: C_22  and  N_23
REMARK    7  A    between atoms: C_24  and  C_26
REMARK                            x       y       z     vdW  Elec       q    Type
REMARK                         _______ _______ _______ _____ _____    ______ ____
ROOT
ATOM      1  C   UNL     1      45.088   6.725  11.378  0.00  0.00    +0.000 C 
ATOM      2  C   UNL     1      45.859   6.015  12.458  0.00  0.00    +0.000 A 
ATOM      3  C   UNL     1      46.736   6.792  13.250  0.00  0.00    +0.000 A 
ATOM      4  C   UNL     1      47.498   6.231  14.281  0.00  0.00    +0.000 A 
ATOM      5  C   UNL     1      47.352   4.867  14.542  0.00  0.00    +0.000 A 
ATOM      6  C   UNL     1      46.495   4.080  13.762  0.00  0.00    +0.000 A 
ATOM      7  C   UNL     1      45.748   4.629  12.701  0.00  0.00    +0.000 A 
ENDROOT
BRANCH   4   8
ATOM      8  C   UNL     1      48.414   7.093  15.117  0.00  0.00    +0.000 C 
BRANCH   8   9
ATOM      9  N   UNL     1      49.501   6.320  15.661  0.00  0.00    +0.000 N 
ATOM     10  C   UNL     1      49.532   5.931  16.979  0.00  0.00    +0.000 C 
ATOM     11  O   UNL     1      48.624   6.190  17.759  0.00  0.00    +0.000 OA
ATOM     12  H   UNL     1      50.361   6.306  15.124  0.00  0.00    +0.000 HD
BRANCH  10  13
ATOM     13  C   UNL     1      50.690   5.126  17.386  0.00  0.00    +0.000 A 
ATOM     14  C   UNL     1      51.852   5.753  17.830  0.00  0.00    +0.000 A 
ATOM     15  S   UNL     1      53.081   4.666  18.295  0.00  0.00    +0.000 S 
ATOM     16  C   UNL     1      52.130   3.321  17.871  0.00  0.00    +0.000 A 
ATOM     17  N   UNL     1      52.613   2.055  17.997  0.00  0.00    +0.000 NA
ATOM     18  C   UNL     1      51.797   1.131  17.609  0.00  0.00    +0.000 A 
ATOM     19  N   UNL     1      50.538   1.360  17.115  0.00  0.00    +0.000 N 
ATOM     20  C   UNL     1      49.997   2.616  17.007  0.00  0.00    +0.000 A 
ATOM     21  O   UNL     1      48.844   2.779  16.620  0.00  0.00    +0.000 OA
ATOM     22  C   UNL     1      50.883   3.694  17.405  0.00  0.00    +0.000 A 
ATOM     23  H   UNL     1      49.943   0.591  16.845  0.00  0.00    +0.000 HD
ENDBRANCH  10  13
ENDBRANCH   8   9
ENDBRANCH   4   8
BRANCH   7  24
ATOM     24  C   UNL     1      44.856   3.691  11.906  0.00  0.00    +0.000 C 
BRANCH  24  25
ATOM     25  N   UNL     1      45.514   3.210  10.710  0.00  0.00    +0.000 N 
ATOM     26  C   UNL     1      44.973   3.370   9.450  0.00  0.00    +0.000 C 
ATOM     27  O   UNL     1      43.906   3.938   9.225  0.00  0.00    +0.000 OA
ATOM     28  H   UNL     1      46.509   3.030  10.780  0.00  0.00    +0.000 HD
BRANCH  26  29
ATOM     29  C   UNL     1      45.784   2.820   8.336  0.00  0.00    +0.000 A 
ATOM     30  C   UNL     1      46.145   1.470   8.296  0.00  0.00    +0.000 A 
ATOM     31  C   UNL     1      46.908   0.989   7.234  0.00  0.00    +0.000 A 
ATOM     32  C   UNL     1      47.280   1.876   6.238  0.00  0.00    +0.000 A 
ATOM     33  N   UNL     1      46.936   3.184   6.234  0.00  0.00    +0.000 NA
ATOM     34  C   UNL     1      46.184   3.627   7.278  0.00  0.00    +0.000 A 
ENDBRANCH  26  29
ENDBRANCH  24  25
ENDBRANCH   7  24
TORSDOF 6
ENDMDL
MODEL 6
REMARK VINA RESULT:    -7.541      3.268      4.271
REMARK INTER + INTRA:         -11.464
REMARK INTER:                 -10.368
REMARK INTRA:                  -1.096
REMARK UNBOUND:                -1.278
REMARK  Name = 
REMARK  7 active torsions:
REMARK  status: ('A' for Active; 'I' for Inactive)
REMARK    1  A    between atoms: C_1  and  C_2
REMARK    2  A    between atoms: C_4  and  C_5
REMARK    3  A    between atoms: C_5  and  N_6
REMARK    4  A    between atoms: C_7  and  C_9
REMARK    5  A    between atoms: C_21  and  C_22
REMARK    6  A    between atoms: C_22  and  N_23
REMARK    7  A    between atoms: C_24  and  C_26
REMARK                            x       y       z     vdW  Elec       q    Type
REMARK                         _______ _______ _______ _____ _____    ______ ____
ROOT
ATOM      1  C   UNL     1      46.734   3.844  13.508  0.00  0.00    +0.000 C 
ATOM      2  C   UNL     1      45.953   4.958  12.865  0.00  0.00    +0.000 A 
ATOM      3  C   UNL     1      46.272   6.281  13.248  0.00  0.00    +0.000 A 
ATOM      4  C   UNL     1      45.607   7.390  12.710  0.00  0.00    +0.000 A 
ATOM      5  C   UNL     1      44.625   7.165  11.744  0.00  0.00    +0.000 A 
ATOM      6  C   UNL     1      44.291   5.861  11.358  0.00  0.00    +0.000 A 
ATOM      7  C   UNL     1      44.930   4.737  11.917  0.00  0.00    +0.000 A 
ENDROOT
BRANCH   4   8
ATOM      8  C   UNL     1      45.983   8.791  13.132  0.00  0.00    +0.000 C 
BRANCH   8   9
ATOM      9  N   UNL     1      47.390   9.032  12.932  0.00  0.00    +0.000 N 
ATOM     10  C   UNL     1      48.271   9.118  13.983  0.00  0.00    +0.000 C 
ATOM     11  O   UNL     1      47.919   8.961  15.147  0.00  0.00    +0.000 OA
ATOM     12  H   UNL     1      47.662   9.406  12.030  0.00  0.00    +0.000 HD
BRANCH  10  13
ATOM     13  C   UNL     1      49.677   9.343  13.628  0.00  0.00    +0.000 A 
ATOM     14  C   UNL     1      50.417  10.316  14.295  0.00  0.00    +0.000 A 
ATOM     15  S   UNL     1      52.040  10.416  13.780  0.00  0.00    +0.000 S 
ATOM     16  C   UNL     1      51.802   9.203  12.611  0.00  0.00    +0.000 A 
ATOM     17  N   UNL     1      52.813   8.821  11.784  0.00  0.00    +0.000 NA
ATOM     18  C   UNL     1      52.486   7.914  10.924  0.00  0.00    +0.000 A 
ATOM     19  N   UNL     1      51.240   7.348  10.823  0.00  0.00    +0.000 N 
ATOM     20  C   UNL     1      50.203   7.675  11.661  0.00  0.00    +0.000 A 
ATOM     21  O   UNL     1      49.121   7.103  11.584  0.00  0.00    +0.000 OA
ATOM     22  C   UNL     1      50.511   8.710  12.630  0.00  0.00    +0.000 A 
ATOM     23  H   UNL     1      51.054   6.630  10.139  0.00  0.00    +0.000 HD
ENDBRANCH  10  13
ENDBRANCH   8   9
ENDBRANCH   4   8
BRANCH   7  24
ATOM     24  C   UNL     1      44.488   3.363  11.442  0.00  0.00    +0.000 C 
BRANCH  24  25
ATOM     25  N   UNL     1      45.282   2.901  10.323  0.00  0.00    +0.000 N 
ATOM     26  C   UNL     1      45.005   3.259   9.019  0.00  0.00    +0.000 C 
ATOM     27  O   UNL     1      44.083   4.001   8.690  0.00  0.00    +0.000 OA
ATOM     28  H   UNL     1      46.214   2.566  10.536  0.00  0.00    +0.000 HD
BRANCH  26  29
ATOM     29  C   UNL     1      45.923   2.697   7.998  0.00  0.00    +0.000 A 
ATOM     30  C   UNL     1      46.364   3.464   6.916  0.00  0.00    +0.000 A 
ATOM     31  C   UNL     1      47.227   2.902   5.976  0.00  0.00    +0.000 A 
ATOM     32  C   UNL     1      47.627   1.589   6.154  0.00  0.00    +0.000 A 
ATOM     33  N   UNL     1      47.234   0.822   7.197  0.00  0.00    +0.000 NA
ATOM     34  C   UNL     1      46.399   1.396   8.105  0.00  0.00    +0.000 A 
ENDBRANCH  26  29
ENDBRANCH  24  25
ENDBRANCH   7  24
TORSDOF 6
ENDMDL
MODEL 7
REMARK VINA RESULT:    -7.490      2.905      3.435
REMARK INTER + INTRA:         -11.395
REMARK INTER:                 -10.636
REMARK INTRA:                  -0.759
REMARK UNBOUND:                -1.278
REMARK  Name = 
REMARK  7 active torsions:
REMARK  status: ('A' for Active; 'I' for Inactive)
REMARK    1  A    between atoms: C_1  and  C_2
REMARK    2  A    between atoms: C_4  and  C_5
REMARK    3  A    between atoms: C_5  and  N_6
REMARK    4  A    between atoms: C_7  and  C_9
REMARK    5  A    between atoms: C_21  and  C_22
REMARK    6  A    between atoms: C_22  and  N_23
REMARK    7  A    between atoms: C_24  and  C_26
REMARK                            x       y       z     vdW  Elec       q    Type
REMARK                         _______ _______ _______ _____ _____    ______ ____
ROOT
ATOM      1  C   UNL     1      46.484   3.760  13.329  0.00  0.00    +0.000 C 
ATOM      2  C   UNL     1      45.695   4.883  12.711  0.00  0.00    +0.000 A 
ATOM      3  C   UNL     1      46.009   6.199  13.119  0.00  0.00    +0.000 A 
ATOM      4  C   UNL     1      45.336   7.315  12.606  0.00  0.00    +0.000 A 
ATOM      5  C   UNL     1      44.351   7.105  11.640  0.00  0.00    +0.000 A 
ATOM      6  C   UNL     1      44.021   5.807  11.230  0.00  0.00    +0.000 A 
ATOM      7  C   UNL     1      44.669   4.675  11.764  0.00  0.00    +0.000 A 
ENDROOT
BRANCH   4   8
ATOM      8  C   UNL     1      45.707   8.710  13.054  0.00  0.00    +0.000 C 
BRANCH   8   9
ATOM      9  N   UNL     1      46.746   8.674  14.052  0.00  0.00    +0.000 N 
ATOM     10  C   UNL     1      47.955   9.300  13.869  0.00  0.00    +0.000 C 
ATOM     11  O   UNL     1      48.209   9.952  12.863  0.00  0.00    +0.000 OA
ATOM     12  H   UNL     1      46.666   7.957  14.764  0.00  0.00    +0.000 HD
BRANCH  10  13
ATOM     13  C   UNL     1      48.907   9.200  14.982  0.00  0.00    +0.000 A 
ATOM     14  C   UNL     1      48.543   9.640  16.252  0.00  0.00    +0.000 A 
ATOM     15  S   UNL     1      49.757   9.415  17.429  0.00  0.00    +0.000 S 
ATOM     16  C   UNL     1      50.833   8.773  16.278  0.00  0.00    +0.000 A 
ATOM     17  N   UNL     1      52.092   8.397  16.630  0.00  0.00    +0.000 NA
ATOM     18  C   UNL     1      52.811   7.955  15.652  0.00  0.00    +0.000 A 
ATOM     19  N   UNL     1      52.381   7.849  14.354  0.00  0.00    +0.000 N 
ATOM     20  C   UNL     1      51.108   8.181  13.961  0.00  0.00    +0.000 A 
ATOM     21  O   UNL     1      50.738   8.012  12.804  0.00  0.00    +0.000 OA
ATOM     22  C   UNL     1      50.266   8.707  15.019  0.00  0.00    +0.000 A 
ATOM     23  H   UNL     1      52.989   7.480  13.638  0.00  0.00    +0.000 HD
ENDBRANCH  10  13
ENDBRANCH   8   9
ENDBRANCH   4   8
BRANCH   7  24
ATOM     24  C   UNL     1      44.231   3.309  11.264  0.00  0.00    +0.000 C 
BRANCH  24  25
ATOM     25  N   UNL     1      45.083   2.829  10.197  0.00  0.00    +0.000 N 
ATOM     26  C   UNL     1      44.948   3.257   8.891  0.00  0.00    +0.000 C 
ATOM     27  O   UNL     1      44.115   4.079   8.518  0.00  0.00    +0.000 OA
ATOM     28  H   UNL     1      45.966   2.416  10.472  0.00  0.00    +0.000 HD
BRANCH  26  29
ATOM     29  C   UNL     1      45.909   2.665   7.927  0.00  0.00    +0.000 A 
ATOM     30  C   UNL     1      46.438   3.416   6.874  0.00  0.00    +0.000 A 
ATOM     31  C   UNL     1      47.337   2.827   5.987  0.00  0.00    +0.000 A 
ATOM     32  C   UNL     1      47.685   1.502   6.189  0.00  0.00    +0.000 A 
ATOM     33  N   UNL     1      47.207   0.749   7.206  0.00  0.00    +0.000 NA
ATOM     34  C   UNL     1      46.337   1.350   8.062  0.00  0.00    +0.000 A 
ENDBRANCH  26  29
ENDBRANCH  24  25
ENDBRANCH   7  24
TORSDOF 6
ENDMDL
MODEL 8
REMARK VINA RESULT:    -7.174      2.677      2.934
REMARK INTER + INTRA:         -10.968
REMARK INTER:                  -9.871
REMARK INTRA:                  -1.097
REMARK UNBOUND:                -1.278
REMARK  Name = 
REMARK  7 active torsions:
REMARK  status: ('A' for Active; 'I' for Inactive)
REMARK    1  A    between atoms: C_1  and  C_2
REMARK    2  A    between atoms: C_4  and  C_5
REMARK    3  A    between atoms: C_5  and  N_6
REMARK    4  A    between atoms: C_7  and  C_9
REMARK    5  A    between atoms: C_21  and  C_22
REMARK    6  A    between atoms: C_22  and  N_23
REMARK    7  A    between atoms: C_24  and  C_26
REMARK                            x       y       z     vdW  Elec       q    Type
REMARK                         _______ _______ _______ _____ _____    ______ ____
ROOT
ATOM      1  C   UNL     1      46.528   3.488  13.319  0.00  0.00    +0.000 C 
ATOM      2  C   UNL     1      45.947   4.766  12.776  0.00  0.00    +0.000 A 
ATOM      3  C   UNL     1      46.448   5.981  13.297  0.00  0.00    +0.000 A 
ATOM      4  C   UNL     1      45.977   7.225  12.860  0.00  0.00    +0.000 A 
ATOM      5  C   UNL     1      45.007   7.248  11.857  0.00  0.00    +0.000 A 
ATOM      6  C   UNL     1      44.493   6.054  11.336  0.00  0.00    +0.000 A 
ATOM      7  C   UNL     1      44.936   4.796  11.791  0.00  0.00    +0.000 A 
ENDROOT
BRANCH   4   8
ATOM      8  C   UNL     1      46.546   8.505  13.428  0.00  0.00    +0.000 C 
BRANCH   8   9
ATOM      9  N   UNL     1      47.650   8.233  14.313  0.00  0.00    +0.000 N 
ATOM     10  C   UNL     1      48.760   9.041  14.362  0.00  0.00    +0.000 C 
ATOM     11  O   UNL     1      48.862  10.055  13.682  0.00  0.00    +0.000 OA
ATOM     12  H   UNL     1      47.707   7.295  14.692  0.00  0.00    +0.000 HD
BRANCH  10  13
ATOM     13  C   UNL     1      49.796   8.655  15.328  0.00  0.00    +0.000 A 
ATOM     14  C   UNL     1      51.046   8.239  14.880  0.00  0.00    +0.000 A 
ATOM     15  S   UNL     1      52.135   7.864  16.138  0.00  0.00    +0.000 S 
ATOM     16  C   UNL     1      50.963   8.191  17.326  0.00  0.00    +0.000 A 
ATOM     17  N   UNL     1      51.243   8.033  18.648  0.00  0.00    +0.000 NA
ATOM     18  C   UNL     1      50.253   8.286  19.439  0.00  0.00    +0.000 A 
ATOM     19  N   UNL     1      49.009   8.691  19.025  0.00  0.00    +0.000 N 
ATOM     20  C   UNL     1      48.694   8.900  17.705  0.00  0.00    +0.000 A 
ATOM     21  O   UNL     1      47.591   9.324  17.377  0.00  0.00    +0.000 OA
ATOM     22  C   UNL     1      49.765   8.605  16.773  0.00  0.00    +0.000 A 
ATOM     23  H   UNL     1      48.282   8.889  19.696  0.00  0.00    +0.000 HD
ENDBRANCH  10  13
ENDBRANCH   8   9
ENDBRANCH   4   8
BRANCH   7  24
ATOM     24  C   UNL     1      44.309   3.559  11.172  0.00  0.00    +0.000 C 
BRANCH  24  25
ATOM     25  N   UNL     1      45.131   3.013  10.113  0.00  0.00    +0.000 N 
ATOM     26  C   UNL     1      44.986   3.390   8.793  0.00  0.00    +0.000 C 
ATOM     27  O   UNL     1      44.169   4.219   8.399  0.00  0.00    +0.000 OA
ATOM     28  H   UNL     1      46.007   2.588  10.392  0.00  0.00    +0.000 HD
BRANCH  26  29
ATOM     29  C   UNL     1      45.914   2.734   7.840  0.00  0.00    +0.000 A 
ATOM     30  C   UNL     1      46.376   3.398   6.700  0.00  0.00    +0.000 A 
ATOM     31  C   UNL     1      47.248   2.749   5.827  0.00  0.00    +0.000 A 
ATOM     32  C   UNL     1      47.636   1.455   6.128  0.00  0.00    +0.000 A 
ATOM     33  N   UNL     1      47.222   0.787   7.229  0.00  0.00    +0.000 NA
ATOM     34  C   UNL     1      46.379   1.445   8.069  0.00  0.00    +0.000 A 
ENDBRANCH  26  29
ENDBRANCH  24  25
ENDBRANCH   7  24
TORSDOF 6
ENDMDL
MODEL 9
REMARK VINA RESULT:    -7.030      3.733      8.693
REMARK INTER + INTRA:         -10.773
REMARK INTER:                  -9.581
REMARK INTRA:                  -1.192
REMARK UNBOUND:                -1.278
REMARK  Name = 
REMARK  7 active torsions:
REMARK  status: ('A' for Active; 'I' for Inactive)
REMARK    1  A    between atoms: C_1  and  C_2
REMARK    2  A    between atoms: C_4  and  C_5
REMARK    3  A    between atoms: C_5  and  N_6
REMARK    4  A    between atoms: C_7  and  C_9
REMARK    5  A    between atoms: C_21  and  C_22
REMARK    6  A    between atoms: C_22  and  N_23
REMARK    7  A    between atoms: C_24  and  C_26
REMARK                            x       y       z     vdW  Elec       q    Type
REMARK                         _______ _______ _______ _____ _____    ______ ____
ROOT
ATOM      1  C   UNL     1      47.254   3.504  17.359  0.00  0.00    +0.000 C 
ATOM      2  C   UNL     1      48.170   4.601  16.887  0.00  0.00    +0.000 A 
ATOM      3  C   UNL     1      47.796   5.303  15.719  0.00  0.00    +0.000 A 
ATOM      4  C   UNL     1      48.577   6.341  15.195  0.00  0.00    +0.000 A 
ATOM      5  C   UNL     1      49.740   6.701  15.878  0.00  0.00    +0.000 A 
ATOM      6  C   UNL     1      50.130   6.011  17.033  0.00  0.00    +0.000 A 
ATOM      7  C   UNL     1      49.369   4.943  17.550  0.00  0.00    +0.000 A 
ENDROOT
BRANCH   4   8
ATOM      8  C   UNL     1      48.140   7.080  13.952  0.00  0.00    +0.000 C 
BRANCH   8   9
ATOM      9  N   UNL     1      47.387   6.219  13.075  0.00  0.00    +0.000 N 
ATOM     10  C   UNL     1      46.542   6.718  12.113  0.00  0.00    +0.000 C 
ATOM     11  O   UNL     1      46.404   7.920  11.923  0.00  0.00    +0.000 OA
ATOM     12  H   UNL     1      47.289   5.253  13.364  0.00  0.00    +0.000 HD
BRANCH  10  13
ATOM     13  C   UNL     1      45.860   5.723  11.277  0.00  0.00    +0.000 A 
ATOM     14  C   UNL     1      45.987   5.773   9.891  0.00  0.00    +0.000 A 
ATOM     15  S   UNL     1      45.158   4.521   9.082  0.00  0.00    +0.000 S 
ATOM     16  C   UNL     1      44.555   3.898  10.545  0.00  0.00    +0.000 A 
ATOM     17  N   UNL     1      43.729   2.817  10.557  0.00  0.00    +0.000 NA
ATOM     18  C   UNL     1      43.321   2.469  11.732  0.00  0.00    +0.000 A 
ATOM     19  N   UNL     1      43.671   3.102  12.898  0.00  0.00    +0.000 N 
ATOM     20  C   UNL     1      44.531   4.171  12.936  0.00  0.00    +0.000 A 
ATOM     21  O   UNL     1      44.873   4.672  14.002  0.00  0.00    +0.000 OA
ATOM     22  C   UNL     1      45.000   4.618  11.638  0.00  0.00    +0.000 A 
ATOM     23  H   UNL     1      43.330   2.769  13.788  0.00  0.00    +0.000 HD
ENDBRANCH  10  13
ENDBRANCH   8   9
ENDBRANCH   4   8
BRANCH   7  24
ATOM     24  C   UNL     1      49.882   4.250  18.800  0.00  0.00    +0.000 C 
BRANCH  24  25
ATOM     25  N   UNL     1      51.194   3.673  18.593  0.00  0.00    +0.000 N 
ATOM     26  C   UNL     1      51.393   2.539  17.831  0.00  0.00    +0.000 C 
ATOM     27  O   UNL     1      50.495   1.929  17.255  0.00  0.00    +0.000 OA
ATOM     28  H   UNL     1      51.988   4.280  18.758  0.00  0.00    +0.000 HD
BRANCH  26  29
ATOM     29  C   UNL     1      52.803   2.088  17.722  0.00  0.00    +0.000 A 
ATOM     30  C   UNL     1      53.865   2.992  17.812  0.00  0.00    +0.000 A 
ATOM     31  C   UNL     1      55.176   2.531  17.704  0.00  0.00    +0.000 A 
ATOM     32  C   UNL     1      55.383   1.175  17.516  0.00  0.00    +0.000 A 
ATOM     33  N   UNL     1      54.381   0.269  17.440  0.00  0.00    +0.000 NA
ATOM     34  C   UNL     1      53.110   0.743  17.556  0.00  0.00    +0.000 A 
ENDBRANCH  26  29
ENDBRANCH  24  25
ENDBRANCH   7  24
TORSDOF 6
ENDMDL
