MODEL 1
REMARK VINA RESULT:    -8.373      0.000      0.000
REMARK INTER + INTRA:         -12.650
REMARK INTER:                 -11.800
REMARK INTRA:                  -0.850
REMARK UNBOUND:                -0.850
REMARK  Name = 
REMARK  8 active torsions:
REMARK  status: ('A' for Active; 'I' for Inactive)
REMARK    1  A    between atoms: C_1  and  N_2
REMARK    2  A    between atoms: C_4  and  C_5
REMARK    3  A    between atoms: N_7  and  C_8
REMARK    4  A    between atoms: C_8  and  C_9
REMARK    5  A    between atoms: C_12  and  C_13
REMARK    6  A    between atoms: C_13  and  N_14
REMARK    7  A    between atoms: N_14  and  C_15
REMARK    8  A    between atoms: C_15  and  C_16
REMARK                            x       y       z     vdW  Elec       q    Type
REMARK                         _______ _______ _______ _____ _____    ______ ____
ROOT
ATOM      1  C   UNL     1      48.300   6.651  13.674  0.00  0.00    +0.000 C 
ENDROOT
BRANCH   1   2
ATOM      2  C   UNL     1      47.143   6.066  12.918  0.00  0.00    +0.000 A 
ATOM      3  C   UNL     1      46.685   6.673  11.741  0.00  0.00    +0.000 A 
ATOM      4  C   UNL     1      45.636   6.109  11.013  0.00  0.00    +0.000 A 
ATOM      5  C   UNL     1      45.022   4.925  11.450  0.00  0.00    +0.000 A 
ATOM      6  C   UNL     1      45.476   4.327  12.633  0.00  0.00    +0.000 A 
ATOM      7  C   UNL     1      46.521   4.894  13.363  0.00  0.00    +0.000 A 
BRANCH   5   8
ATOM      8  C   UNL     1      43.882   4.300  10.681  0.00  0.00    +0.000 C 
BRANCH   8   9
ATOM      9  N   UNL     1      44.350   3.228   9.809  0.00  0.00    +0.000 NA
ATOM     10  H   UNL     1      43.610   2.536   9.705  0.00  0.00    +0.000 HD
BRANCH   9  11
ATOM     11  C   UNL     1      44.711   3.742   8.489  0.00  0.00    +0.000 C 
BRANCH  11  12
ATOM     12  C   UNL     1      45.800   2.900   7.873  0.00  0.00    +0.000 A 
ATOM     13  C   UNL     1      46.675   3.421   6.917  0.00  0.00    +0.000 A 
ATOM     14  C   UNL     1      47.658   2.592   6.396  0.00  0.00    +0.000 A 
ATOM     15  N   UNL     1      47.825   1.302   6.754  0.00  0.00    +0.000 NA
ATOM     16  C   UNL     1      46.967   0.816   7.677  0.00  0.00    +0.000 A 
ATOM     17  C   UNL     1      45.959   1.565   8.260  0.00  0.00    +0.000 A 
ENDBRANCH  11  12
ENDBRANCH   9  11
ENDBRANCH   8   9
ENDBRANCH   5   8
ENDBRANCH   1   2
BRANCH   1  20
ATOM     18  C   UNL     1      49.018   6.736  15.993  0.00  0.00    +0.000 C 
ATOM     19  O   UNL     1      50.147   6.399  15.653  0.00  0.00    +0.000 OA
ATOM     20  N   UNL     1      48.011   6.887  15.063  0.00  0.00    +0.000 N 
ATOM     21  H   UNL     1      47.098   7.187  15.390  0.00  0.00    +0.000 HD
BRANCH  18  25
ATOM     22  C   UNL     1      47.471   9.219  19.863  0.00  0.00    +0.000 C 
ATOM     23  N   UNL     1      47.956   8.104  19.083  0.00  0.00    +0.000 N 
ATOM     24  N   UNL     1      48.217   8.240  17.765  0.00  0.00    +0.000 NA
ATOM     25  C   UNL     1      48.638   7.005  17.387  0.00  0.00    +0.000 A 
ATOM     26  C   UNL     1      48.639   6.094  18.494  0.00  0.00    +0.000 A 
ATOM     27  C   UNL     1      48.928   4.773  18.815  0.00  0.00    +0.000 A 
ATOM     28 CL   UNL     1      49.501   3.661  17.676  0.00  0.00    +0.000 Cl
ATOM     29  N   UNL     1      48.776   4.295  20.063  0.00  0.00    +0.000 NA
ATOM     30  C   UNL     1      48.328   5.146  20.996  0.00  0.00    +0.000 A 
ATOM     31  N   UNL     1      48.011   6.440  20.834  0.00  0.00    +0.000 NA
ATOM     32  C   UNL     1      48.188   6.850  19.565  0.00  0.00    +0.000 A 
ENDBRANCH  18  25
ENDBRANCH   1  20
TORSDOF 7
ENDMDL
MODEL 2
REMARK VINA RESULT:    -8.347      1.372      2.171
REMARK INTER + INTRA:         -12.612
REMARK INTER:                 -11.831
REMARK INTRA:                  -0.782
REMARK UNBOUND:                -0.850
REMARK  Name = 
REMARK  8 active torsions:
REMARK  status: ('A' for Active; 'I' for Inactive)
REMARK    1  A    between atoms: C_1  and  N_2
REMARK    2  A    between atoms: C_4  and  C_5
REMARK    3  A    between atoms: N_7  and  C_8
REMARK    4  A    between atoms: C_8  and  C_9
REMARK    5  A    between atoms: C_12  and  C_13
REMARK    6  A    between atoms: C_13  and  N_14
REMARK    7  A    between atoms: N_14  and  C_15
REMARK    8  A    between atoms: C_15  and  C_16
REMARK                            x       y       z     vdW  Elec       q    Type
REMARK                         _______ _______ _______ _____ _____    ______ ____
ROOT
ATOM      1  C   UNL     1      48.055   6.759  13.691  0.00  0.00    +0.000 C 
ENDROOT
BRANCH   1   2
ATOM      2  C   UNL     1      46.939   6.158  12.889  0.00  0.00    +0.000 A 
ATOM      3  C   UNL     1      46.609   6.677  11.630  0.00  0.00    +0.000 A 
ATOM      4  C   UNL     1      45.598   6.094  10.863  0.00  0.00    +0.000 A 
ATOM      5  C   UNL     1      44.894   4.979  11.344  0.00  0.00    +0.000 A 
ATOM      6  C   UNL     1      45.219   4.470  12.608  0.00  0.00    +0.000 A 
ATOM      7  C   UNL     1      46.226   5.055  13.375  0.00  0.00    +0.000 A 
BRANCH   5   8
ATOM      8  C   UNL     1      43.793   4.336  10.534  0.00  0.00    +0.000 C 
BRANCH   8   9
ATOM      9  N   UNL     1      44.314   3.285   9.665  0.00  0.00    +0.000 NA
ATOM     10  H   UNL     1      43.569   2.621   9.463  0.00  0.00    +0.000 HD
BRANCH   9  11
ATOM     11  C   UNL     1      44.811   3.839   8.408  0.00  0.00    +0.000 C 
BRANCH  11  12
ATOM     12  C   UNL     1      45.874   2.946   7.819  0.00  0.00    +0.000 A 
ATOM     13  C   UNL     1      46.783   3.417   6.870  0.00  0.00    +0.000 A 
ATOM     14  C   UNL     1      47.739   2.542   6.375  0.00  0.00    +0.000 A 
ATOM     15  N   UNL     1      47.849   1.251   6.754  0.00  0.00    +0.000 NA
ATOM     16  C   UNL     1      46.959   0.814   7.670  0.00  0.00    +0.000 A 
ATOM     17  C   UNL     1      45.974   1.611   8.227  0.00  0.00    +0.000 A 
ENDBRANCH  11  12
ENDBRANCH   9  11
ENDBRANCH   8   9
ENDBRANCH   5   8
ENDBRANCH   1   2
BRANCH   1  20
ATOM     18  C   UNL     1      49.009   6.528  15.913  0.00  0.00    +0.000 C 
ATOM     19  O   UNL     1      50.136   6.600  15.434  0.00  0.00    +0.000 OA
ATOM     20  N   UNL     1      47.890   6.595  15.111  0.00  0.00    +0.000 N 
ATOM     21  H   UNL     1      46.978   6.551  15.555  0.00  0.00    +0.000 HD
BRANCH  18  25
ATOM     22  C   UNL     1      48.706   4.359  20.242  0.00  0.00    +0.000 C 
ATOM     23  N   UNL     1      48.621   5.406  19.250  0.00  0.00    +0.000 N 
ATOM     24  N   UNL     1      48.948   5.171  17.961  0.00  0.00    +0.000 NA
ATOM     25  C   UNL     1      48.749   6.368  17.351  0.00  0.00    +0.000 A 
ATOM     26  C   UNL     1      48.287   7.356  18.280  0.00  0.00    +0.000 A 
ATOM     27  C   UNL     1      47.908   8.691  18.349  0.00  0.00    +0.000 A 
ATOM     28 CL   UNL     1      47.897   9.708  16.997  0.00  0.00    +0.000 Cl
ATOM     29  N   UNL     1      47.517   9.261  19.503  0.00  0.00    +0.000 NA
ATOM     30  C   UNL     1      47.508   8.488  20.597  0.00  0.00    +0.000 A 
ATOM     31  N   UNL     1      47.844   7.192  20.682  0.00  0.00    +0.000 NA
ATOM     32  C   UNL     1      48.223   6.688  19.493  0.00  0.00    +0.000 A 
ENDBRANCH  18  25
ENDBRANCH   1  20
TORSDOF 7
ENDMDL
MODEL 3
REMARK VINA RESULT:    -8.301      1.723      1.896
REMARK INTER + INTRA:         -12.548
REMARK INTER:                 -11.233
REMARK INTRA:                  -1.314
REMARK UNBOUND:                -0.850
REMARK  Name = 
REMARK  8 active torsions:
REMARK  status: ('A' for Active; 'I' for Inactive)
REMARK    1  A    between atoms: C_1  and  N_2
REMARK    2  A    between atoms: C_4  and  C_5
REMARK    3  A    between atoms: N_7  and  C_8
REMARK    4  A    between atoms: C_8  and  C_9
REMARK    5  A    between atoms: C_12  and  C_13
REMARK    6  A    between atoms: C_13  and  N_14
REMARK    7  A    between atoms: N_14  and  C_15
REMARK    8  A    between atoms: C_15  and  C_16
REMARK                            x       y       z     vdW  Elec       q    Type
REMARK                         _______ _______ _______ _____ _____    ______ ____
ROOT
ATOM      1  C   UNL     1      47.042   7.990  13.065  0.00  0.00    +0.000 C 
ENDROOT
BRANCH   1   2
ATOM      2  C   UNL     1      46.168   6.944  12.438  0.00  0.00    +0.000 A 
ATOM      3  C   UNL     1      46.353   6.574  11.099  0.00  0.00    +0.000 A 
ATOM      4  C   UNL     1      45.570   5.571  10.524  0.00  0.00    +0.000 A 
ATOM      5  C   UNL     1      44.583   4.919  11.279  0.00  0.00    +0.000 A 
ATOM      6  C   UNL     1      44.393   5.299  12.614  0.00  0.00    +0.000 A 
ATOM      7  C   UNL     1      45.174   6.304  13.187  0.00  0.00    +0.000 A 
BRANCH   5   8
ATOM      8  C   UNL     1      43.720   3.835  10.676  0.00  0.00    +0.000 C 
BRANCH   8   9
ATOM      9  N   UNL     1      44.072   3.586   9.283  0.00  0.00    +0.000 NA
ATOM     10  H   UNL     1      44.811   4.230   9.006  0.00  0.00    +0.000 HD
BRANCH   9  11
ATOM     11  C   UNL     1      44.540   2.214   9.094  0.00  0.00    +0.000 C 
BRANCH  11  12
ATOM     12  C   UNL     1      45.767   2.189   8.219  0.00  0.00    +0.000 A 
ATOM     13  C   UNL     1      46.277   3.354   7.640  0.00  0.00    +0.000 A 
ATOM     14  C   UNL     1      47.414   3.260   6.850  0.00  0.00    +0.000 A 
ATOM     15  N   UNL     1      48.066   2.104   6.601  0.00  0.00    +0.000 NA
ATOM     16  C   UNL     1      47.556   0.990   7.167  0.00  0.00    +0.000 A 
ATOM     17  C   UNL     1      46.432   0.982   7.975  0.00  0.00    +0.000 A 
ENDBRANCH  11  12
ENDBRANCH   9  11
ENDBRANCH   8   9
ENDBRANCH   5   8
ENDBRANCH   1   2
BRANCH   1  20
ATOM     18  C   UNL     1      48.695   6.958  14.516  0.00  0.00    +0.000 C 
ATOM     19  O   UNL     1      49.362   6.653  13.533  0.00  0.00    +0.000 OA
ATOM     20  N   UNL     1      47.501   7.634  14.381  0.00  0.00    +0.000 N 
ATOM     21  H   UNL     1      46.993   7.883  15.224  0.00  0.00    +0.000 HD
BRANCH  18  25
ATOM     22  C   UNL     1      50.837   7.471  18.838  0.00  0.00    +0.000 C 
ATOM     23  N   UNL     1      50.036   6.876  17.793  0.00  0.00    +0.000 N 
ATOM     24  N   UNL     1      49.902   7.480  16.592  0.00  0.00    +0.000 NA
ATOM     25  C   UNL     1      49.092   6.642  15.895  0.00  0.00    +0.000 A 
ATOM     26  C   UNL     1      48.723   5.501  16.680  0.00  0.00    +0.000 A 
ATOM     27  C   UNL     1      47.977   4.330  16.614  0.00  0.00    +0.000 A 
ATOM     28 CL   UNL     1      47.124   3.869  15.229  0.00  0.00    +0.000 Cl
ATOM     29  N   UNL     1      47.892   3.481  17.654  0.00  0.00    +0.000 NA
ATOM     30  C   UNL     1      48.558   3.809  18.770  0.00  0.00    +0.000 A 
ATOM     31  N   UNL     1      49.315   4.897  18.977  0.00  0.00    +0.000 NA
ATOM     32  C   UNL     1      49.355   5.699  17.898  0.00  0.00    +0.000 A 
ENDBRANCH  18  25
ENDBRANCH   1  20
TORSDOF 7
ENDMDL
MODEL 4
REMARK VINA RESULT:    -8.111      1.816      2.289
REMARK INTER + INTRA:         -12.280
REMARK INTER:                 -11.457
REMARK INTRA:                  -0.823
REMARK UNBOUND:                -0.850
REMARK  Name = 
REMARK  8 active torsions:
REMARK  status: ('A' for Active; 'I' for Inactive)
REMARK    1  A    between atoms: C_1  and  N_2
REMARK    2  A    between atoms: C_4  and  C_5
REMARK    3  A    between atoms: N_7  and  C_8
REMARK    4  A    between atoms: C_8  and  C_9
REMARK    5  A    between atoms: C_12  and  C_13
REMARK    6  A    between atoms: C_13  and  N_14
REMARK    7  A    between atoms: N_14  and  C_15
REMARK    8  A    between atoms: C_15  and  C_16
REMARK                            x       y       z     vdW  Elec       q    Type
REMARK                         _______ _______ _______ _____ _____    ______ ____
ROOT
ATOM      1  C   UNL     1      47.381   3.268  14.869  0.00  0.00    +0.000 C 
ENDROOT
BRANCH   1   2
ATOM      2  C   UNL     1      46.732   3.936  13.694  0.00  0.00    +0.000 A 
ATOM      3  C   UNL     1      47.078   5.248  13.343  0.00  0.00    +0.000 A 
ATOM      4  C   UNL     1      46.507   5.859  12.225  0.00  0.00    +0.000 A 
ATOM      5  C   UNL     1      45.575   5.168  11.435  0.00  0.00    +0.000 A 
ATOM      6  C   UNL     1      45.224   3.861  11.795  0.00  0.00    +0.000 A 
ATOM      7  C   UNL     1      45.792   3.252  12.915  0.00  0.00    +0.000 A 
BRANCH   5   8
ATOM      8  C   UNL     1      44.941   5.811  10.224  0.00  0.00    +0.000 C 
BRANCH   8   9
ATOM      9  N   UNL     1      45.541   5.326   8.986  0.00  0.00    +0.000 NA
ATOM     10  H   UNL     1      46.525   5.119   9.152  0.00  0.00    +0.000 HD
BRANCH   9  11
ATOM     11  C   UNL     1      44.872   4.115   8.514  0.00  0.00    +0.000 C 
BRANCH  11  12
ATOM     12  C   UNL     1      45.879   3.131   7.975  0.00  0.00    +0.000 A 
ATOM     13  C   UNL     1      45.847   1.781   8.335  0.00  0.00    +0.000 A 
ATOM     14  C   UNL     1      46.800   0.928   7.797  0.00  0.00    +0.000 A 
ATOM     15  N   UNL     1      47.767   1.321   6.940  0.00  0.00    +0.000 NA
ATOM     16  C   UNL     1      47.782   2.630   6.608  0.00  0.00    +0.000 A 
ATOM     17  C   UNL     1      46.872   3.556   7.086  0.00  0.00    +0.000 A 
ENDBRANCH  11  12
ENDBRANCH   9  11
ENDBRANCH   8   9
ENDBRANCH   5   8
ENDBRANCH   1   2
BRANCH   1  20
ATOM     18  C   UNL     1      47.376   4.058  17.167  0.00  0.00    +0.000 C 
ATOM     19  O   UNL     1      46.590   3.166  17.468  0.00  0.00    +0.000 OA
ATOM     20  N   UNL     1      47.833   4.195  15.873  0.00  0.00    +0.000 N 
ATOM     21  H   UNL     1      48.499   4.935  15.676  0.00  0.00    +0.000 HD
BRANCH  18  25
ATOM     22  C   UNL     1      47.377   7.798  20.256  0.00  0.00    +0.000 C 
ATOM     23  N   UNL     1      47.884   6.685  19.487  0.00  0.00    +0.000 N 
ATOM     24  N   UNL     1      47.077   5.987  18.659  0.00  0.00    +0.000 NA
ATOM     25  C   UNL     1      47.894   5.041  18.129  0.00  0.00    +0.000 A 
ATOM     26  C   UNL     1      49.228   5.161  18.637  0.00  0.00    +0.000 A 
ATOM     27  C   UNL     1      50.486   4.577  18.539  0.00  0.00    +0.000 A 
ATOM     28 CL   UNL     1      50.804   3.257  17.530  0.00  0.00    +0.000 Cl
ATOM     29  N   UNL     1      51.538   5.033  19.242  0.00  0.00    +0.000 NA
ATOM     30  C   UNL     1      51.329   6.081  20.051  0.00  0.00    +0.000 A 
ATOM     31  N   UNL     1      50.178   6.743  20.245  0.00  0.00    +0.000 NA
ATOM     32  C   UNL     1      49.171   6.235  19.511  0.00  0.00    +0.000 A 
ENDBRANCH  18  25
ENDBRANCH   1  20
TORSDOF 7
ENDMDL
MODEL 5
REMARK VINA RESULT:    -7.974      1.700      2.541
REMARK INTER + INTRA:         -12.086
REMARK INTER:                 -11.113
REMARK INTRA:                  -0.974
REMARK UNBOUND:                -0.850
REMARK  Name = 
REMARK  8 active torsions:
REMARK  status: ('A' for Active; 'I' for Inactive)
REMARK    1  A    between atoms: C_1  and  N_2
REMARK    2  A    between atoms: C_4  and  C_5
REMARK    3  A    between atoms: N_7  and  C_8
REMARK    4  A    between atoms: C_8  and  C_9
REMARK    5  A    between atoms: C_12  and  C_13
REMARK    6  A    between atoms: C_13  and  N_14
REMARK    7  A    between atoms: N_14  and  C_15
REMARK    8  A    between atoms: C_15  and  C_16
REMARK                            x       y       z     vdW  Elec       q    Type
REMARK                         _______ _______ _______ _____ _____    ______ ____
ROOT
ATOM      1  C   UNL     1      47.369   4.428  14.802  0.00  0.00    +0.000 C 
ENDROOT
BRANCH   1   2
ATOM      2  C   UNL     1      46.452   4.444  13.614  0.00  0.00    +0.000 A 
ATOM      3  C   UNL     1      45.998   3.244  13.052  0.00  0.00    +0.000 A 
ATOM      4  C   UNL     1      45.111   3.256  11.972  0.00  0.00    +0.000 A 
ATOM      5  C   UNL     1      44.664   4.471  11.433  0.00  0.00    +0.000 A 
ATOM      6  C   UNL     1      45.129   5.669  11.991  0.00  0.00    +0.000 A 
ATOM      7  C   UNL     1      46.017   5.657  13.066  0.00  0.00    +0.000 A 
BRANCH   5   8
ATOM      8  C   UNL     1      43.710   4.508  10.262  0.00  0.00    +0.000 C 
BRANCH   8   9
ATOM      9  N   UNL     1      44.126   3.593   9.205  0.00  0.00    +0.000 NA
ATOM     10  H   UNL     1      43.325   3.384   8.611  0.00  0.00    +0.000 HD
BRANCH   9  11
ATOM     11  C   UNL     1      45.186   4.179   8.387  0.00  0.00    +0.000 C 
BRANCH  11  12
ATOM     12  C   UNL     1      46.029   3.098   7.760  0.00  0.00    +0.000 A 
ATOM     13  C   UNL     1      46.089   1.811   8.299  0.00  0.00    +0.000 A 
ATOM     14  C   UNL     1      46.880   0.862   7.668  0.00  0.00    +0.000 A 
ATOM     15  N   UNL     1      47.605   1.104   6.555  0.00  0.00    +0.000 NA
ATOM     16  C   UNL     1      47.537   2.355   6.051  0.00  0.00    +0.000 A 
ATOM     17  C   UNL     1      46.772   3.367   6.605  0.00  0.00    +0.000 A 
ENDBRANCH  11  12
ENDBRANCH   9  11
ENDBRANCH   8   9
ENDBRANCH   5   8
ENDBRANCH   1   2
BRANCH   1  20
ATOM     18  C   UNL     1      48.646   5.901  16.251  0.00  0.00    +0.000 C 
ATOM     19  O   UNL     1      49.341   4.952  16.598  0.00  0.00    +0.000 OA
ATOM     20  N   UNL     1      47.618   5.736  15.347  0.00  0.00    +0.000 N 
ATOM     21  H   UNL     1      47.082   6.554  15.075  0.00  0.00    +0.000 HD
BRANCH  18  25
ATOM     22  C   UNL     1      50.069  10.538  16.316  0.00  0.00    +0.000 C 
ATOM     23  N   UNL     1      49.463   9.308  16.771  0.00  0.00    +0.000 N 
ATOM     24  N   UNL     1      49.495   8.194  16.007  0.00  0.00    +0.000 NA
ATOM     25  C   UNL     1      48.835   7.270  16.751  0.00  0.00    +0.000 A 
ATOM     26  C   UNL     1      48.392   7.824  17.996  0.00  0.00    +0.000 A 
ATOM     27  C   UNL     1      47.710   7.482  19.158  0.00  0.00    +0.000 A 
ATOM     28 CL   UNL     1      47.099   5.928  19.434  0.00  0.00    +0.000 Cl
ATOM     29  N   UNL     1      47.496   8.370  20.145  0.00  0.00    +0.000 NA
ATOM     30  C   UNL     1      47.967   9.611  19.967  0.00  0.00    +0.000 A 
ATOM     31  N   UNL     1      48.641  10.082  18.907  0.00  0.00    +0.000 NA
ATOM     32  C   UNL     1      48.819   9.142  17.961  0.00  0.00    +0.000 A 
ENDBRANCH  18  25
ENDBRANCH   1  20
TORSDOF 7
ENDMDL
MODEL 6
REMARK VINA RESULT:    -7.849      1.766      2.640
REMARK INTER + INTRA:         -11.910
REMARK INTER:                 -11.013
REMARK INTRA:                  -0.897
REMARK UNBOUND:                -0.850
REMARK  Name = 
REMARK  8 active torsions:
REMARK  status: ('A' for Active; 'I' for Inactive)
REMARK    1  A    between atoms: C_1  and  N_2
REMARK    2  A    between atoms: C_4  and  C_5
REMARK    3  A    between atoms: N_7  and  C_8
REMARK    4  A    between atoms: C_8  and  C_9
REMARK    5  A    between atoms: C_12  and  C_13
REMARK    6  A    between atoms: C_13  and  N_14
REMARK    7  A    between atoms: N_14  and  C_15
REMARK    8  A    between atoms: C_15  and  C_16
REMARK                            x       y       z     vdW  Elec       q    Type
REMARK                         _______ _______ _______ _____ _____    ______ ____
ROOT
ATOM      1  C   UNL     1      47.309   3.996  15.229  0.00  0.00    +0.000 C 
ENDROOT
BRANCH   1   2
ATOM      2  C   UNL     1      46.629   4.392  13.952  0.00  0.00    +0.000 A 
ATOM      3  C   UNL     1      46.699   5.714  13.492  0.00  0.00    +0.000 A 
ATOM      4  C   UNL     1      46.103   6.077  12.282  0.00  0.00    +0.000 A 
ATOM      5  C   UNL     1      45.422   5.124  11.509  0.00  0.00    +0.000 A 
ATOM      6  C   UNL     1      45.346   3.806  11.979  0.00  0.00    +0.000 A 
ATOM      7  C   UNL     1      45.938   3.444  13.189  0.00  0.00    +0.000 A 
BRANCH   5   8
ATOM      8  C   UNL     1      44.766   5.496  10.201  0.00  0.00    +0.000 C 
BRANCH   8   9
ATOM      9  N   UNL     1      45.554   5.041   9.060  0.00  0.00    +0.000 NA
ATOM     10  H   UNL     1      46.461   4.717   9.390  0.00  0.00    +0.000 HD
BRANCH   9  11
ATOM     11  C   UNL     1      44.884   3.948   8.358  0.00  0.00    +0.000 C 
BRANCH  11  12
ATOM     12  C   UNL     1      45.895   2.975   7.807  0.00  0.00    +0.000 A 
ATOM     13  C   UNL     1      45.965   1.656   8.263  0.00  0.00    +0.000 A 
ATOM     14  C   UNL     1      46.916   0.812   7.708  0.00  0.00    +0.000 A 
ATOM     15  N   UNL     1      47.787   1.185   6.747  0.00  0.00    +0.000 NA
ATOM     16  C   UNL     1      47.706   2.464   6.323  0.00  0.00    +0.000 A 
ATOM     17  C   UNL     1      46.788   3.380   6.809  0.00  0.00    +0.000 A 
ENDBRANCH  11  12
ENDBRANCH   9  11
ENDBRANCH   8   9
ENDBRANCH   5   8
ENDBRANCH   1   2
BRANCH   1  20
ATOM     18  C   UNL     1      48.628   5.251  16.838  0.00  0.00    +0.000 C 
ATOM     19  O   UNL     1      49.573   4.492  16.651  0.00  0.00    +0.000 OA
ATOM     20  N   UNL     1      47.435   5.080  16.167  0.00  0.00    +0.000 N 
ATOM     21  H   UNL     1      46.688   5.745  16.340  0.00  0.00    +0.000 HD
BRANCH  18  25
ATOM     22  C   UNL     1      47.557   7.973  20.708  0.00  0.00    +0.000 C 
ATOM     23  N   UNL     1      48.197   7.576  19.475  0.00  0.00    +0.000 N 
ATOM     24  N   UNL     1      47.879   6.410  18.872  0.00  0.00    +0.000 NA
ATOM     25  C   UNL     1      48.673   6.386  17.770  0.00  0.00    +0.000 A 
ATOM     26  C   UNL     1      49.491   7.560  17.693  0.00  0.00    +0.000 A 
ATOM     27  C   UNL     1      50.462   8.159  16.899  0.00  0.00    +0.000 A 
ATOM     28 CL   UNL     1      51.035   7.455  15.471  0.00  0.00    +0.000 Cl
ATOM     29  N   UNL     1      51.007   9.347  17.215  0.00  0.00    +0.000 NA
ATOM     30  C   UNL     1      50.577   9.940  18.338  0.00  0.00    +0.000 A 
ATOM     31  N   UNL     1      49.651   9.485  19.196  0.00  0.00    +0.000 NA
ATOM     32  C   UNL     1      49.150   8.295  18.817  0.00  0.00    +0.000 A 
ENDBRANCH  18  25
ENDBRANCH   1  20
TORSDOF 7
ENDMDL
MODEL 7
REMARK VINA RESULT:    -7.731      2.430      3.718
REMARK INTER + INTRA:         -11.744
REMARK INTER:                 -10.798
REMARK INTRA:                  -0.946
REMARK UNBOUND:                -0.850
REMARK  Name = 
REMARK  8 active torsions:
REMARK  status: ('A' for Active; 'I' for Inactive)
REMARK    1  A    between atoms: C_1  and  N_2
REMARK    2  A    between atoms: C_4  and  C_5
REMARK    3  A    between atoms: N_7  and  C_8
REMARK    4  A    between atoms: C_8  and  C_9
REMARK    5  A    between atoms: C_12  and  C_13
REMARK    6  A    between atoms: C_13  and  N_14
REMARK    7  A    between atoms: N_14  and  C_15
REMARK    8  A    between atoms: C_15  and  C_16
REMARK                            x       y       z     vdW  Elec       q    Type
REMARK                         _______ _______ _______ _____ _____    ______ ____
ROOT
ATOM      1  C   UNL     1      47.292   4.691  14.918  0.00  0.00    +0.000 C 
ENDROOT
BRANCH   1   2
ATOM      2  C   UNL     1      46.394   4.610  13.719  0.00  0.00    +0.000 A 
ATOM      3  C   UNL     1      46.096   3.370  13.139  0.00  0.00    +0.000 A 
ATOM      4  C   UNL     1      45.227   3.287  12.049  0.00  0.00    +0.000 A 
ATOM      5  C   UNL     1      44.641   4.445  11.516  0.00  0.00    +0.000 A 
ATOM      6  C   UNL     1      44.951   5.684  12.092  0.00  0.00    +0.000 A 
ATOM      7  C   UNL     1      45.822   5.767  13.179  0.00  0.00    +0.000 A 
BRANCH   5   8
ATOM      8  C   UNL     1      43.703   4.379  10.333  0.00  0.00    +0.000 C 
BRANCH   8   9
ATOM      9  N   UNL     1      44.104   3.340   9.391  0.00  0.00    +0.000 NA
ATOM     10  H   UNL     1      43.276   2.838   9.076  0.00  0.00    +0.000 HD
BRANCH   9  11
ATOM     11  C   UNL     1      44.784   3.914   8.231  0.00  0.00    +0.000 C 
BRANCH  11  12
ATOM     12  C   UNL     1      45.892   3.005   7.764  0.00  0.00    +0.000 A 
ATOM     13  C   UNL     1      46.909   3.463   6.923  0.00  0.00    +0.000 A 
ATOM     14  C   UNL     1      47.902   2.575   6.537  0.00  0.00    +0.000 A 
ATOM     15  N   UNL     1      47.950   1.282   6.924  0.00  0.00    +0.000 NA
ATOM     16  C   UNL     1      46.956   0.858   7.733  0.00  0.00    +0.000 A 
ATOM     17  C   UNL     1      45.927   1.669   8.178  0.00  0.00    +0.000 A 
ENDBRANCH  11  12
ENDBRANCH   9  11
ENDBRANCH   8   9
ENDBRANCH   5   8
ENDBRANCH   1   2
BRANCH   1  20
ATOM     18  C   UNL     1      48.917   6.147  15.987  0.00  0.00    +0.000 C 
ATOM     19  O   UNL     1      49.382   5.183  16.587  0.00  0.00    +0.000 OA
ATOM     20  N   UNL     1      47.854   6.000  15.121  0.00  0.00    +0.000 N 
ATOM     21  H   UNL     1      47.517   6.823  14.632  0.00  0.00    +0.000 HD
BRANCH  18  25
ATOM     22  C   UNL     1      50.413  10.215  18.166  0.00  0.00    +0.000 C 
ATOM     23  N   UNL     1      50.092   9.300  17.096  0.00  0.00    +0.000 N 
ATOM     24  N   UNL     1      49.604   8.067  17.359  0.00  0.00    +0.000 NA
ATOM     25  C   UNL     1      49.434   7.516  16.129  0.00  0.00    +0.000 A 
ATOM     26  C   UNL     1      49.821   8.425  15.092  0.00  0.00    +0.000 A 
ATOM     27  C   UNL     1      49.906   8.525  13.708  0.00  0.00    +0.000 A 
ATOM     28 CL   UNL     1      49.443   7.270  12.673  0.00  0.00    +0.000 Cl
ATOM     29  N   UNL     1      50.359   9.637  13.101  0.00  0.00    +0.000 NA
ATOM     30  C   UNL     1      50.732  10.656  13.887  0.00  0.00    +0.000 A 
ATOM     31  N   UNL     1      50.704  10.704  15.227  0.00  0.00    +0.000 NA
ATOM     32  C   UNL     1      50.241   9.561  15.766  0.00  0.00    +0.000 A 
ENDBRANCH  18  25
ENDBRANCH   1  20
TORSDOF 7
ENDMDL
MODEL 8
REMARK VINA RESULT:    -7.269      3.059      4.229
REMARK INTER + INTRA:         -11.093
REMARK INTER:                 -10.209
REMARK INTRA:                  -0.884
REMARK UNBOUND:                -0.850
REMARK  Name = 
REMARK  8 active torsions:
REMARK  status: ('A' for Active; 'I' for Inactive)
REMARK    1  A    between atoms: C_1  and  N_2
REMARK    2  A    between atoms: C_4  and  C_5
REMARK    3  A    between atoms: N_7  and  C_8
REMARK    4  A    between atoms: C_8  and  C_9
REMARK    5  A    between atoms: C_12  and  C_13
REMARK    6  A    between atoms: C_13  and  N_14
REMARK    7  A    between atoms: N_14  and  C_15
REMARK    8  A    between atoms: C_15  and  C_16
REMARK                            x       y       z     vdW  Elec       q    Type
REMARK                         _______ _______ _______ _____ _____    ______ ____
ROOT
ATOM      1  C   UNL     1      46.141   8.199  13.116  0.00  0.00    +0.000 C 
ENDROOT
BRANCH   1   2
ATOM      2  C   UNL     1      45.554   6.948  12.534  0.00  0.00    +0.000 A 
ATOM      3  C   UNL     1      45.253   5.855  13.358  0.00  0.00    +0.000 A 
ATOM      4  C   UNL     1      44.668   4.704  12.826  0.00  0.00    +0.000 A 
ATOM      5  C   UNL     1      44.375   4.623  11.456  0.00  0.00    +0.000 A 
ATOM      6  C   UNL     1      44.688   5.713  10.633  0.00  0.00    +0.000 A 
ATOM      7  C   UNL     1      45.276   6.861  11.164  0.00  0.00    +0.000 A 
BRANCH   5   8
ATOM      8  C   UNL     1      43.747   3.386  10.858  0.00  0.00    +0.000 C 
BRANCH   8   9
ATOM      9  N   UNL     1      44.753   2.380  10.534  0.00  0.00    +0.000 NA
ATOM     10  H   UNL     1      44.705   1.628  11.220  0.00  0.00    +0.000 HD
BRANCH   9  11
ATOM     11  C   UNL     1      44.533   1.824   9.201  0.00  0.00    +0.000 C 
BRANCH  11  12
ATOM     12  C   UNL     1      45.719   2.098   8.311  0.00  0.00    +0.000 A 
ATOM     13  C   UNL     1      46.571   1.074   7.891  0.00  0.00    +0.000 A 
ATOM     14  C   UNL     1      47.640   1.396   7.067  0.00  0.00    +0.000 A 
ATOM     15  N   UNL     1      47.914   2.647   6.641  0.00  0.00    +0.000 NA
ATOM     16  C   UNL     1      47.080   3.623   7.060  0.00  0.00    +0.000 A 
ATOM     17  C   UNL     1      45.985   3.401   7.876  0.00  0.00    +0.000 A 
ENDBRANCH  11  12
ENDBRANCH   9  11
ENDBRANCH   8   9
ENDBRANCH   5   8
ENDBRANCH   1   2
BRANCH   1  20
ATOM     18  C   UNL     1      48.485   7.633  13.414  0.00  0.00    +0.000 C 
ATOM     19  O   UNL     1      48.616   7.550  12.197  0.00  0.00    +0.000 OA
ATOM     20  N   UNL     1      47.268   7.953  13.977  0.00  0.00    +0.000 N 
ATOM     21  H   UNL     1      47.212   8.029  14.988  0.00  0.00    +0.000 HD
BRANCH  18  25
ATOM     22  C   UNL     1      50.884   5.755  17.189  0.00  0.00    +0.000 C 
ATOM     23  N   UNL     1      50.630   6.573  16.025  0.00  0.00    +0.000 N 
ATOM     24  N   UNL     1      49.442   6.520  15.385  0.00  0.00    +0.000 NA
ATOM     25  C   UNL     1      49.582   7.405  14.365  0.00  0.00    +0.000 A 
ATOM     26  C   UNL     1      50.878   8.015  14.379  0.00  0.00    +0.000 A 
ATOM     27  C   UNL     1      51.653   8.941  13.690  0.00  0.00    +0.000 A 
ATOM     28 CL   UNL     1      51.086   9.775  12.333  0.00  0.00    +0.000 Cl
ATOM     29  N   UNL     1      52.910   9.238  14.067  0.00  0.00    +0.000 NA
ATOM     30  C   UNL     1      53.395   8.601  15.140  0.00  0.00    +0.000 A 
ATOM     31  N   UNL     1      52.769   7.691  15.901  0.00  0.00    +0.000 NA
ATOM     32  C   UNL     1      51.519   7.444  15.468  0.00  0.00    +0.000 A 
ENDBRANCH  18  25
ENDBRANCH   1  20
TORSDOF 7
ENDMDL
MODEL 9
REMARK VINA RESULT:    -7.108      2.294      2.960
REMARK INTER + INTRA:         -10.867
REMARK INTER:                 -10.541
REMARK INTRA:                  -0.326
REMARK UNBOUND:                -0.850
REMARK  Name = 
REMARK  8 active torsions:
REMARK  status: ('A' for Active; 'I' for Inactive)
REMARK    1  A    between atoms: C_1  and  N_2
REMARK    2  A    between atoms: C_4  and  C_5
REMARK    3  A    between atoms: N_7  and  C_8
REMARK    4  A    between atoms: C_8  and  C_9
REMARK    5  A    between atoms: C_12  and  C_13
REMARK    6  A    between atoms: C_13  and  N_14
REMARK    7  A    between atoms: N_14  and  C_15
REMARK    8  A    between atoms: C_15  and  C_16
REMARK                            x       y       z     vdW  Elec       q    Type
REMARK                         _______ _______ _______ _____ _____    ______ ____
ROOT
ATOM      1  C   UNL     1      45.322   8.121  12.086  0.00  0.00    +0.000 C 
ENDROOT
BRANCH   1   2
ATOM      2  C   UNL     1      44.898   6.714  11.788  0.00  0.00    +0.000 A 
ATOM      3  C   UNL     1      43.552   6.415  11.541  0.00  0.00    +0.000 A 
ATOM      4  C   UNL     1      43.159   5.113  11.223  0.00  0.00    +0.000 A 
ATOM      5  C   UNL     1      44.108   4.082  11.148  0.00  0.00    +0.000 A 
ATOM      6  C   UNL     1      45.452   4.383  11.406  0.00  0.00    +0.000 A 
ATOM      7  C   UNL     1      45.843   5.682  11.728  0.00  0.00    +0.000 A 
BRANCH   5   8
ATOM      8  C   UNL     1      43.705   2.666  10.810  0.00  0.00    +0.000 C 
BRANCH   8   9
ATOM      9  N   UNL     1      43.940   2.365   9.402  0.00  0.00    +0.000 NA
ATOM     10  H   UNL     1      43.046   2.342   8.914  0.00  0.00    +0.000 HD
BRANCH   9  11
ATOM     11  C   UNL     1      44.795   3.375   8.782  0.00  0.00    +0.000 C 
BRANCH  11  12
ATOM     12  C   UNL     1      45.927   2.721   8.031  0.00  0.00    +0.000 A 
ATOM     13  C   UNL     1      46.799   3.463   7.231  0.00  0.00    +0.000 A 
ATOM     14  C   UNL     1      47.823   2.798   6.572  0.00  0.00    +0.000 A 
ATOM     15  N   UNL     1      48.033   1.467   6.653  0.00  0.00    +0.000 NA
ATOM     16  C   UNL     1      47.177   0.767   7.428  0.00  0.00    +0.000 A 
ATOM     17  C   UNL     1      46.130   1.340   8.130  0.00  0.00    +0.000 A 
ENDBRANCH  11  12
ENDBRANCH   9  11
ENDBRANCH   8   9
ENDBRANCH   5   8
ENDBRANCH   1   2
BRANCH   1  20
ATOM     18  C   UNL     1      47.518   8.512  13.049  0.00  0.00    +0.000 C 
ATOM     19  O   UNL     1      47.980   8.672  11.924  0.00  0.00    +0.000 OA
ATOM     20  N   UNL     1      46.182   8.226  13.235  0.00  0.00    +0.000 N 
ATOM     21  H   UNL     1      45.842   8.123  14.186  0.00  0.00    +0.000 HD
BRANCH  18  25
ATOM     22  C   UNL     1      50.223  10.521  16.539  0.00  0.00    +0.000 C 
ATOM     23  N   UNL     1      49.509   9.501  15.807  0.00  0.00    +0.000 N 
ATOM     24  N   UNL     1      48.864   9.795  14.657  0.00  0.00    +0.000 NA
ATOM     25  C   UNL     1      48.322   8.609  14.275  0.00  0.00    +0.000 A 
ATOM     26  C   UNL     1      48.643   7.567  15.205  0.00  0.00    +0.000 A 
ATOM     27  C   UNL     1      48.441   6.210  15.430  0.00  0.00    +0.000 A 
ATOM     28 CL   UNL     1      47.547   5.233  14.379  0.00  0.00    +0.000 Cl
ATOM     29  N   UNL     1      48.955   5.584  16.505  0.00  0.00    +0.000 NA
ATOM     30  C   UNL     1      49.673   6.322  17.360  0.00  0.00    +0.000 A 
ATOM     31  N   UNL     1      49.951   7.632  17.273  0.00  0.00    +0.000 NA
ATOM     32  C   UNL     1      49.408   8.193  16.177  0.00  0.00    +0.000 A 
ENDBRANCH  18  25
ENDBRANCH   1  20
TORSDOF 7
ENDMDL
