MODEL 1
REMARK VINA RESULT:    -7.705      0.000      0.000
REMARK INTER + INTRA:         -10.608
REMARK INTER:                  -9.957
REMARK INTRA:                  -0.652
REMARK UNBOUND:                -0.652
REMARK  Name = 
REMARK  6 active torsions:
REMARK  status: ('A' for Active; 'I' for Inactive)
REMARK    1  A    between atoms: C_1  and  C_2
REMARK    2  A    between atoms: C_2  and  C_3
REMARK    3  A    between atoms: C_2  and  C_14
REMARK    4  A    between atoms: C_3  and  N_4
REMARK    5  A    between atoms: C_8  and  C_9
REMARK    6  A    between atoms: C_18  and  C_19
REMARK                            x       y       z     vdW  Elec       q    Type
REMARK                         _______ _______ _______ _____ _____    ______ ____
ROOT
ATOM      1  N   UNL     1      43.929   3.317  10.355  0.00  0.00    +0.000 N 
ATOM      2  C   UNL     1      44.886   3.116   9.346  0.00  0.00    +0.000 A 
ATOM      3  C   UNL     1      45.335   1.818   9.058  0.00  0.00    +0.000 A 
ATOM      4  N   UNL     1      46.213   1.512   8.066  0.00  0.00    +0.000 NA
ATOM      5  C   UNL     1      46.658   2.590   7.366  0.00  0.00    +0.000 A 
ATOM      6  C   UNL     1      46.261   3.884   7.662  0.00  0.00    +0.000 A 
ATOM      7  N   UNL     1      45.378   4.167   8.654  0.00  0.00    +0.000 NA
ATOM      8  H   UNL     1      43.124   2.726  10.165  0.00  0.00    +0.000 HD
ENDROOT
BRANCH   5   9
ATOM      9  C   UNL     1      47.568   2.353   6.213  0.00  0.00    +0.000 C 
ATOM     10  N   UNL     1      47.470   3.244   5.178  0.00  0.00    +0.000 N 
ATOM     11  O   UNL     1      48.369   1.427   6.194  0.00  0.00    +0.000 OA
ATOM     12  H   UNL     1      46.811   4.012   5.225  0.00  0.00    +0.000 HD
ATOM     13  H   UNL     1      48.086   3.146   4.384  0.00  0.00    +0.000 HD
ENDBRANCH   5   9
BRANCH   1  14
ATOM     14  C   UNL     1      43.524   4.710  10.518  0.00  0.00    +0.000 C 
BRANCH  14  16
ATOM     15  C   UNL     1      42.760   5.257  12.913  0.00  0.00    +0.000 C 
ATOM     16  C   UNL     1      43.873   5.103  11.921  0.00  0.00    +0.000 C 
BRANCH  16  17
ATOM     17  C   UNL     1      45.229   5.567  12.267  0.00  0.00    +0.000 A 
ATOM     18  C   UNL     1      45.945   6.444  11.443  0.00  0.00    +0.000 A 
ATOM     19  C   UNL     1      47.248   6.834  11.774  0.00  0.00    +0.000 A 
ATOM     20  C   UNL     1      47.844   6.361  12.942  0.00  0.00    +0.000 A 
ATOM     21  C   UNL     1      47.134   5.504  13.783  0.00  0.00    +0.000 A 
ATOM     22  C   UNL     1      45.836   5.105  13.442  0.00  0.00    +0.000 A 
BRANCH  21  23
ATOM     23  C   UNL     1      47.723   5.027  14.993  0.00  0.00    +0.000 C 
ATOM     24  N   UNL     1      48.186   4.631  15.981  0.00  0.00    +0.000 NA
ENDBRANCH  21  23
ENDBRANCH  16  17
ENDBRANCH  14  16
ENDBRANCH   1  14
TORSDOF 5
ENDMDL
MODEL 2
REMARK VINA RESULT:    -7.171      3.075      6.249
REMARK INTER + INTRA:          -9.918
REMARK INTER:                  -9.279
REMARK INTRA:                  -0.640
REMARK UNBOUND:                -0.652
REMARK  Name = 
REMARK  6 active torsions:
REMARK  status: ('A' for Active; 'I' for Inactive)
REMARK    1  A    between atoms: C_1  and  C_2
REMARK    2  A    between atoms: C_2  and  C_3
REMARK    3  A    between atoms: C_2  and  C_14
REMARK    4  A    between atoms: C_3  and  N_4
REMARK    5  A    between atoms: C_8  and  C_9
REMARK    6  A    between atoms: C_18  and  C_19
REMARK                            x       y       z     vdW  Elec       q    Type
REMARK                         _______ _______ _______ _____ _____    ______ ____
ROOT
ATOM      1  N   UNL     1      44.973   4.597  13.044  0.00  0.00    +0.000 N 
ATOM      2  C   UNL     1      46.126   5.401  13.029  0.00  0.00    +0.000 A 
ATOM      3  C   UNL     1      47.121   5.212  13.999  0.00  0.00    +0.000 A 
ATOM      4  N   UNL     1      48.296   5.895  14.038  0.00  0.00    +0.000 NA
ATOM      5  C   UNL     1      48.431   6.823  13.052  0.00  0.00    +0.000 A 
ATOM      6  C   UNL     1      47.442   7.055  12.110  0.00  0.00    +0.000 A 
ATOM      7  N   UNL     1      46.279   6.356  12.086  0.00  0.00    +0.000 NA
ATOM      8  H   UNL     1      45.255   3.620  13.039  0.00  0.00    +0.000 HD
ENDROOT
BRANCH   5   9
ATOM      9  C   UNL     1      49.712   7.575  12.964  0.00  0.00    +0.000 C 
ATOM     10  N   UNL     1      50.476   7.332  11.855  0.00  0.00    +0.000 N 
ATOM     11  O   UNL     1      50.057   8.377  13.823  0.00  0.00    +0.000 OA
ATOM     12  H   UNL     1      50.161   6.676  11.150  0.00  0.00    +0.000 HD
ATOM     13  H   UNL     1      51.341   7.839  11.732  0.00  0.00    +0.000 HD
ENDBRANCH   5   9
BRANCH   1  14
ATOM     14  C   UNL     1      44.043   4.875  11.954  0.00  0.00    +0.000 C 
BRANCH  14  16
ATOM     15  C   UNL     1      43.250   2.446  11.659  0.00  0.00    +0.000 C 
ATOM     16  C   UNL     1      43.976   3.638  11.113  0.00  0.00    +0.000 C 
BRANCH  16  17
ATOM     17  C   UNL     1      44.800   3.498   9.897  0.00  0.00    +0.000 A 
ATOM     18  C   UNL     1      45.169   4.603   9.121  0.00  0.00    +0.000 A 
ATOM     19  C   UNL     1      45.915   4.437   7.948  0.00  0.00    +0.000 A 
ATOM     20  C   UNL     1      46.311   3.162   7.546  0.00  0.00    +0.000 A 
ATOM     21  C   UNL     1      45.967   2.054   8.322  0.00  0.00    +0.000 A 
ATOM     22  C   UNL     1      45.210   2.223   9.487  0.00  0.00    +0.000 A 
BRANCH  21  23
ATOM     23  C   UNL     1      46.383   0.744   7.935  0.00  0.00    +0.000 C 
ATOM     24  N   UNL     1      46.706  -0.322   7.609  0.00  0.00    +0.000 NA
ENDBRANCH  21  23
ENDBRANCH  16  17
ENDBRANCH  14  16
ENDBRANCH   1  14
TORSDOF 5
ENDMDL
MODEL 3
REMARK VINA RESULT:    -7.163      2.028      2.545
REMARK INTER + INTRA:          -9.909
REMARK INTER:                  -9.324
REMARK INTRA:                  -0.584
REMARK UNBOUND:                -0.652
REMARK  Name = 
REMARK  6 active torsions:
REMARK  status: ('A' for Active; 'I' for Inactive)
REMARK    1  A    between atoms: C_1  and  C_2
REMARK    2  A    between atoms: C_2  and  C_3
REMARK    3  A    between atoms: C_2  and  C_14
REMARK    4  A    between atoms: C_3  and  N_4
REMARK    5  A    between atoms: C_8  and  C_9
REMARK    6  A    between atoms: C_18  and  C_19
REMARK                            x       y       z     vdW  Elec       q    Type
REMARK                         _______ _______ _______ _____ _____    ______ ____
ROOT
ATOM      1  N   UNL     1      43.865   3.386  10.458  0.00  0.00    +0.000 N 
ATOM      2  C   UNL     1      44.796   3.229   9.417  0.00  0.00    +0.000 A 
ATOM      3  C   UNL     1      45.280   1.951   9.101  0.00  0.00    +0.000 A 
ATOM      4  N   UNL     1      46.137   1.685   8.079  0.00  0.00    +0.000 NA
ATOM      5  C   UNL     1      46.522   2.785   7.377  0.00  0.00    +0.000 A 
ATOM      6  C   UNL     1      46.089   4.061   7.700  0.00  0.00    +0.000 A 
ATOM      7  N   UNL     1      45.229   4.303   8.722  0.00  0.00    +0.000 NA
ATOM      8  H   UNL     1      43.075   2.769  10.287  0.00  0.00    +0.000 HD
ENDROOT
BRANCH   5   9
ATOM      9  C   UNL     1      47.402   2.592   6.193  0.00  0.00    +0.000 C 
ATOM     10  N   UNL     1      48.647   2.082   6.447  0.00  0.00    +0.000 N 
ATOM     11  O   UNL     1      47.032   2.858   5.056  0.00  0.00    +0.000 OA
ATOM     12  H   UNL     1      48.924   1.856   7.395  0.00  0.00    +0.000 HD
ATOM     13  H   UNL     1      49.273   1.904   5.674  0.00  0.00    +0.000 HD
ENDBRANCH   5   9
BRANCH   1  14
ATOM     14  C   UNL     1      43.417   4.762  10.649  0.00  0.00    +0.000 C 
BRANCH  14  16
ATOM     15  C   UNL     1      43.067   4.913  13.193  0.00  0.00    +0.000 C 
ATOM     16  C   UNL     1      43.915   5.200  11.992  0.00  0.00    +0.000 C 
BRANCH  16  17
ATOM     17  C   UNL     1      45.077   6.100  12.116  0.00  0.00    +0.000 A 
ATOM     18  C   UNL     1      46.362   5.618  12.395  0.00  0.00    +0.000 A 
ATOM     19  C   UNL     1      47.439   6.499  12.551  0.00  0.00    +0.000 A 
ATOM     20  C   UNL     1      47.244   7.872  12.415  0.00  0.00    +0.000 A 
ATOM     21  C   UNL     1      45.973   8.364  12.115  0.00  0.00    +0.000 A 
ATOM     22  C   UNL     1      44.896   7.481  11.973  0.00  0.00    +0.000 A 
BRANCH  21  23
ATOM     23  C   UNL     1      45.761   9.767  11.953  0.00  0.00    +0.000 C 
ATOM     24  N   UNL     1      45.593  10.906  11.803  0.00  0.00    +0.000 NA
ENDBRANCH  21  23
ENDBRANCH  16  17
ENDBRANCH  14  16
ENDBRANCH   1  14
TORSDOF 5
ENDMDL
MODEL 4
REMARK VINA RESULT:    -6.777      3.422      7.477
REMARK INTER + INTRA:          -9.409
REMARK INTER:                  -8.991
REMARK INTRA:                  -0.418
REMARK UNBOUND:                -0.652
REMARK  Name = 
REMARK  6 active torsions:
REMARK  status: ('A' for Active; 'I' for Inactive)
REMARK    1  A    between atoms: C_1  and  C_2
REMARK    2  A    between atoms: C_2  and  C_3
REMARK    3  A    between atoms: C_2  and  C_14
REMARK    4  A    between atoms: C_3  and  N_4
REMARK    5  A    between atoms: C_8  and  C_9
REMARK    6  A    between atoms: C_18  and  C_19
REMARK                            x       y       z     vdW  Elec       q    Type
REMARK                         _______ _______ _______ _____ _____    ______ ____
ROOT
ATOM      1  N   UNL     1      46.128   4.771  12.725  0.00  0.00    +0.000 N 
ATOM      2  C   UNL     1      46.827   4.743  13.944  0.00  0.00    +0.000 A 
ATOM      3  C   UNL     1      47.646   5.824  14.303  0.00  0.00    +0.000 A 
ATOM      4  N   UNL     1      48.318   5.920  15.481  0.00  0.00    +0.000 NA
ATOM      5  C   UNL     1      48.153   4.849  16.303  0.00  0.00    +0.000 A 
ATOM      6  C   UNL     1      47.383   3.752  15.949  0.00  0.00    +0.000 A 
ATOM      7  N   UNL     1      46.716   3.680  14.769  0.00  0.00    +0.000 NA
ATOM      8  H   UNL     1      45.580   5.627  12.681  0.00  0.00    +0.000 HD
ENDROOT
BRANCH   5   9
ATOM      9  C   UNL     1      48.789   4.888  17.648  0.00  0.00    +0.000 C 
ATOM     10  N   UNL     1      48.013   4.465  18.692  0.00  0.00    +0.000 N 
ATOM     11  O   UNL     1      49.944   5.262  17.811  0.00  0.00    +0.000 OA
ATOM     12  H   UNL     1      47.066   4.145  18.529  0.00  0.00    +0.000 HD
ATOM     13  H   UNL     1      48.407   4.444  19.622  0.00  0.00    +0.000 HD
ENDBRANCH   5   9
BRANCH   1  14
ATOM     14  C   UNL     1      45.283   3.602  12.500  0.00  0.00    +0.000 C 
BRANCH  14  16
ATOM     15  C   UNL     1      43.056   4.076  11.304  0.00  0.00    +0.000 C 
ATOM     16  C   UNL     1      44.534   3.844  11.226  0.00  0.00    +0.000 C 
BRANCH  16  17
ATOM     17  C   UNL     1      45.170   3.620   9.914  0.00  0.00    +0.000 A 
ATOM     18  C   UNL     1      45.436   4.673   9.030  0.00  0.00    +0.000 A 
ATOM     19  C   UNL     1      46.001   4.426   7.773  0.00  0.00    +0.000 A 
ATOM     20  C   UNL     1      46.320   3.123   7.393  0.00  0.00    +0.000 A 
ATOM     21  C   UNL     1      46.080   2.068   8.274  0.00  0.00    +0.000 A 
ATOM     22  C   UNL     1      45.503   2.317   9.525  0.00  0.00    +0.000 A 
BRANCH  21  23
ATOM     23  C   UNL     1      46.420   0.730   7.908  0.00  0.00    +0.000 C 
ATOM     24  N   UNL     1      46.708  -0.351   7.598  0.00  0.00    +0.000 NA
ENDBRANCH  21  23
ENDBRANCH  16  17
ENDBRANCH  14  16
ENDBRANCH   1  14
TORSDOF 5
ENDMDL
MODEL 5
REMARK VINA RESULT:    -6.282      3.491      7.730
REMARK INTER + INTRA:          -8.770
REMARK INTER:                  -8.389
REMARK INTRA:                  -0.381
REMARK UNBOUND:                -0.652
REMARK  Name = 
REMARK  6 active torsions:
REMARK  status: ('A' for Active; 'I' for Inactive)
REMARK    1  A    between atoms: C_1  and  C_2
REMARK    2  A    between atoms: C_2  and  C_3
REMARK    3  A    between atoms: C_2  and  C_14
REMARK    4  A    between atoms: C_3  and  N_4
REMARK    5  A    between atoms: C_8  and  C_9
REMARK    6  A    between atoms: C_18  and  C_19
REMARK                            x       y       z     vdW  Elec       q    Type
REMARK                         _______ _______ _______ _____ _____    ______ ____
ROOT
ATOM      1  N   UNL     1      46.543   5.977  13.703  0.00  0.00    +0.000 N 
ATOM      2  C   UNL     1      47.237   5.373  14.765  0.00  0.00    +0.000 A 
ATOM      3  C   UNL     1      48.370   6.001  15.305  0.00  0.00    +0.000 A 
ATOM      4  N   UNL     1      49.076   5.529  16.367  0.00  0.00    +0.000 NA
ATOM      5  C   UNL     1      48.606   4.355  16.870  0.00  0.00    +0.000 A 
ATOM      6  C   UNL     1      47.515   3.698  16.324  0.00  0.00    +0.000 A 
ATOM      7  N   UNL     1      46.821   4.190  15.266  0.00  0.00    +0.000 NA
ATOM      8  H   UNL     1      46.296   6.926  13.971  0.00  0.00    +0.000 HD
ENDROOT
BRANCH   5   9
ATOM      9  C   UNL     1      49.266   3.793  18.079  0.00  0.00    +0.000 C 
ATOM     10  N   UNL     1      49.911   2.597  17.910  0.00  0.00    +0.000 N 
ATOM     11  O   UNL     1      49.248   4.370  19.158  0.00  0.00    +0.000 OA
ATOM     12  H   UNL     1      49.924   2.147  17.002  0.00  0.00    +0.000 HD
ATOM     13  H   UNL     1      50.400   2.187  18.692  0.00  0.00    +0.000 HD
ENDBRANCH   5   9
BRANCH   1  14
ATOM     14  C   UNL     1      45.363   5.236  13.269  0.00  0.00    +0.000 C 
BRANCH  14  16
ATOM     15  C   UNL     1      44.843   7.000  11.472  0.00  0.00    +0.000 C 
ATOM     16  C   UNL     1      45.140   5.576  11.828  0.00  0.00    +0.000 C 
BRANCH  16  17
ATOM     17  C   UNL     1      44.971   4.519  10.813  0.00  0.00    +0.000 A 
ATOM     18  C   UNL     1      44.204   3.373  11.057  0.00  0.00    +0.000 A 
ATOM     19  C   UNL     1      44.096   2.365  10.092  0.00  0.00    +0.000 A 
ATOM     20  C   UNL     1      44.744   2.499   8.865  0.00  0.00    +0.000 A 
ATOM     21  C   UNL     1      45.494   3.646   8.601  0.00  0.00    +0.000 A 
ATOM     22  C   UNL     1      45.611   4.646   9.574  0.00  0.00    +0.000 A 
BRANCH  21  23
ATOM     23  C   UNL     1      46.147   3.807   7.342  0.00  0.00    +0.000 C 
ATOM     24  N   UNL     1      46.677   3.921   6.315  0.00  0.00    +0.000 NA
ENDBRANCH  21  23
ENDBRANCH  16  17
ENDBRANCH  14  16
ENDBRANCH   1  14
TORSDOF 5
ENDMDL
MODEL 6
REMARK VINA RESULT:    -6.260      3.203      7.410
REMARK INTER + INTRA:          -8.742
REMARK INTER:                  -8.473
REMARK INTRA:                  -0.269
REMARK UNBOUND:                -0.652
REMARK  Name = 
REMARK  6 active torsions:
REMARK  status: ('A' for Active; 'I' for Inactive)
REMARK    1  A    between atoms: C_1  and  C_2
REMARK    2  A    between atoms: C_2  and  C_3
REMARK    3  A    between atoms: C_2  and  C_14
REMARK    4  A    between atoms: C_3  and  N_4
REMARK    5  A    between atoms: C_8  and  C_9
REMARK    6  A    between atoms: C_18  and  C_19
REMARK                            x       y       z     vdW  Elec       q    Type
REMARK                         _______ _______ _______ _____ _____    ______ ____
ROOT
ATOM      1  N   UNL     1      48.423   7.323  13.431  0.00  0.00    +0.000 N 
ATOM      2  C   UNL     1      48.195   6.349  14.418  0.00  0.00    +0.000 A 
ATOM      3  C   UNL     1      48.660   6.557  15.725  0.00  0.00    +0.000 A 
ATOM      4  N   UNL     1      48.443   5.705  16.762  0.00  0.00    +0.000 NA
ATOM      5  C   UNL     1      47.742   4.588  16.426  0.00  0.00    +0.000 A 
ATOM      6  C   UNL     1      47.311   4.343  15.132  0.00  0.00    +0.000 A 
ATOM      7  N   UNL     1      47.534   5.211  14.112  0.00  0.00    +0.000 NA
ATOM      8  H   UNL     1      48.071   8.217  13.766  0.00  0.00    +0.000 HD
ENDROOT
BRANCH   5   9
ATOM      9  C   UNL     1      47.389   3.627  17.505  0.00  0.00    +0.000 C 
ATOM     10  N   UNL     1      48.200   3.637  18.608  0.00  0.00    +0.000 N 
ATOM     11  O   UNL     1      46.421   2.881  17.422  0.00  0.00    +0.000 OA
ATOM     12  H   UNL     1      48.985   4.275  18.659  0.00  0.00    +0.000 HD
ATOM     13  H   UNL     1      47.987   3.024  19.382  0.00  0.00    +0.000 HD
ENDBRANCH   5   9
BRANCH   1  14
ATOM     14  C   UNL     1      47.849   6.994  12.130  0.00  0.00    +0.000 C 
BRANCH  14  16
ATOM     15  C   UNL     1      46.038   8.680  12.832  0.00  0.00    +0.000 C 
ATOM     16  C   UNL     1      46.403   7.381  12.182  0.00  0.00    +0.000 C 
BRANCH  16  17
ATOM     17  C   UNL     1      45.344   6.415  11.833  0.00  0.00    +0.000 A 
ATOM     18  C   UNL     1      44.250   6.178  12.675  0.00  0.00    +0.000 A 
ATOM     19  C   UNL     1      43.283   5.224  12.339  0.00  0.00    +0.000 A 
ATOM     20  C   UNL     1      43.391   4.507  11.149  0.00  0.00    +0.000 A 
ATOM     21  C   UNL     1      44.464   4.749  10.290  0.00  0.00    +0.000 A 
ATOM     22  C   UNL     1      45.437   5.695  10.636  0.00  0.00    +0.000 A 
BRANCH  21  23
ATOM     23  C   UNL     1      44.579   4.038   9.058  0.00  0.00    +0.000 C 
ATOM     24  N   UNL     1      44.689   3.463   8.055  0.00  0.00    +0.000 NA
ENDBRANCH  21  23
ENDBRANCH  16  17
ENDBRANCH  14  16
ENDBRANCH   1  14
TORSDOF 5
ENDMDL
MODEL 7
REMARK VINA RESULT:    -6.211      3.674      6.133
REMARK INTER + INTRA:          -8.678
REMARK INTER:                  -8.274
REMARK INTRA:                  -0.404
REMARK UNBOUND:                -0.652
REMARK  Name = 
REMARK  6 active torsions:
REMARK  status: ('A' for Active; 'I' for Inactive)
REMARK    1  A    between atoms: C_1  and  C_2
REMARK    2  A    between atoms: C_2  and  C_3
REMARK    3  A    between atoms: C_2  and  C_14
REMARK    4  A    between atoms: C_3  and  N_4
REMARK    5  A    between atoms: C_8  and  C_9
REMARK    6  A    between atoms: C_18  and  C_19
REMARK                            x       y       z     vdW  Elec       q    Type
REMARK                         _______ _______ _______ _____ _____    ______ ____
ROOT
ATOM      1  N   UNL     1      47.128   5.118  15.113  0.00  0.00    +0.000 N 
ATOM      2  C   UNL     1      46.437   4.866  13.915  0.00  0.00    +0.000 A 
ATOM      3  C   UNL     1      46.181   5.918  13.023  0.00  0.00    +0.000 A 
ATOM      4  N   UNL     1      45.572   5.770  11.816  0.00  0.00    +0.000 NA
ATOM      5  C   UNL     1      45.194   4.493  11.538  0.00  0.00    +0.000 A 
ATOM      6  C   UNL     1      45.398   3.448  12.424  0.00  0.00    +0.000 A 
ATOM      7  N   UNL     1      46.014   3.617  13.622  0.00  0.00    +0.000 NA
ATOM      8  H   UNL     1      48.006   5.582  14.893  0.00  0.00    +0.000 HD
ENDROOT
BRANCH   5   9
ATOM      9  C   UNL     1      44.584   4.213  10.210  0.00  0.00    +0.000 C 
ATOM     10  N   UNL     1      45.059   4.954   9.162  0.00  0.00    +0.000 N 
ATOM     11  O   UNL     1      43.719   3.360  10.058  0.00  0.00    +0.000 OA
ATOM     12  H   UNL     1      45.786   5.643   9.311  0.00  0.00    +0.000 HD
ATOM     13  H   UNL     1      44.699   4.782   8.234  0.00  0.00    +0.000 HD
ENDBRANCH   5   9
BRANCH   1  14
ATOM     14  C   UNL     1      47.359   3.927  15.925  0.00  0.00    +0.000 C 
BRANCH  14  16
ATOM     15  C   UNL     1      47.203   5.161  18.176  0.00  0.00    +0.000 C 
ATOM     16  C   UNL     1      48.019   4.384  17.189  0.00  0.00    +0.000 C 
BRANCH  16  17
ATOM     17  C   UNL     1      49.482   4.296  17.359  0.00  0.00    +0.000 A 
ATOM     18  C   UNL     1      50.302   5.431  17.328  0.00  0.00    +0.000 A 
ATOM     19  C   UNL     1      51.691   5.313  17.448  0.00  0.00    +0.000 A 
ATOM     20  C   UNL     1      52.275   4.058  17.615  0.00  0.00    +0.000 A 
ATOM     21  C   UNL     1      51.468   2.922  17.670  0.00  0.00    +0.000 A 
ATOM     22  C   UNL     1      50.080   3.042  17.536  0.00  0.00    +0.000 A 
BRANCH  21  23
ATOM     23  C   UNL     1      52.049   1.631  17.861  0.00  0.00    +0.000 C 
ATOM     24  N   UNL     1      52.511   0.580  18.031  0.00  0.00    +0.000 NA
ENDBRANCH  21  23
ENDBRANCH  16  17
ENDBRANCH  14  16
ENDBRANCH   1  14
TORSDOF 5
ENDMDL
MODEL 8
REMARK VINA RESULT:    -6.078      3.128      5.054
REMARK INTER + INTRA:          -8.506
REMARK INTER:                  -7.864
REMARK INTRA:                  -0.641
REMARK UNBOUND:                -0.652
REMARK  Name = 
REMARK  6 active torsions:
REMARK  status: ('A' for Active; 'I' for Inactive)
REMARK    1  A    between atoms: C_1  and  C_2
REMARK    2  A    between atoms: C_2  and  C_3
REMARK    3  A    between atoms: C_2  and  C_14
REMARK    4  A    between atoms: C_3  and  N_4
REMARK    5  A    between atoms: C_8  and  C_9
REMARK    6  A    between atoms: C_18  and  C_19
REMARK                            x       y       z     vdW  Elec       q    Type
REMARK                         _______ _______ _______ _____ _____    ______ ____
ROOT
ATOM      1  N   UNL     1      46.927   7.457  12.026  0.00  0.00    +0.000 N 
ATOM      2  C   UNL     1      46.124   6.330  11.780  0.00  0.00    +0.000 A 
ATOM      3  C   UNL     1      45.908   5.901  10.462  0.00  0.00    +0.000 A 
ATOM      4  N   UNL     1      45.197   4.793  10.122  0.00  0.00    +0.000 NA
ATOM      5  C   UNL     1      44.673   4.123  11.183  0.00  0.00    +0.000 A 
ATOM      6  C   UNL     1      44.838   4.554  12.490  0.00  0.00    +0.000 A 
ATOM      7  N   UNL     1      45.557   5.660  12.807  0.00  0.00    +0.000 NA
ATOM      8  H   UNL     1      47.827   7.323  11.573  0.00  0.00    +0.000 HD
ENDROOT
BRANCH   5   9
ATOM      9  C   UNL     1      43.937   2.856  10.922  0.00  0.00    +0.000 C 
ATOM     10  N   UNL     1      44.378   2.113   9.860  0.00  0.00    +0.000 N 
ATOM     11  O   UNL     1      43.003   2.489  11.624  0.00  0.00    +0.000 OA
ATOM     12  H   UNL     1      45.164   2.431   9.305  0.00  0.00    +0.000 HD
ATOM     13  H   UNL     1      43.932   1.230   9.658  0.00  0.00    +0.000 HD
ENDBRANCH   5   9
BRANCH   1  14
ATOM     14  C   UNL     1      47.099   7.764  13.443  0.00  0.00    +0.000 C 
BRANCH  14  16
ATOM     15  C   UNL     1      49.575   7.740  12.748  0.00  0.00    +0.000 C 
ATOM     16  C   UNL     1      48.527   7.467  13.782  0.00  0.00    +0.000 C 
BRANCH  16  17
ATOM     17  C   UNL     1      48.878   6.701  14.993  0.00  0.00    +0.000 A 
ATOM     18  C   UNL     1      50.072   6.924  15.691  0.00  0.00    +0.000 A 
ATOM     19  C   UNL     1      50.399   6.152  16.812  0.00  0.00    +0.000 A 
ATOM     20  C   UNL     1      49.529   5.158  17.256  0.00  0.00    +0.000 A 
ATOM     21  C   UNL     1      48.327   4.940  16.582  0.00  0.00    +0.000 A 
ATOM     22  C   UNL     1      48.008   5.705  15.453  0.00  0.00    +0.000 A 
BRANCH  21  23
ATOM     23  C   UNL     1      47.415   3.940  17.036  0.00  0.00    +0.000 C 
ATOM     24  N   UNL     1      46.661   3.139  17.408  0.00  0.00    +0.000 NA
ENDBRANCH  21  23
ENDBRANCH  16  17
ENDBRANCH  14  16
ENDBRANCH   1  14
TORSDOF 5
ENDMDL
MODEL 9
REMARK VINA RESULT:    -5.760      3.335      6.828
REMARK INTER + INTRA:          -8.095
REMARK INTER:                  -7.633
REMARK INTRA:                  -0.462
REMARK UNBOUND:                -0.652
REMARK  Name = 
REMARK  6 active torsions:
REMARK  status: ('A' for Active; 'I' for Inactive)
REMARK    1  A    between atoms: C_1  and  C_2
REMARK    2  A    between atoms: C_2  and  C_3
REMARK    3  A    between atoms: C_2  and  C_14
REMARK    4  A    between atoms: C_3  and  N_4
REMARK    5  A    between atoms: C_8  and  C_9
REMARK    6  A    between atoms: C_18  and  C_19
REMARK                            x       y       z     vdW  Elec       q    Type
REMARK                         _______ _______ _______ _____ _____    ______ ____
ROOT
ATOM      1  N   UNL     1      45.653   5.849  12.622  0.00  0.00    +0.000 N 
ATOM      2  C   UNL     1      46.911   6.383  12.949  0.00  0.00    +0.000 A 
ATOM      3  C   UNL     1      47.548   5.993  14.136  0.00  0.00    +0.000 A 
ATOM      4  N   UNL     1      48.787   6.406  14.514  0.00  0.00    +0.000 NA
ATOM      5  C   UNL     1      49.374   7.272  13.644  0.00  0.00    +0.000 A 
ATOM      6  C   UNL     1      48.744   7.703  12.487  0.00  0.00    +0.000 A 
ATOM      7  N   UNL     1      47.508   7.273  12.126  0.00  0.00    +0.000 NA
ATOM      8  H   UNL     1      45.712   4.834  12.645  0.00  0.00    +0.000 HD
ENDROOT
BRANCH   5   9
ATOM      9  C   UNL     1      50.761   7.727  13.931  0.00  0.00    +0.000 C 
ATOM     10  N   UNL     1      51.480   8.176  12.856  0.00  0.00    +0.000 N 
ATOM     11  O   UNL     1      51.228   7.718  15.063  0.00  0.00    +0.000 OA
ATOM     12  H   UNL     1      51.065   8.188  11.932  0.00  0.00    +0.000 HD
ATOM     13  H   UNL     1      52.417   8.524  13.002  0.00  0.00    +0.000 HD
ENDBRANCH   5   9
BRANCH   1  14
ATOM     14  C   UNL     1      45.128   6.310  11.341  0.00  0.00    +0.000 C 
BRANCH  14  16
ATOM     15  C   UNL     1      42.754   5.344  11.560  0.00  0.00    +0.000 C 
ATOM     16  C   UNL     1      44.101   5.310  10.906  0.00  0.00    +0.000 C 
BRANCH  16  17
ATOM     17  C   UNL     1      44.467   4.170  10.044  0.00  0.00    +0.000 A 
ATOM     18  C   UNL     1      44.113   2.854  10.366  0.00  0.00    +0.000 A 
ATOM     19  C   UNL     1      44.511   1.786   9.553  0.00  0.00    +0.000 A 
ATOM     20  C   UNL     1      45.255   2.026   8.399  0.00  0.00    +0.000 A 
ATOM     21  C   UNL     1      45.595   3.335   8.055  0.00  0.00    +0.000 A 
ATOM     22  C   UNL     1      45.207   4.399   8.878  0.00  0.00    +0.000 A 
BRANCH  21  23
ATOM     23  C   UNL     1      46.340   3.599   6.865  0.00  0.00    +0.000 C 
ATOM     24  N   UNL     1      46.955   3.799   5.902  0.00  0.00    +0.000 NA
ENDBRANCH  21  23
ENDBRANCH  16  17
ENDBRANCH  14  16
ENDBRANCH   1  14
TORSDOF 5
ENDMDL
