MODEL 1
REMARK VINA RESULT:    -7.315      0.000      0.000
REMARK INTER + INTRA:         -11.059
REMARK INTER:                 -10.308
REMARK INTRA:                  -0.751
REMARK UNBOUND:                -0.751
REMARK  Name = 
REMARK  8 active torsions:
REMARK  status: ('A' for Active; 'I' for Inactive)
REMARK    1  A    between atoms: O_1  and  C_2
REMARK    2  A    between atoms: C_2  and  C_3
REMARK    3  A    between atoms: N_8  and  C_9
REMARK    4  A    between atoms: C_9  and  C_10
REMARK    5  A    between atoms: C_10  and  C_11
REMARK    6  A    between atoms: C_13  and  N_14
REMARK    7  A    between atoms: N_14  and  C_15
REMARK    8  A    between atoms: C_18  and  O_19
REMARK                            x       y       z     vdW  Elec       q    Type
REMARK                         _______ _______ _______ _____ _____    ______ ____
ROOT
ATOM      1  C   UNL     1      44.649   5.181  12.891  0.00  0.00    +0.000 A 
ATOM      2  C   UNL     1      44.266   6.534  12.699  0.00  0.00    +0.000 A 
ATOM      3  C   UNL     1      45.214   7.568  12.688  0.00  0.00    +0.000 A 
ATOM      4  C   UNL     1      46.555   7.238  12.916  0.00  0.00    +0.000 A 
ATOM      5  C   UNL     1      46.954   5.915  13.108  0.00  0.00    +0.000 A 
ATOM      6  C   UNL     1      46.012   4.891  13.081  0.00  0.00    +0.000 A 
ATOM      7 CL   UNL     1      46.601   3.278  13.272  0.00  0.00    +0.000 Cl
ENDROOT
BRANCH   3   8
ATOM      8  N   UNL     1      44.908   8.924  12.480  0.00  0.00    +0.000 N 
ATOM      9  H   UNL     1      44.536   9.390  13.303  0.00  0.00    +0.000 HD
BRANCH   8  10
ATOM     10  C   UNL     1      44.902   9.704  11.280  0.00  0.00    +0.000 C 
ATOM     11  C   UNL     1      44.964  11.218  11.610  0.00  0.00    +0.000 C 
ATOM     12  C   UNL     1      43.444  11.314  11.408  0.00  0.00    +0.000 C 
ATOM     13  C   UNL     1      43.479   9.947  10.689  0.00  0.00    +0.000 C 
BRANCH  13  14
ATOM     14  O   UNL     1      43.377  10.004   9.248  0.00  0.00    +0.000 OA
ATOM     15  H   UNL     1      43.522  10.935   9.010  0.00  0.00    +0.000 HD
ENDBRANCH  13  14
ENDBRANCH   8  10
ENDBRANCH   3   8
BRANCH   1  16
ATOM     16  C   UNL     1      43.595   4.085  12.851  0.00  0.00    +0.000 C 
BRANCH  16  17
ATOM     17  C   UNL     1      43.698   3.228  11.583  0.00  0.00    +0.000 C 
BRANCH  17  23
ATOM     18  C   UNL     1      46.018   2.096   8.168  0.00  0.00    +0.000 A 
ATOM     19  C   UNL     1      46.607   3.154   7.485  0.00  0.00    +0.000 A 
ATOM     20  C   UNL     1      46.207   4.438   7.811  0.00  0.00    +0.000 A 
ATOM     21  N   UNL     1      45.286   4.739   8.763  0.00  0.00    +0.000 NA
ATOM     22  C   UNL     1      44.710   3.713   9.421  0.00  0.00    +0.000 A 
ATOM     23  N   UNL     1      43.752   4.054  10.375  0.00  0.00    +0.000 N 
ATOM     24  C   UNL     1      45.037   2.395   9.123  0.00  0.00    +0.000 A 
ATOM     25  H   UNL     1      43.831   5.057  10.519  0.00  0.00    +0.000 HD
BRANCH  18  26
ATOM     26  C   UNL     1      46.397   0.667   7.920  0.00  0.00    +0.000 C 
BRANCH  26  27
ATOM     27  O   UNL     1      47.135   0.603   6.707  0.00  0.00    +0.000 OA
ATOM     28  H   UNL     1      47.162  -0.330   6.441  0.00  0.00    +0.000 HD
ENDBRANCH  26  27
ENDBRANCH  18  26
ENDBRANCH  17  23
ENDBRANCH  16  17
ENDBRANCH   1  16
TORSDOF 8
ENDMDL
MODEL 2
REMARK VINA RESULT:    -6.791      3.213      7.288
REMARK INTER + INTRA:         -10.320
REMARK INTER:                  -9.661
REMARK INTRA:                  -0.660
REMARK UNBOUND:                -0.751
REMARK  Name = 
REMARK  8 active torsions:
REMARK  status: ('A' for Active; 'I' for Inactive)
REMARK    1  A    between atoms: O_1  and  C_2
REMARK    2  A    between atoms: C_2  and  C_3
REMARK    3  A    between atoms: N_8  and  C_9
REMARK    4  A    between atoms: C_9  and  C_10
REMARK    5  A    between atoms: C_10  and  C_11
REMARK    6  A    between atoms: C_13  and  N_14
REMARK    7  A    between atoms: N_14  and  C_15
REMARK    8  A    between atoms: C_18  and  O_19
REMARK                            x       y       z     vdW  Elec       q    Type
REMARK                         _______ _______ _______ _____ _____    ______ ____
ROOT
ATOM      1  C   UNL     1      44.475   5.210  10.987  0.00  0.00    +0.000 A 
ATOM      2  C   UNL     1      45.069   4.674   9.815  0.00  0.00    +0.000 A 
ATOM      3  C   UNL     1      44.873   3.336   9.443  0.00  0.00    +0.000 A 
ATOM      4  C   UNL     1      44.107   2.519  10.284  0.00  0.00    +0.000 A 
ATOM      5  C   UNL     1      43.516   3.025  11.441  0.00  0.00    +0.000 A 
ATOM      6  C   UNL     1      43.683   4.364  11.785  0.00  0.00    +0.000 A 
ATOM      7 CL   UNL     1      42.868   4.918  13.204  0.00  0.00    +0.000 Cl
ENDROOT
BRANCH   3   8
ATOM      8  N   UNL     1      45.411   2.746   8.286  0.00  0.00    +0.000 N 
ATOM      9  H   UNL     1      44.792   2.074   7.844  0.00  0.00    +0.000 HD
BRANCH   8  10
ATOM     10  C   UNL     1      46.724   2.833   7.721  0.00  0.00    +0.000 C 
ATOM     11  C   UNL     1      46.791   3.962   6.660  0.00  0.00    +0.000 C 
ATOM     12  C   UNL     1      46.629   2.913   5.548  0.00  0.00    +0.000 C 
ATOM     13  C   UNL     1      46.988   1.812   6.571  0.00  0.00    +0.000 C 
BRANCH  13  14
ATOM     14  O   UNL     1      48.330   1.285   6.468  0.00  0.00    +0.000 OA
ATOM     15  H   UNL     1      48.227   0.346   6.240  0.00  0.00    +0.000 HD
ENDBRANCH  13  14
ENDBRANCH   8  10
ENDBRANCH   3   8
BRANCH   1  16
ATOM     16  C   UNL     1      44.674   6.679  11.331  0.00  0.00    +0.000 C 
BRANCH  16  17
ATOM     17  C   UNL     1      45.667   6.873  12.484  0.00  0.00    +0.000 C 
BRANCH  17  23
ATOM     18  C   UNL     1      48.978   6.657  15.188  0.00  0.00    +0.000 A 
ATOM     19  C   UNL     1      50.099   7.380  14.798  0.00  0.00    +0.000 A 
ATOM     20  C   UNL     1      50.129   7.883  13.508  0.00  0.00    +0.000 A 
ATOM     21  N   UNL     1      49.132   7.729  12.599  0.00  0.00    +0.000 NA
ATOM     22  C   UNL     1      48.048   7.022  12.975  0.00  0.00    +0.000 A 
ATOM     23  N   UNL     1      47.053   6.863  12.011  0.00  0.00    +0.000 N 
ATOM     24  C   UNL     1      47.963   6.459  14.244  0.00  0.00    +0.000 A 
ATOM     25  H   UNL     1      47.276   7.505  11.257  0.00  0.00    +0.000 HD
BRANCH  18  26
ATOM     26  C   UNL     1      48.824   6.094  16.569  0.00  0.00    +0.000 C 
BRANCH  26  27
ATOM     27  O   UNL     1      49.570   4.887  16.646  0.00  0.00    +0.000 OA
ATOM     28  H   UNL     1      49.650   4.545  15.741  0.00  0.00    +0.000 HD
ENDBRANCH  26  27
ENDBRANCH  18  26
ENDBRANCH  17  23
ENDBRANCH  16  17
ENDBRANCH   1  16
TORSDOF 8
ENDMDL
MODEL 3
REMARK VINA RESULT:    -6.689      4.758      7.479
REMARK INTER + INTRA:         -10.176
REMARK INTER:                  -9.603
REMARK INTRA:                  -0.573
REMARK UNBOUND:                -0.751
REMARK  Name = 
REMARK  8 active torsions:
REMARK  status: ('A' for Active; 'I' for Inactive)
REMARK    1  A    between atoms: O_1  and  C_2
REMARK    2  A    between atoms: C_2  and  C_3
REMARK    3  A    between atoms: N_8  and  C_9
REMARK    4  A    between atoms: C_9  and  C_10
REMARK    5  A    between atoms: C_10  and  C_11
REMARK    6  A    between atoms: C_13  and  N_14
REMARK    7  A    between atoms: N_14  and  C_15
REMARK    8  A    between atoms: C_18  and  O_19
REMARK                            x       y       z     vdW  Elec       q    Type
REMARK                         _______ _______ _______ _____ _____    ______ ____
ROOT
ATOM      1  C   UNL     1      47.185   7.040  12.429  0.00  0.00    +0.000 A 
ATOM      2  C   UNL     1      46.355   6.087  11.784  0.00  0.00    +0.000 A 
ATOM      3  C   UNL     1      45.112   6.448  11.242  0.00  0.00    +0.000 A 
ATOM      4  C   UNL     1      44.684   7.773  11.391  0.00  0.00    +0.000 A 
ATOM      5  C   UNL     1      45.484   8.725  12.022  0.00  0.00    +0.000 A 
ATOM      6  C   UNL     1      46.732   8.368  12.525  0.00  0.00    +0.000 A 
ATOM      7 CL   UNL     1      47.679   9.623  13.240  0.00  0.00    +0.000 Cl
ENDROOT
BRANCH   3   8
ATOM      8  N   UNL     1      44.250   5.563  10.572  0.00  0.00    +0.000 N 
ATOM      9  H   UNL     1      44.320   5.613   9.559  0.00  0.00    +0.000 HD
BRANCH   8  10
ATOM     10  C   UNL     1      43.208   4.719  11.072  0.00  0.00    +0.000 C 
ATOM     11  C   UNL     1      42.741   5.195  12.472  0.00  0.00    +0.000 C 
ATOM     12  C   UNL     1      43.617   4.112  13.121  0.00  0.00    +0.000 C 
ATOM     13  C   UNL     1      43.721   3.410  11.749  0.00  0.00    +0.000 C 
BRANCH  13  14
ATOM     14  O   UNL     1      42.897   2.233  11.591  0.00  0.00    +0.000 OA
ATOM     15  H   UNL     1      42.210   2.300  12.275  0.00  0.00    +0.000 HD
ENDBRANCH  13  14
ENDBRANCH   8  10
ENDBRANCH   3   8
BRANCH   1  16
ATOM     16  C   UNL     1      48.546   6.617  12.962  0.00  0.00    +0.000 C 
BRANCH  16  17
ATOM     17  C   UNL     1      48.596   6.631  14.495  0.00  0.00    +0.000 C 
BRANCH  17  23
ATOM     18  C   UNL     1      49.141   4.378  18.094  0.00  0.00    +0.000 A 
ATOM     19  C   UNL     1      48.455   3.170  18.137  0.00  0.00    +0.000 A 
ATOM     20  C   UNL     1      47.506   2.930  17.158  0.00  0.00    +0.000 A 
ATOM     21  N   UNL     1      47.205   3.788  16.150  0.00  0.00    +0.000 NA
ATOM     22  C   UNL     1      47.865   4.962  16.113  0.00  0.00    +0.000 A 
ATOM     23  N   UNL     1      47.517   5.832  15.079  0.00  0.00    +0.000 N 
ATOM     24  C   UNL     1      48.808   5.288  17.082  0.00  0.00    +0.000 A 
ATOM     25  H   UNL     1      46.952   5.294  14.428  0.00  0.00    +0.000 HD
BRANCH  18  26
ATOM     26  C   UNL     1      50.211   4.732  19.083  0.00  0.00    +0.000 C 
BRANCH  26  27
ATOM     27  O   UNL     1      49.725   4.450  20.389  0.00  0.00    +0.000 OA
ATOM     28  H   UNL     1      50.401   3.911  20.832  0.00  0.00    +0.000 HD
ENDBRANCH  26  27
ENDBRANCH  18  26
ENDBRANCH  17  23
ENDBRANCH  16  17
ENDBRANCH   1  16
TORSDOF 8
ENDMDL
MODEL 4
REMARK VINA RESULT:    -6.616      2.597      3.960
REMARK INTER + INTRA:         -10.074
REMARK INTER:                  -9.028
REMARK INTRA:                  -1.046
REMARK UNBOUND:                -0.751
REMARK  Name = 
REMARK  8 active torsions:
REMARK  status: ('A' for Active; 'I' for Inactive)
REMARK    1  A    between atoms: O_1  and  C_2
REMARK    2  A    between atoms: C_2  and  C_3
REMARK    3  A    between atoms: N_8  and  C_9
REMARK    4  A    between atoms: C_9  and  C_10
REMARK    5  A    between atoms: C_10  and  C_11
REMARK    6  A    between atoms: C_13  and  N_14
REMARK    7  A    between atoms: N_14  and  C_15
REMARK    8  A    between atoms: C_18  and  O_19
REMARK                            x       y       z     vdW  Elec       q    Type
REMARK                         _______ _______ _______ _____ _____    ______ ____
ROOT
ATOM      1  C   UNL     1      47.401   8.168  13.275  0.00  0.00    +0.000 A 
ATOM      2  C   UNL     1      46.050   8.596  13.218  0.00  0.00    +0.000 A 
ATOM      3  C   UNL     1      45.661   9.690  12.430  0.00  0.00    +0.000 A 
ATOM      4  C   UNL     1      46.653  10.385  11.727  0.00  0.00    +0.000 A 
ATOM      5  C   UNL     1      47.988   9.982  11.770  0.00  0.00    +0.000 A 
ATOM      6  C   UNL     1      48.360   8.873  12.525  0.00  0.00    +0.000 A 
ATOM      7 CL   UNL     1      50.024   8.412  12.474  0.00  0.00    +0.000 Cl
ENDROOT
BRANCH   3   8
ATOM      8  N   UNL     1      44.340  10.153  12.309  0.00  0.00    +0.000 N 
ATOM      9  H   UNL     1      43.726   9.837  13.055  0.00  0.00    +0.000 HD
BRANCH   8  10
ATOM     10  C   UNL     1      43.696  10.868  11.249  0.00  0.00    +0.000 C 
ATOM     11  C   UNL     1      42.246  11.250  11.645  0.00  0.00    +0.000 C 
ATOM     12  C   UNL     1      41.722  10.047  10.845  0.00  0.00    +0.000 C 
ATOM     13  C   UNL     1      43.094   9.951  10.140  0.00  0.00    +0.000 C 
BRANCH  13  14
ATOM     14  O   UNL     1      43.131  10.459   8.788  0.00  0.00    +0.000 OA
ATOM     15  H   UNL     1      43.216   9.679   8.215  0.00  0.00    +0.000 HD
ENDBRANCH  13  14
ENDBRANCH   8  10
ENDBRANCH   3   8
BRANCH   1  16
ATOM     16  C   UNL     1      47.773   6.949  14.106  0.00  0.00    +0.000 C 
BRANCH  16  17
ATOM     17  C   UNL     1      47.379   5.637  13.417  0.00  0.00    +0.000 C 
BRANCH  17  23
ATOM     18  C   UNL     1      44.310   4.676  10.592  0.00  0.00    +0.000 A 
ATOM     19  C   UNL     1      43.021   5.004  10.996  0.00  0.00    +0.000 A 
ATOM     20  C   UNL     1      42.830   5.370  12.317  0.00  0.00    +0.000 A 
ATOM     21  N   UNL     1      43.817   5.443  13.246  0.00  0.00    +0.000 NA
ATOM     22  C   UNL     1      45.066   5.119  12.856  0.00  0.00    +0.000 A 
ATOM     23  N   UNL     1      46.053   5.182  13.840  0.00  0.00    +0.000 N 
ATOM     24  C   UNL     1      45.328   4.709  11.554  0.00  0.00    +0.000 A 
ATOM     25  H   UNL     1      45.642   5.667  14.631  0.00  0.00    +0.000 HD
BRANCH  18  26
ATOM     26  C   UNL     1      44.639   4.296   9.180  0.00  0.00    +0.000 C 
BRANCH  26  27
ATOM     27  O   UNL     1      45.632   5.190   8.695  0.00  0.00    +0.000 OA
ATOM     28  H   UNL     1      45.606   5.144   7.726  0.00  0.00    +0.000 HD
ENDBRANCH  26  27
ENDBRANCH  18  26
ENDBRANCH  17  23
ENDBRANCH  16  17
ENDBRANCH   1  16
TORSDOF 8
ENDMDL
MODEL 5
REMARK VINA RESULT:    -6.375      4.270      6.220
REMARK INTER + INTRA:          -9.734
REMARK INTER:                  -9.002
REMARK INTRA:                  -0.732
REMARK UNBOUND:                -0.751
REMARK  Name = 
REMARK  8 active torsions:
REMARK  status: ('A' for Active; 'I' for Inactive)
REMARK    1  A    between atoms: O_1  and  C_2
REMARK    2  A    between atoms: C_2  and  C_3
REMARK    3  A    between atoms: N_8  and  C_9
REMARK    4  A    between atoms: C_9  and  C_10
REMARK    5  A    between atoms: C_10  and  C_11
REMARK    6  A    between atoms: C_13  and  N_14
REMARK    7  A    between atoms: N_14  and  C_15
REMARK    8  A    between atoms: C_18  and  O_19
REMARK                            x       y       z     vdW  Elec       q    Type
REMARK                         _______ _______ _______ _____ _____    ______ ____
ROOT
ATOM      1  C   UNL     1      48.848   7.000  13.579  0.00  0.00    +0.000 A 
ATOM      2  C   UNL     1      48.139   6.410  14.657  0.00  0.00    +0.000 A 
ATOM      3  C   UNL     1      48.671   6.382  15.955  0.00  0.00    +0.000 A 
ATOM      4  C   UNL     1      49.950   6.916  16.157  0.00  0.00    +0.000 A 
ATOM      5  C   UNL     1      50.664   7.500  15.112  0.00  0.00    +0.000 A 
ATOM      6  C   UNL     1      50.114   7.557  13.834  0.00  0.00    +0.000 A 
ATOM      7 CL   UNL     1      51.045   8.348  12.613  0.00  0.00    +0.000 Cl
ENDROOT
BRANCH   3   8
ATOM      8  N   UNL     1      48.015   5.836  17.071  0.00  0.00    +0.000 N 
ATOM      9  H   UNL     1      47.491   6.518  17.612  0.00  0.00    +0.000 HD
BRANCH   8  10
ATOM     10  C   UNL     1      48.081   4.524  17.640  0.00  0.00    +0.000 C 
ATOM     11  C   UNL     1      49.215   3.696  16.981  0.00  0.00    +0.000 C 
ATOM     12  C   UNL     1      48.175   3.006  16.084  0.00  0.00    +0.000 C 
ATOM     13  C   UNL     1      47.061   3.514  17.027  0.00  0.00    +0.000 C 
BRANCH  13  14
ATOM     14  O   UNL     1      46.511   2.524  17.925  0.00  0.00    +0.000 OA
ATOM     15  H   UNL     1      46.493   1.693  17.421  0.00  0.00    +0.000 HD
ENDBRANCH  13  14
ENDBRANCH   8  10
ENDBRANCH   3   8
BRANCH   1  16
ATOM     16  C   UNL     1      48.215   7.050  12.196  0.00  0.00    +0.000 C 
BRANCH  16  17
ATOM     17  C   UNL     1      46.703   6.796  12.242  0.00  0.00    +0.000 C 
BRANCH  17  23
ATOM     18  C   UNL     1      44.183   3.526  11.109  0.00  0.00    +0.000 A 
ATOM     19  C   UNL     1      44.330   3.104   9.793  0.00  0.00    +0.000 A 
ATOM     20  C   UNL     1      45.068   3.902   8.936  0.00  0.00    +0.000 A 
ATOM     21  N   UNL     1      45.670   5.065   9.294  0.00  0.00    +0.000 NA
ATOM     22  C   UNL     1      45.522   5.478  10.568  0.00  0.00    +0.000 A 
ATOM     23  N   UNL     1      46.132   6.688  10.897  0.00  0.00    +0.000 N 
ATOM     24  C   UNL     1      44.766   4.746  11.477  0.00  0.00    +0.000 A 
ATOM     25  H   UNL     1      46.752   6.919  10.126  0.00  0.00    +0.000 HD
BRANCH  18  26
ATOM     26  C   UNL     1      43.432   2.728  12.131  0.00  0.00    +0.000 C 
BRANCH  26  27
ATOM     27  O   UNL     1      43.059   1.487  11.546  0.00  0.00    +0.000 OA
ATOM     28  H   UNL     1      43.822   0.892  11.633  0.00  0.00    +0.000 HD
ENDBRANCH  26  27
ENDBRANCH  18  26
ENDBRANCH  17  23
ENDBRANCH  16  17
ENDBRANCH   1  16
TORSDOF 8
ENDMDL
MODEL 6
REMARK VINA RESULT:    -6.349      4.615      7.830
REMARK INTER + INTRA:          -9.697
REMARK INTER:                  -8.699
REMARK INTRA:                  -0.998
REMARK UNBOUND:                -0.751
REMARK  Name = 
REMARK  8 active torsions:
REMARK  status: ('A' for Active; 'I' for Inactive)
REMARK    1  A    between atoms: O_1  and  C_2
REMARK    2  A    between atoms: C_2  and  C_3
REMARK    3  A    between atoms: N_8  and  C_9
REMARK    4  A    between atoms: C_9  and  C_10
REMARK    5  A    between atoms: C_10  and  C_11
REMARK    6  A    between atoms: C_13  and  N_14
REMARK    7  A    between atoms: N_14  and  C_15
REMARK    8  A    between atoms: C_18  and  O_19
REMARK                            x       y       z     vdW  Elec       q    Type
REMARK                         _______ _______ _______ _____ _____    ______ ____
ROOT
ATOM      1  C   UNL     1      47.642   7.325  12.947  0.00  0.00    +0.000 A 
ATOM      2  C   UNL     1      47.099   6.033  13.173  0.00  0.00    +0.000 A 
ATOM      3  C   UNL     1      45.732   5.772  12.993  0.00  0.00    +0.000 A 
ATOM      4  C   UNL     1      44.898   6.835  12.622  0.00  0.00    +0.000 A 
ATOM      5  C   UNL     1      45.411   8.112  12.396  0.00  0.00    +0.000 A 
ATOM      6  C   UNL     1      46.774   8.355  12.541  0.00  0.00    +0.000 A 
ATOM      7 CL   UNL     1      47.329   9.952  12.186  0.00  0.00    +0.000 Cl
ENDROOT
BRANCH   3   8
ATOM      8  N   UNL     1      45.132   4.515  13.176  0.00  0.00    +0.000 N 
ATOM      9  H   UNL     1      44.923   4.299  14.147  0.00  0.00    +0.000 HD
BRANCH   8  10
ATOM     10  C   UNL     1      44.902   3.448  12.249  0.00  0.00    +0.000 C 
ATOM     11  C   UNL     1      45.031   3.953  10.789  0.00  0.00    +0.000 C 
ATOM     12  C   UNL     1      43.500   4.054  10.700  0.00  0.00    +0.000 C 
ATOM     13  C   UNL     1      43.394   3.171  11.963  0.00  0.00    +0.000 C 
BRANCH  13  14
ATOM     14  O   UNL     1      43.022   1.794  11.726  0.00  0.00    +0.000 OA
ATOM     15  H   UNL     1      42.245   1.631  12.286  0.00  0.00    +0.000 HD
ENDBRANCH  13  14
ENDBRANCH   8  10
ENDBRANCH   3   8
BRANCH   1  16
ATOM     16  C   UNL     1      49.136   7.554  13.110  0.00  0.00    +0.000 C 
BRANCH  16  17
ATOM     17  C   UNL     1      49.502   8.000  14.531  0.00  0.00    +0.000 C 
BRANCH  17  23
ATOM     18  C   UNL     1      48.510   5.051  17.472  0.00  0.00    +0.000 A 
ATOM     19  C   UNL     1      49.474   4.860  18.455  0.00  0.00    +0.000 A 
ATOM     20  C   UNL     1      50.717   5.437  18.264  0.00  0.00    +0.000 A 
ATOM     21  N   UNL     1      51.059   6.190  17.187  0.00  0.00    +0.000 NA
ATOM     22  C   UNL     1      50.127   6.370  16.231  0.00  0.00    +0.000 A 
ATOM     23  N   UNL     1      50.517   7.128  15.127  0.00  0.00    +0.000 N 
ATOM     24  C   UNL     1      48.867   5.792  16.338  0.00  0.00    +0.000 A 
ATOM     25  H   UNL     1      51.398   7.568  15.375  0.00  0.00    +0.000 HD
BRANCH  18  26
ATOM     26  C   UNL     1      47.121   4.500  17.588  0.00  0.00    +0.000 C 
BRANCH  26  27
ATOM     27  O   UNL     1      46.414   5.266  18.554  0.00  0.00    +0.000 OA
ATOM     28  H   UNL     1      46.815   5.073  19.418  0.00  0.00    +0.000 HD
ENDBRANCH  26  27
ENDBRANCH  18  26
ENDBRANCH  17  23
ENDBRANCH  16  17
ENDBRANCH   1  16
TORSDOF 8
ENDMDL
MODEL 7
REMARK VINA RESULT:    -6.224      4.799      7.704
REMARK INTER + INTRA:          -9.521
REMARK INTER:                  -8.743
REMARK INTRA:                  -0.778
REMARK UNBOUND:                -0.751
REMARK  Name = 
REMARK  8 active torsions:
REMARK  status: ('A' for Active; 'I' for Inactive)
REMARK    1  A    between atoms: O_1  and  C_2
REMARK    2  A    between atoms: C_2  and  C_3
REMARK    3  A    between atoms: N_8  and  C_9
REMARK    4  A    between atoms: C_9  and  C_10
REMARK    5  A    between atoms: C_10  and  C_11
REMARK    6  A    between atoms: C_13  and  N_14
REMARK    7  A    between atoms: N_14  and  C_15
REMARK    8  A    between atoms: C_18  and  O_19
REMARK                            x       y       z     vdW  Elec       q    Type
REMARK                         _______ _______ _______ _____ _____    ______ ____
ROOT
ATOM      1  C   UNL     1      47.636   6.911  13.496  0.00  0.00    +0.000 A 
ATOM      2  C   UNL     1      46.994   5.648  13.571  0.00  0.00    +0.000 A 
ATOM      3  C   UNL     1      45.640   5.495  13.239  0.00  0.00    +0.000 A 
ATOM      4  C   UNL     1      44.916   6.636  12.870  0.00  0.00    +0.000 A 
ATOM      5  C   UNL     1      45.526   7.887  12.791  0.00  0.00    +0.000 A 
ATOM      6  C   UNL     1      46.880   8.024  13.086  0.00  0.00    +0.000 A 
ATOM      7 CL   UNL     1      47.566   9.599  12.907  0.00  0.00    +0.000 Cl
ENDROOT
BRANCH   3   8
ATOM      8  N   UNL     1      44.948   4.272  13.269  0.00  0.00    +0.000 N 
ATOM      9  H   UNL     1      44.560   4.044  14.180  0.00  0.00    +0.000 HD
BRANCH   8  10
ATOM     10  C   UNL     1      44.824   3.248  12.277  0.00  0.00    +0.000 C 
ATOM     11  C   UNL     1      45.071   3.824  10.858  0.00  0.00    +0.000 C 
ATOM     12  C   UNL     1      43.551   3.901  10.638  0.00  0.00    +0.000 C 
ATOM     13  C   UNL     1      43.354   2.957  11.844  0.00  0.00    +0.000 C 
BRANCH  13  14
ATOM     14  O   UNL     1      43.035   1.587  11.511  0.00  0.00    +0.000 OA
ATOM     15  H   UNL     1      43.706   1.310  10.865  0.00  0.00    +0.000 HD
ENDBRANCH  13  14
ENDBRANCH   8  10
ENDBRANCH   3   8
BRANCH   1  16
ATOM     16  C   UNL     1      49.118   7.026  13.821  0.00  0.00    +0.000 C 
BRANCH  16  17
ATOM     17  C   UNL     1      49.361   7.426  15.281  0.00  0.00    +0.000 C 
BRANCH  17  23
ATOM     18  C   UNL     1      50.421   4.003  17.623  0.00  0.00    +0.000 A 
ATOM     19  C   UNL     1      49.400   3.076  17.798  0.00  0.00    +0.000 A 
ATOM     20  C   UNL     1      48.120   3.444  17.422  0.00  0.00    +0.000 A 
ATOM     21  N   UNL     1      47.792   4.646  16.883  0.00  0.00    +0.000 NA
ATOM     22  C   UNL     1      48.780   5.547  16.719  0.00  0.00    +0.000 A 
ATOM     23  N   UNL     1      48.406   6.781  16.185  0.00  0.00    +0.000 N 
ATOM     24  C   UNL     1      50.085   5.260  17.105  0.00  0.00    +0.000 A 
ATOM     25  H   UNL     1      47.460   6.668  15.834  0.00  0.00    +0.000 HD
BRANCH  18  26
ATOM     26  C   UNL     1      51.849   3.701  17.964  0.00  0.00    +0.000 C 
BRANCH  26  27
ATOM     27  O   UNL     1      52.663   4.749  17.453  0.00  0.00    +0.000 OA
ATOM     28  H   UNL     1      53.059   5.198  18.217  0.00  0.00    +0.000 HD
ENDBRANCH  26  27
ENDBRANCH  18  26
ENDBRANCH  17  23
ENDBRANCH  16  17
ENDBRANCH   1  16
TORSDOF 8
ENDMDL
MODEL 8
REMARK VINA RESULT:    -5.916      5.054      6.830
REMARK INTER + INTRA:          -9.087
REMARK INTER:                  -8.383
REMARK INTRA:                  -0.704
REMARK UNBOUND:                -0.751
REMARK  Name = 
REMARK  8 active torsions:
REMARK  status: ('A' for Active; 'I' for Inactive)
REMARK    1  A    between atoms: O_1  and  C_2
REMARK    2  A    between atoms: C_2  and  C_3
REMARK    3  A    between atoms: N_8  and  C_9
REMARK    4  A    between atoms: C_9  and  C_10
REMARK    5  A    between atoms: C_10  and  C_11
REMARK    6  A    between atoms: C_13  and  N_14
REMARK    7  A    between atoms: N_14  and  C_15
REMARK    8  A    between atoms: C_18  and  O_19
REMARK                            x       y       z     vdW  Elec       q    Type
REMARK                         _______ _______ _______ _____ _____    ______ ____
ROOT
ATOM      1  C   UNL     1      48.484   8.294  11.813  0.00  0.00    +0.000 A 
ATOM      2  C   UNL     1      49.676   7.535  11.680  0.00  0.00    +0.000 A 
ATOM      3  C   UNL     1      50.903   8.147  11.384  0.00  0.00    +0.000 A 
ATOM      4  C   UNL     1      50.920   9.532  11.177  0.00  0.00    +0.000 A 
ATOM      5  C   UNL     1      49.760  10.296  11.302  0.00  0.00    +0.000 A 
ATOM      6  C   UNL     1      48.553   9.687  11.632  0.00  0.00    +0.000 A 
ATOM      7 CL   UNL     1      47.180  10.718  11.821  0.00  0.00    +0.000 Cl
ENDROOT
BRANCH   3   8
ATOM      8  N   UNL     1      52.123   7.461  11.261  0.00  0.00    +0.000 N 
ATOM      9  H   UNL     1      52.319   6.831  12.034  0.00  0.00    +0.000 HD
BRANCH   8  10
ATOM     10  C   UNL     1      53.183   7.608  10.310  0.00  0.00    +0.000 C 
ATOM     11  C   UNL     1      52.725   7.150   8.901  0.00  0.00    +0.000 C 
ATOM     12  C   UNL     1      53.422   5.799   9.125  0.00  0.00    +0.000 C 
ATOM     13  C   UNL     1      54.200   6.425  10.304  0.00  0.00    +0.000 C 
BRANCH  13  14
ATOM     14  O   UNL     1      55.579   6.757  10.028  0.00  0.00    +0.000 OA
ATOM     15  H   UNL     1      55.609   6.997   9.087  0.00  0.00    +0.000 HD
ENDBRANCH  13  14
ENDBRANCH   8  10
ENDBRANCH   3   8
BRANCH   1  16
ATOM     16  C   UNL     1      47.182   7.597  12.180  0.00  0.00    +0.000 C 
BRANCH  16  17
ATOM     17  C   UNL     1      47.421   6.240  12.852  0.00  0.00    +0.000 C 
BRANCH  17  23
ATOM     18  C   UNL     1      44.166   4.214  10.948  0.00  0.00    +0.000 A 
ATOM     19  C   UNL     1      42.911   4.511  11.465  0.00  0.00    +0.000 A 
ATOM     20  C   UNL     1      42.851   5.216  12.655  0.00  0.00    +0.000 A 
ATOM     21  N   UNL     1      43.935   5.648  13.349  0.00  0.00    +0.000 NA
ATOM     22  C   UNL     1      45.152   5.354  12.851  0.00  0.00    +0.000 A 
ATOM     23  N   UNL     1      46.244   5.792  13.600  0.00  0.00    +0.000 N 
ATOM     24  C   UNL     1      45.290   4.620  11.678  0.00  0.00    +0.000 A 
ATOM     25  H   UNL     1      45.879   6.438  14.293  0.00  0.00    +0.000 HD
BRANCH  18  26
ATOM     26  C   UNL     1      44.351   3.485   9.652  0.00  0.00    +0.000 C 
BRANCH  26  27
ATOM     27  O   UNL     1      43.959   4.348   8.592  0.00  0.00    +0.000 OA
ATOM     28  H   UNL     1      43.004   4.497   8.687  0.00  0.00    +0.000 HD
ENDBRANCH  26  27
ENDBRANCH  18  26
ENDBRANCH  17  23
ENDBRANCH  16  17
ENDBRANCH   1  16
TORSDOF 8
ENDMDL
MODEL 9
REMARK VINA RESULT:    -5.847      4.101      6.132
REMARK INTER + INTRA:          -8.991
REMARK INTER:                  -8.333
REMARK INTRA:                  -0.658
REMARK UNBOUND:                -0.751
REMARK  Name = 
REMARK  8 active torsions:
REMARK  status: ('A' for Active; 'I' for Inactive)
REMARK    1  A    between atoms: O_1  and  C_2
REMARK    2  A    between atoms: C_2  and  C_3
REMARK    3  A    between atoms: N_8  and  C_9
REMARK    4  A    between atoms: C_9  and  C_10
REMARK    5  A    between atoms: C_10  and  C_11
REMARK    6  A    between atoms: C_13  and  N_14
REMARK    7  A    between atoms: N_14  and  C_15
REMARK    8  A    between atoms: C_18  and  O_19
REMARK                            x       y       z     vdW  Elec       q    Type
REMARK                         _______ _______ _______ _____ _____    ______ ____
ROOT
ATOM      1  C   UNL     1      47.590   8.426  13.532  0.00  0.00    +0.000 A 
ATOM      2  C   UNL     1      47.923   7.579  14.621  0.00  0.00    +0.000 A 
ATOM      3  C   UNL     1      49.256   7.257  14.915  0.00  0.00    +0.000 A 
ATOM      4  C   UNL     1      50.260   7.759  14.077  0.00  0.00    +0.000 A 
ATOM      5  C   UNL     1      49.954   8.592  13.001  0.00  0.00    +0.000 A 
ATOM      6  C   UNL     1      48.631   8.937  12.737  0.00  0.00    +0.000 A 
ATOM      7 CL   UNL     1      48.350  10.018  11.419  0.00  0.00    +0.000 Cl
ENDROOT
BRANCH   3   8
ATOM      8  N   UNL     1      49.659   6.445  15.989  0.00  0.00    +0.000 N 
ATOM      9  H   UNL     1      50.569   6.014  15.857  0.00  0.00    +0.000 HD
BRANCH   8  10
ATOM     10  C   UNL     1      48.945   6.022  17.155  0.00  0.00    +0.000 C 
ATOM     11  C   UNL     1      49.832   5.109  18.041  0.00  0.00    +0.000 C 
ATOM     12  C   UNL     1      49.136   3.874  17.446  0.00  0.00    +0.000 C 
ATOM     13  C   UNL     1      48.013   4.794  16.918  0.00  0.00    +0.000 C 
BRANCH  13  14
ATOM     14  O   UNL     1      46.780   4.760  17.671  0.00  0.00    +0.000 OA
ATOM     15  H   UNL     1      46.540   3.821  17.741  0.00  0.00    +0.000 HD
ENDBRANCH  13  14
ENDBRANCH   8  10
ENDBRANCH   3   8
BRANCH   1  16
ATOM     16  C   UNL     1      46.135   8.787  13.274  0.00  0.00    +0.000 C 
BRANCH  16  17
ATOM     17  C   UNL     1      45.430   7.755  12.386  0.00  0.00    +0.000 C 
BRANCH  17  23
ATOM     18  C   UNL     1      44.599   4.132  10.263  0.00  0.00    +0.000 A 
ATOM     19  C   UNL     1      43.752   3.249  10.922  0.00  0.00    +0.000 A 
ATOM     20  C   UNL     1      43.462   3.501  12.252  0.00  0.00    +0.000 A 
ATOM     21  N   UNL     1      43.940   4.560  12.956  0.00  0.00    +0.000 NA
ATOM     22  C   UNL     1      44.767   5.411  12.319  0.00  0.00    +0.000 A 
ATOM     23  N   UNL     1      45.258   6.474  13.076  0.00  0.00    +0.000 N 
ATOM     24  C   UNL     1      45.129   5.203  10.992  0.00  0.00    +0.000 A 
ATOM     25  H   UNL     1      44.713   6.495  13.933  0.00  0.00    +0.000 HD
BRANCH  18  26
ATOM     26  C   UNL     1      44.956   3.975   8.815  0.00  0.00    +0.000 C 
BRANCH  26  27
ATOM     27  O   UNL     1      45.669   5.133   8.401  0.00  0.00    +0.000 OA
ATOM     28  H   UNL     1      45.159   5.536   7.679  0.00  0.00    +0.000 HD
ENDBRANCH  26  27
ENDBRANCH  18  26
ENDBRANCH  17  23
ENDBRANCH  16  17
ENDBRANCH   1  16
TORSDOF 8
ENDMDL
