MODEL 1
REMARK VINA RESULT:    -8.007      0.000      0.000
REMARK INTER + INTRA:         -11.431
REMARK INTER:                 -10.816
REMARK INTRA:                  -0.615
REMARK UNBOUND:                -0.615
REMARK  Name = 
REMARK  7 active torsions:
REMARK  status: ('A' for Active; 'I' for Inactive)
REMARK    1  A    between atoms: C_1  and  C_2
REMARK    2  A    between atoms: C_2  and  N_3
REMARK    3  A    between atoms: C_6  and  C_7
REMARK    4  A    between atoms: C_7  and  C_8
REMARK    5  A    between atoms: C_8  and  N_9
REMARK    6  A    between atoms: N_9  and  C_10
REMARK    7  A    between atoms: C_15  and  C_16
REMARK                            x       y       z     vdW  Elec       q    Type
REMARK                         _______ _______ _______ _____ _____    ______ ____
ROOT
ATOM      1  N   UNL     1      47.188   4.050  15.819  0.00  0.00    +0.000 N 
ATOM      2  C   UNL     1      47.355   5.155  14.936  0.00  0.00    +0.000 A 
ATOM      3  C   UNL     1      46.387   5.401  13.952  0.00  0.00    +0.000 A 
ATOM      4  C   UNL     1      46.567   6.440  13.018  0.00  0.00    +0.000 A 
ATOM      5  C   UNL     1      47.733   7.199  13.118  0.00  0.00    +0.000 A 
ATOM      6  C   UNL     1      48.636   6.900  14.123  0.00  0.00    +0.000 A 
ATOM      7  N   UNL     1      48.467   5.908  15.022  0.00  0.00    +0.000 NA
ATOM      8  H   UNL     1      46.192   3.853  15.889  0.00  0.00    +0.000 HD
ENDROOT
BRANCH   1  10
ATOM      9  C   UNL     1      47.104   4.988  18.069  0.00  0.00    +0.000 C 
ATOM     10  C   UNL     1      47.804   4.010  17.138  0.00  0.00    +0.000 C 
ATOM     11  C   UNL     1      47.871   2.567  17.707  0.00  0.00    +0.000 C 
ATOM     12  C   UNL     1      49.351   2.485  17.291  0.00  0.00    +0.000 C 
ATOM     13  F   UNL     1      50.185   2.001  18.241  0.00  0.00    +0.000 F 
ATOM     14  F   UNL     1      49.599   1.768  16.170  0.00  0.00    +0.000 F 
ATOM     15  C   UNL     1      49.351   4.019  17.133  0.00  0.00    +0.000 C 
ENDBRANCH   1  10
BRANCH   4  16
ATOM     16  C   UNL     1      45.508   6.679  11.954  0.00  0.00    +0.000 C 
BRANCH  16  17
ATOM     17  C   UNL     1      45.892   6.230  10.536  0.00  0.00    +0.000 C 
BRANCH  17  18
ATOM     18  N   UNL     1      44.759   5.617   9.819  0.00  0.00    +0.000 N 
ATOM     19  H   UNL     1      44.431   6.240   9.079  0.00  0.00    +0.000 HD
BRANCH  18  20
ATOM     20  C   UNL     1      45.150   4.391   9.213  0.00  0.00    +0.000 A 
ATOM     21  N   UNL     1      45.805   4.463   8.025  0.00  0.00    +0.000 NA
ATOM     22  C   UNL     1      46.212   3.327   7.420  0.00  0.00    +0.000 A 
ATOM     23  C   UNL     1      46.002   2.070   7.943  0.00  0.00    +0.000 A 
ATOM     24  C   UNL     1      45.347   1.983   9.163  0.00  0.00    +0.000 A 
ATOM     25  C   UNL     1      44.930   3.146   9.829  0.00  0.00    +0.000 A 
BRANCH  25  26
ATOM     26  C   UNL     1      44.223   2.955  11.120  0.00  0.00    +0.000 C 
ATOM     27  N   UNL     1      44.966   2.630  12.216  0.00  0.00    +0.000 N 
ATOM     28  O   UNL     1      43.000   3.052  11.202  0.00  0.00    +0.000 OA
ATOM     29  H   UNL     1      45.927   2.316  12.114  0.00  0.00    +0.000 HD
ATOM     30  H   UNL     1      44.452   2.337  13.040  0.00  0.00    +0.000 HD
ENDBRANCH  25  26
ENDBRANCH  18  20
ENDBRANCH  17  18
ENDBRANCH  16  17
ENDBRANCH   4  16
TORSDOF 6
ENDMDL
MODEL 2
REMARK VINA RESULT:    -7.553      1.343      1.653
REMARK INTER + INTRA:         -10.817
REMARK INTER:                 -10.529
REMARK INTRA:                  -0.288
REMARK UNBOUND:                -0.615
REMARK  Name = 
REMARK  7 active torsions:
REMARK  status: ('A' for Active; 'I' for Inactive)
REMARK    1  A    between atoms: C_1  and  C_2
REMARK    2  A    between atoms: C_2  and  N_3
REMARK    3  A    between atoms: C_6  and  C_7
REMARK    4  A    between atoms: C_7  and  C_8
REMARK    5  A    between atoms: C_8  and  N_9
REMARK    6  A    between atoms: N_9  and  C_10
REMARK    7  A    between atoms: C_15  and  C_16
REMARK                            x       y       z     vdW  Elec       q    Type
REMARK                         _______ _______ _______ _____ _____    ______ ____
ROOT
ATOM      1  N   UNL     1      48.004   5.824  15.870  0.00  0.00    +0.000 N 
ATOM      2  C   UNL     1      48.347   6.429  14.627  0.00  0.00    +0.000 A 
ATOM      3  C   UNL     1      47.424   6.403  13.572  0.00  0.00    +0.000 A 
ATOM      4  C   UNL     1      47.767   6.925  12.310  0.00  0.00    +0.000 A 
ATOM      5  C   UNL     1      49.046   7.461  12.164  0.00  0.00    +0.000 A 
ATOM      6  C   UNL     1      49.897   7.458  13.256  0.00  0.00    +0.000 A 
ATOM      7  N   UNL     1      49.572   6.962  14.467  0.00  0.00    +0.000 NA
ATOM      8  H   UNL     1      46.990   5.836  15.955  0.00  0.00    +0.000 HD
ENDROOT
BRANCH   1  10
ATOM      9  C   UNL     1      48.671   7.746  17.216  0.00  0.00    +0.000 C 
ATOM     10  C   UNL     1      48.620   6.229  17.127  0.00  0.00    +0.000 C 
ATOM     11  C   UNL     1      47.933   5.568  18.352  0.00  0.00    +0.000 C 
ATOM     12  C   UNL     1      49.072   4.535  18.418  0.00  0.00    +0.000 C 
ATOM     13  F   UNL     1      49.588   4.332  19.654  0.00  0.00    +0.000 F 
ATOM     14  F   UNL     1      48.772   3.310  17.927  0.00  0.00    +0.000 F 
ATOM     15  C   UNL     1      49.904   5.453  17.500  0.00  0.00    +0.000 C 
ENDBRANCH   1  10
BRANCH   4  16
ATOM     16  C   UNL     1      46.752   6.876  11.180  0.00  0.00    +0.000 C 
BRANCH  16  17
ATOM     17  C   UNL     1      45.544   5.958  11.426  0.00  0.00    +0.000 C 
BRANCH  17  18
ATOM     18  N   UNL     1      44.720   5.784  10.216  0.00  0.00    +0.000 N 
ATOM     19  H   UNL     1      44.853   6.572   9.581  0.00  0.00    +0.000 HD
BRANCH  18  20
ATOM     20  C   UNL     1      45.091   4.598   9.521  0.00  0.00    +0.000 A 
ATOM     21  N   UNL     1      45.782   4.747   8.362  0.00  0.00    +0.000 NA
ATOM     22  C   UNL     1      46.171   3.651   7.675  0.00  0.00    +0.000 A 
ATOM     23  C   UNL     1      45.906   2.363   8.085  0.00  0.00    +0.000 A 
ATOM     24  C   UNL     1      45.213   2.198   9.276  0.00  0.00    +0.000 A 
ATOM     25  C   UNL     1      44.813   3.316  10.025  0.00  0.00    +0.000 A 
BRANCH  25  26
ATOM     26  C   UNL     1      44.062   3.042  11.276  0.00  0.00    +0.000 C 
ATOM     27  N   UNL     1      44.757   2.567  12.349  0.00  0.00    +0.000 N 
ATOM     28  O   UNL     1      42.846   3.206  11.343  0.00  0.00    +0.000 OA
ATOM     29  H   UNL     1      45.699   2.207  12.236  0.00  0.00    +0.000 HD
ATOM     30  H   UNL     1      44.205   2.227  13.130  0.00  0.00    +0.000 HD
ENDBRANCH  25  26
ENDBRANCH  18  20
ENDBRANCH  17  18
ENDBRANCH  16  17
ENDBRANCH   4  16
TORSDOF 6
ENDMDL
MODEL 3
REMARK VINA RESULT:    -7.437      3.319      7.357
REMARK INTER + INTRA:         -10.661
REMARK INTER:                 -10.273
REMARK INTRA:                  -0.388
REMARK UNBOUND:                -0.615
REMARK  Name = 
REMARK  7 active torsions:
REMARK  status: ('A' for Active; 'I' for Inactive)
REMARK    1  A    between atoms: C_1  and  C_2
REMARK    2  A    between atoms: C_2  and  N_3
REMARK    3  A    between atoms: C_6  and  C_7
REMARK    4  A    between atoms: C_7  and  C_8
REMARK    5  A    between atoms: C_8  and  N_9
REMARK    6  A    between atoms: N_9  and  C_10
REMARK    7  A    between atoms: C_15  and  C_16
REMARK                            x       y       z     vdW  Elec       q    Type
REMARK                         _______ _______ _______ _____ _____    ______ ____
ROOT
ATOM      1  N   UNL     1      45.560   3.882  12.142  0.00  0.00    +0.000 N 
ATOM      2  C   UNL     1      45.891   5.234  12.444  0.00  0.00    +0.000 A 
ATOM      3  C   UNL     1      47.186   5.542  12.883  0.00  0.00    +0.000 A 
ATOM      4  C   UNL     1      47.517   6.858  13.261  0.00  0.00    +0.000 A 
ATOM      5  C   UNL     1      46.512   7.822  13.178  0.00  0.00    +0.000 A 
ATOM      6  C   UNL     1      45.261   7.440  12.726  0.00  0.00    +0.000 A 
ATOM      7  N   UNL     1      44.940   6.183  12.359  0.00  0.00    +0.000 NA
ATOM      8  H   UNL     1      46.416   3.400  11.879  0.00  0.00    +0.000 HD
ENDROOT
BRANCH   1  10
ATOM      9  C   UNL     1      43.337   2.889  11.989  0.00  0.00    +0.000 C 
ATOM     10  C   UNL     1      44.483   3.532  11.224  0.00  0.00    +0.000 C 
ATOM     11  C   UNL     1      44.037   4.743  10.361  0.00  0.00    +0.000 C 
ATOM     12  C   UNL     1      44.873   4.198   9.188  0.00  0.00    +0.000 C 
ATOM     13  F   UNL     1      44.237   4.180   7.993  0.00  0.00    +0.000 F 
ATOM     14  F   UNL     1      46.055   4.824   8.978  0.00  0.00    +0.000 F 
ATOM     15  C   UNL     1      44.941   2.841   9.919  0.00  0.00    +0.000 C 
ENDBRANCH   1  10
BRANCH   4  16
ATOM     16  C   UNL     1      48.925   7.165  13.744  0.00  0.00    +0.000 C 
BRANCH  16  17
ATOM     17  C   UNL     1      49.075   7.322  15.265  0.00  0.00    +0.000 C 
BRANCH  17  18
ATOM     18  N   UNL     1      48.313   6.304  16.010  0.00  0.00    +0.000 N 
ATOM     19  H   UNL     1      47.674   5.812  15.382  0.00  0.00    +0.000 HD
BRANCH  18  20
ATOM     20  C   UNL     1      49.187   5.339  16.584  0.00  0.00    +0.000 A 
ATOM     21  N   UNL     1      50.466   5.725  16.827  0.00  0.00    +0.000 NA
ATOM     22  C   UNL     1      51.328   4.850  17.387  0.00  0.00    +0.000 A 
ATOM     23  C   UNL     1      50.986   3.562  17.737  0.00  0.00    +0.000 A 
ATOM     24  C   UNL     1      49.677   3.161  17.507  0.00  0.00    +0.000 A 
ATOM     25  C   UNL     1      48.750   4.053  16.946  0.00  0.00    +0.000 A 
BRANCH  25  26
ATOM     26  C   UNL     1      47.379   3.531  16.721  0.00  0.00    +0.000 C 
ATOM     27  N   UNL     1      46.799   2.803  17.717  0.00  0.00    +0.000 N 
ATOM     28  O   UNL     1      46.789   3.716  15.659  0.00  0.00    +0.000 OA
ATOM     29  H   UNL     1      47.356   2.446  18.487  0.00  0.00    +0.000 HD
ATOM     30  H   UNL     1      45.941   2.315  17.480  0.00  0.00    +0.000 HD
ENDBRANCH  25  26
ENDBRANCH  18  20
ENDBRANCH  17  18
ENDBRANCH  16  17
ENDBRANCH   4  16
TORSDOF 6
ENDMDL
MODEL 4
REMARK VINA RESULT:    -7.313      3.549      7.887
REMARK INTER + INTRA:         -10.492
REMARK INTER:                 -10.082
REMARK INTRA:                  -0.411
REMARK UNBOUND:                -0.615
REMARK  Name = 
REMARK  7 active torsions:
REMARK  status: ('A' for Active; 'I' for Inactive)
REMARK    1  A    between atoms: C_1  and  C_2
REMARK    2  A    between atoms: C_2  and  N_3
REMARK    3  A    between atoms: C_6  and  C_7
REMARK    4  A    between atoms: C_7  and  C_8
REMARK    5  A    between atoms: C_8  and  N_9
REMARK    6  A    between atoms: N_9  and  C_10
REMARK    7  A    between atoms: C_15  and  C_16
REMARK                            x       y       z     vdW  Elec       q    Type
REMARK                         _______ _______ _______ _____ _____    ______ ____
ROOT
ATOM      1  N   UNL     1      45.761   3.147  10.012  0.00  0.00    +0.000 N 
ATOM      2  C   UNL     1      45.027   4.227  10.582  0.00  0.00    +0.000 A 
ATOM      3  C   UNL     1      45.693   5.155  11.396  0.00  0.00    +0.000 A 
ATOM      4  C   UNL     1      44.977   6.187  12.033  0.00  0.00    +0.000 A 
ATOM      5  C   UNL     1      43.600   6.240  11.819  0.00  0.00    +0.000 A 
ATOM      6  C   UNL     1      43.018   5.293  10.995  0.00  0.00    +0.000 A 
ATOM      7  N   UNL     1      43.699   4.305  10.379  0.00  0.00    +0.000 NA
ATOM      8  H   UNL     1      46.731   3.438   9.925  0.00  0.00    +0.000 HD
ENDROOT
BRANCH   1  10
ATOM      9  C   UNL     1      44.193   1.508   9.114  0.00  0.00    +0.000 C 
ATOM     10  C   UNL     1      45.327   2.470   8.796  0.00  0.00    +0.000 C 
ATOM     11  C   UNL     1      44.977   3.473   7.664  0.00  0.00    +0.000 C 
ATOM     12  C   UNL     1      46.350   3.206   7.021  0.00  0.00    +0.000 C 
ATOM     13  F   UNL     1      46.321   2.979   5.686  0.00  0.00    +0.000 F 
ATOM     14  F   UNL     1      47.281   4.168   7.221  0.00  0.00    +0.000 F 
ATOM     15  C   UNL     1      46.473   1.945   7.901  0.00  0.00    +0.000 C 
ENDBRANCH   1  10
BRANCH   4  16
ATOM     16  C   UNL     1      45.720   7.174  12.918  0.00  0.00    +0.000 C 
BRANCH  16  17
ATOM     17  C   UNL     1      47.129   6.736  13.347  0.00  0.00    +0.000 C 
BRANCH  17  18
ATOM     18  N   UNL     1      47.100   5.782  14.470  0.00  0.00    +0.000 N 
ATOM     19  H   UNL     1      47.106   4.823  14.120  0.00  0.00    +0.000 HD
BRANCH  18  20
ATOM     20  C   UNL     1      48.242   5.948  15.302  0.00  0.00    +0.000 A 
ATOM     21  N   UNL     1      49.282   6.660  14.798  0.00  0.00    +0.000 NA
ATOM     22  C   UNL     1      50.381   6.859  15.556  0.00  0.00    +0.000 A 
ATOM     23  C   UNL     1      50.517   6.377  16.839  0.00  0.00    +0.000 A 
ATOM     24  C   UNL     1      49.455   5.661  17.372  0.00  0.00    +0.000 A 
ATOM     25  C   UNL     1      48.289   5.455  16.618  0.00  0.00    +0.000 A 
BRANCH  25  26
ATOM     26  C   UNL     1      47.212   4.663  17.264  0.00  0.00    +0.000 C 
ATOM     27  N   UNL     1      46.760   5.071  18.484  0.00  0.00    +0.000 N 
ATOM     28  O   UNL     1      46.758   3.650  16.738  0.00  0.00    +0.000 OA
ATOM     29  H   UNL     1      47.284   5.752  19.027  0.00  0.00    +0.000 HD
ATOM     30  H   UNL     1      46.154   4.427  18.980  0.00  0.00    +0.000 HD
ENDBRANCH  25  26
ENDBRANCH  18  20
ENDBRANCH  17  18
ENDBRANCH  16  17
ENDBRANCH   4  16
TORSDOF 6
ENDMDL
MODEL 5
REMARK VINA RESULT:    -6.828      2.409      3.490
REMARK INTER + INTRA:          -9.838
REMARK INTER:                  -9.094
REMARK INTRA:                  -0.744
REMARK UNBOUND:                -0.615
REMARK  Name = 
REMARK  7 active torsions:
REMARK  status: ('A' for Active; 'I' for Inactive)
REMARK    1  A    between atoms: C_1  and  C_2
REMARK    2  A    between atoms: C_2  and  N_3
REMARK    3  A    between atoms: C_6  and  C_7
REMARK    4  A    between atoms: C_7  and  C_8
REMARK    5  A    between atoms: C_8  and  N_9
REMARK    6  A    between atoms: N_9  and  C_10
REMARK    7  A    between atoms: C_15  and  C_16
REMARK                            x       y       z     vdW  Elec       q    Type
REMARK                         _______ _______ _______ _____ _____    ______ ____
ROOT
ATOM      1  N   UNL     1      48.875   6.509  16.786  0.00  0.00    +0.000 N 
ATOM      2  C   UNL     1      48.256   5.814  15.707  0.00  0.00    +0.000 A 
ATOM      3  C   UNL     1      48.066   6.473  14.484  0.00  0.00    +0.000 A 
ATOM      4  C   UNL     1      47.388   5.834  13.427  0.00  0.00    +0.000 A 
ATOM      5  C   UNL     1      46.926   4.538  13.652  0.00  0.00    +0.000 A 
ATOM      6  C   UNL     1      47.162   3.952  14.883  0.00  0.00    +0.000 A 
ATOM      7  N   UNL     1      47.813   4.557  15.897  0.00  0.00    +0.000 NA
ATOM      8  H   UNL     1      49.470   7.234  16.392  0.00  0.00    +0.000 HD
ENDROOT
BRANCH   1  10
ATOM      9  C   UNL     1      50.853   5.189  17.331  0.00  0.00    +0.000 C 
ATOM     10  C   UNL     1      49.571   5.814  17.860  0.00  0.00    +0.000 C 
ATOM     11  C   UNL     1      49.802   6.729  19.093  0.00  0.00    +0.000 C 
ATOM     12  C   UNL     1      48.596   6.072  19.790  0.00  0.00    +0.000 C 
ATOM     13  F   UNL     1      48.812   5.701  21.075  0.00  0.00    +0.000 F 
ATOM     14  F   UNL     1      47.458   6.806  19.794  0.00  0.00    +0.000 F 
ATOM     15  C   UNL     1      48.669   4.932  18.754  0.00  0.00    +0.000 C 
ENDBRANCH   1  10
BRANCH   4  16
ATOM     16  C   UNL     1      47.185   6.574  12.115  0.00  0.00    +0.000 C 
BRANCH  16  17
ATOM     17  C   UNL     1      45.768   7.121  11.886  0.00  0.00    +0.000 C 
BRANCH  17  18
ATOM     18  N   UNL     1      45.117   6.510  10.712  0.00  0.00    +0.000 N 
ATOM     19  H   UNL     1      45.804   6.343   9.974  0.00  0.00    +0.000 HD
BRANCH  18  20
ATOM     20  C   UNL     1      44.534   5.258  11.054  0.00  0.00    +0.000 A 
ATOM     21  N   UNL     1      43.847   5.189  12.223  0.00  0.00    +0.000 NA
ATOM     22  C   UNL     1      43.261   4.027  12.582  0.00  0.00    +0.000 A 
ATOM     23  C   UNL     1      43.316   2.880  11.820  0.00  0.00    +0.000 A 
ATOM     24  C   UNL     1      44.002   2.942  10.616  0.00  0.00    +0.000 A 
ATOM     25  C   UNL     1      44.604   4.141  10.203  0.00  0.00    +0.000 A 
BRANCH  25  26
ATOM     26  C   UNL     1      45.330   4.107   8.908  0.00  0.00    +0.000 C 
ATOM     27  N   UNL     1      45.385   2.923   8.235  0.00  0.00    +0.000 N 
ATOM     28  O   UNL     1      45.896   5.104   8.465  0.00  0.00    +0.000 OA
ATOM     29  H   UNL     1      45.135   2.054   8.697  0.00  0.00    +0.000 HD
ATOM     30  H   UNL     1      46.025   2.880   7.449  0.00  0.00    +0.000 HD
ENDBRANCH  25  26
ENDBRANCH  18  20
ENDBRANCH  17  18
ENDBRANCH  16  17
ENDBRANCH   4  16
TORSDOF 6
ENDMDL
MODEL 6
REMARK VINA RESULT:    -6.669      3.596      7.616
REMARK INTER + INTRA:          -9.624
REMARK INTER:                  -9.276
REMARK INTRA:                  -0.348
REMARK UNBOUND:                -0.615
REMARK  Name = 
REMARK  7 active torsions:
REMARK  status: ('A' for Active; 'I' for Inactive)
REMARK    1  A    between atoms: C_1  and  C_2
REMARK    2  A    between atoms: C_2  and  N_3
REMARK    3  A    between atoms: C_6  and  C_7
REMARK    4  A    between atoms: C_7  and  C_8
REMARK    5  A    between atoms: C_8  and  N_9
REMARK    6  A    between atoms: N_9  and  C_10
REMARK    7  A    between atoms: C_15  and  C_16
REMARK                            x       y       z     vdW  Elec       q    Type
REMARK                         _______ _______ _______ _____ _____    ______ ____
ROOT
ATOM      1  N   UNL     1      44.852   4.575  12.598  0.00  0.00    +0.000 N 
ATOM      2  C   UNL     1      45.539   5.815  12.739  0.00  0.00    +0.000 A 
ATOM      3  C   UNL     1      46.811   5.833  13.329  0.00  0.00    +0.000 A 
ATOM      4  C   UNL     1      47.478   7.053  13.550  0.00  0.00    +0.000 A 
ATOM      5  C   UNL     1      46.825   8.222  13.160  0.00  0.00    +0.000 A 
ATOM      6  C   UNL     1      45.574   8.121  12.576  0.00  0.00    +0.000 A 
ATOM      7  N   UNL     1      44.932   6.955  12.359  0.00  0.00    +0.000 NA
ATOM      8  H   UNL     1      45.548   3.835  12.553  0.00  0.00    +0.000 HD
ENDROOT
BRANCH   1  10
ATOM      9  C   UNL     1      42.614   5.234  11.884  0.00  0.00    +0.000 C 
ATOM     10  C   UNL     1      43.827   4.367  11.584  0.00  0.00    +0.000 C 
ATOM     11  C   UNL     1      44.380   4.568  10.147  0.00  0.00    +0.000 C 
ATOM     12  C   UNL     1      44.490   3.040   9.989  0.00  0.00    +0.000 C 
ATOM     13  F   UNL     1      43.993   2.549   8.829  0.00  0.00    +0.000 F 
ATOM     14  F   UNL     1      45.739   2.533  10.111  0.00  0.00    +0.000 F 
ATOM     15  C   UNL     1      43.569   2.887  11.217  0.00  0.00    +0.000 C 
ENDBRANCH   1  10
BRANCH   4  16
ATOM     16  C   UNL     1      48.852   7.046  14.200  0.00  0.00    +0.000 C 
BRANCH  16  17
ATOM     17  C   UNL     1      48.850   7.146  15.734  0.00  0.00    +0.000 C 
BRANCH  17  18
ATOM     18  N   UNL     1      49.800   6.205  16.355  0.00  0.00    +0.000 N 
ATOM     19  H   UNL     1      50.271   6.649  17.146  0.00  0.00    +0.000 HD
BRANCH  18  20
ATOM     20  C   UNL     1      49.122   5.054  16.844  0.00  0.00    +0.000 A 
ATOM     21  N   UNL     1      47.775   5.007  16.678  0.00  0.00    +0.000 NA
ATOM     22  C   UNL     1      47.090   3.927  17.110  0.00  0.00    +0.000 A 
ATOM     23  C   UNL     1      47.683   2.844  17.721  0.00  0.00    +0.000 A 
ATOM     24  C   UNL     1      49.061   2.873  17.882  0.00  0.00    +0.000 A 
ATOM     25  C   UNL     1      49.806   3.971  17.425  0.00  0.00    +0.000 A 
BRANCH  25  26
ATOM     26  C   UNL     1      51.272   3.923  17.657  0.00  0.00    +0.000 C 
ATOM     27  N   UNL     1      51.780   2.846  18.322  0.00  0.00    +0.000 N 
ATOM     28  O   UNL     1      52.009   4.836  17.292  0.00  0.00    +0.000 OA
ATOM     29  H   UNL     1      51.166   2.216  18.830  0.00  0.00    +0.000 HD
ATOM     30  H   UNL     1      52.747   2.914  18.619  0.00  0.00    +0.000 HD
ENDBRANCH  25  26
ENDBRANCH  18  20
ENDBRANCH  17  18
ENDBRANCH  16  17
ENDBRANCH   4  16
TORSDOF 6
ENDMDL
MODEL 7
REMARK VINA RESULT:    -6.659      4.610      5.709
REMARK INTER + INTRA:          -9.610
REMARK INTER:                  -9.261
REMARK INTRA:                  -0.349
REMARK UNBOUND:                -0.615
REMARK  Name = 
REMARK  7 active torsions:
REMARK  status: ('A' for Active; 'I' for Inactive)
REMARK    1  A    between atoms: C_1  and  C_2
REMARK    2  A    between atoms: C_2  and  N_3
REMARK    3  A    between atoms: C_6  and  C_7
REMARK    4  A    between atoms: C_7  and  C_8
REMARK    5  A    between atoms: C_8  and  N_9
REMARK    6  A    between atoms: N_9  and  C_10
REMARK    7  A    between atoms: C_15  and  C_16
REMARK                            x       y       z     vdW  Elec       q    Type
REMARK                         _______ _______ _______ _____ _____    ______ ____
ROOT
ATOM      1  N   UNL     1      51.165   7.666  11.256  0.00  0.00    +0.000 N 
ATOM      2  C   UNL     1      49.936   8.325  11.545  0.00  0.00    +0.000 A 
ATOM      3  C   UNL     1      48.780   7.560  11.758  0.00  0.00    +0.000 A 
ATOM      4  C   UNL     1      47.537   8.188  11.969  0.00  0.00    +0.000 A 
ATOM      5  C   UNL     1      47.513   9.582  11.959  0.00  0.00    +0.000 A 
ATOM      6  C   UNL     1      48.698  10.266  11.751  0.00  0.00    +0.000 A 
ATOM      7  N   UNL     1      49.891   9.670  11.551  0.00  0.00    +0.000 NA
ATOM      8  H   UNL     1      51.125   6.734  11.661  0.00  0.00    +0.000 HD
ENDROOT
BRANCH   1  10
ATOM      9  C   UNL     1      52.591   8.570  13.017  0.00  0.00    +0.000 C 
ATOM     10  C   UNL     1      52.458   8.280  11.530  0.00  0.00    +0.000 C 
ATOM     11  C   UNL     1      53.634   7.439  10.965  0.00  0.00    +0.000 C 
ATOM     12  C   UNL     1      53.721   8.392   9.759  0.00  0.00    +0.000 C 
ATOM     13  F   UNL     1      54.971   8.810   9.450  0.00  0.00    +0.000 F 
ATOM     14  F   UNL     1      53.183   7.923   8.609  0.00  0.00    +0.000 F 
ATOM     15  C   UNL     1      52.864   9.404  10.548  0.00  0.00    +0.000 C 
ENDBRANCH   1  10
BRANCH   4  16
ATOM     16  C   UNL     1      46.298   7.336  12.187  0.00  0.00    +0.000 C 
BRANCH  16  17
ATOM     17  C   UNL     1      46.294   5.987  11.452  0.00  0.00    +0.000 C 
BRANCH  17  18
ATOM     18  N   UNL     1      45.174   5.872  10.500  0.00  0.00    +0.000 N 
ATOM     19  H   UNL     1      45.116   6.711   9.921  0.00  0.00    +0.000 HD
BRANCH  18  20
ATOM     20  C   UNL     1      45.360   4.758   9.635  0.00  0.00    +0.000 A 
ATOM     21  N   UNL     1      46.023   4.978   8.470  0.00  0.00    +0.000 NA
ATOM     22  C   UNL     1      46.239   3.948   7.625  0.00  0.00    +0.000 A 
ATOM     23  C   UNL     1      45.823   2.659   7.874  0.00  0.00    +0.000 A 
ATOM     24  C   UNL     1      45.157   2.419   9.068  0.00  0.00    +0.000 A 
ATOM     25  C   UNL     1      44.935   3.463   9.978  0.00  0.00    +0.000 A 
BRANCH  25  26
ATOM     26  C   UNL     1      44.201   3.115  11.221  0.00  0.00    +0.000 C 
ATOM     27  N   UNL     1      44.929   2.776  12.322  0.00  0.00    +0.000 N 
ATOM     28  O   UNL     1      42.972   3.098  11.256  0.00  0.00    +0.000 OA
ATOM     29  H   UNL     1      45.917   2.556  12.240  0.00  0.00    +0.000 HD
ATOM     30  H   UNL     1      44.413   2.379  13.101  0.00  0.00    +0.000 HD
ENDBRANCH  25  26
ENDBRANCH  18  20
ENDBRANCH  17  18
ENDBRANCH  16  17
ENDBRANCH   4  16
TORSDOF 6
ENDMDL
MODEL 8
REMARK VINA RESULT:    -6.616      4.666      7.781
REMARK INTER + INTRA:          -9.552
REMARK INTER:                  -8.980
REMARK INTRA:                  -0.572
REMARK UNBOUND:                -0.615
REMARK  Name = 
REMARK  7 active torsions:
REMARK  status: ('A' for Active; 'I' for Inactive)
REMARK    1  A    between atoms: C_1  and  C_2
REMARK    2  A    between atoms: C_2  and  N_3
REMARK    3  A    between atoms: C_6  and  C_7
REMARK    4  A    between atoms: C_7  and  C_8
REMARK    5  A    between atoms: C_8  and  N_9
REMARK    6  A    between atoms: N_9  and  C_10
REMARK    7  A    between atoms: C_15  and  C_16
REMARK                            x       y       z     vdW  Elec       q    Type
REMARK                         _______ _______ _______ _____ _____    ______ ____
ROOT
ATOM      1  N   UNL     1      45.676   3.098  10.045  0.00  0.00    +0.000 N 
ATOM      2  C   UNL     1      44.872   4.102  10.658  0.00  0.00    +0.000 A 
ATOM      3  C   UNL     1      45.481   5.070  11.469  0.00  0.00    +0.000 A 
ATOM      4  C   UNL     1      44.701   6.026  12.147  0.00  0.00    +0.000 A 
ATOM      5  C   UNL     1      43.318   5.965  11.976  0.00  0.00    +0.000 A 
ATOM      6  C   UNL     1      42.793   4.985  11.152  0.00  0.00    +0.000 A 
ATOM      7  N   UNL     1      43.536   4.069  10.497  0.00  0.00    +0.000 NA
ATOM      8  H   UNL     1      46.615   3.473   9.935  0.00  0.00    +0.000 HD
ENDROOT
BRANCH   1  10
ATOM      9  C   UNL     1      44.139   1.432   9.145  0.00  0.00    +0.000 C 
ATOM     10  C   UNL     1      45.263   2.407   8.831  0.00  0.00    +0.000 C 
ATOM     11  C   UNL     1      44.912   3.396   7.688  0.00  0.00    +0.000 C 
ATOM     12  C   UNL     1      46.294   3.143   7.060  0.00  0.00    +0.000 C 
ATOM     13  F   UNL     1      46.281   2.905   5.727  0.00  0.00    +0.000 F 
ATOM     14  F   UNL     1      47.211   4.119   7.262  0.00  0.00    +0.000 F 
ATOM     15  C   UNL     1      46.425   1.890   7.951  0.00  0.00    +0.000 C 
ENDBRANCH   1  10
BRANCH   4  16
ATOM     16  C   UNL     1      45.384   7.059  13.028  0.00  0.00    +0.000 C 
BRANCH  16  17
ATOM     17  C   UNL     1      45.406   8.488  12.463  0.00  0.00    +0.000 C 
BRANCH  17  18
ATOM     18  N   UNL     1      46.311   9.373  13.219  0.00  0.00    +0.000 N 
ATOM     19  H   UNL     1      46.731   8.866  14.000  0.00  0.00    +0.000 HD
BRANCH  18  20
ATOM     20  C   UNL     1      47.367   9.843  12.388  0.00  0.00    +0.000 A 
ATOM     21  N   UNL     1      47.125  10.951  11.641  0.00  0.00    +0.000 NA
ATOM     22  C   UNL     1      48.102  11.445  10.850  0.00  0.00    +0.000 A 
ATOM     23  C   UNL     1      49.357  10.885  10.752  0.00  0.00    +0.000 A 
ATOM     24  C   UNL     1      49.621   9.761  11.522  0.00  0.00    +0.000 A 
ATOM     25  C   UNL     1      48.635   9.235  12.371  0.00  0.00    +0.000 A 
BRANCH  25  26
ATOM     26  C   UNL     1      49.002   8.022  13.144  0.00  0.00    +0.000 C 
ATOM     27  N   UNL     1      49.691   7.037  12.501  0.00  0.00    +0.000 N 
ATOM     28  O   UNL     1      48.671   7.886  14.320  0.00  0.00    +0.000 OA
ATOM     29  H   UNL     1      49.759   7.031  11.487  0.00  0.00    +0.000 HD
ATOM     30  H   UNL     1      49.780   6.154  12.991  0.00  0.00    +0.000 HD
ENDBRANCH  25  26
ENDBRANCH  18  20
ENDBRANCH  17  18
ENDBRANCH  16  17
ENDBRANCH   4  16
TORSDOF 6
ENDMDL
MODEL 9
REMARK VINA RESULT:    -6.513      3.626      7.945
REMARK INTER + INTRA:          -9.412
REMARK INTER:                  -8.791
REMARK INTRA:                  -0.621
REMARK UNBOUND:                -0.615
REMARK  Name = 
REMARK  7 active torsions:
REMARK  status: ('A' for Active; 'I' for Inactive)
REMARK    1  A    between atoms: C_1  and  C_2
REMARK    2  A    between atoms: C_2  and  N_3
REMARK    3  A    between atoms: C_6  and  C_7
REMARK    4  A    between atoms: C_7  and  C_8
REMARK    5  A    between atoms: C_8  and  N_9
REMARK    6  A    between atoms: N_9  and  C_10
REMARK    7  A    between atoms: C_15  and  C_16
REMARK                            x       y       z     vdW  Elec       q    Type
REMARK                         _______ _______ _______ _____ _____    ______ ____
ROOT
ATOM      1  N   UNL     1      45.497   5.286  10.863  0.00  0.00    +0.000 N 
ATOM      2  C   UNL     1      46.105   5.284  12.152  0.00  0.00    +0.000 A 
ATOM      3  C   UNL     1      46.881   6.383  12.547  0.00  0.00    +0.000 A 
ATOM      4  C   UNL     1      47.555   6.373  13.784  0.00  0.00    +0.000 A 
ATOM      5  C   UNL     1      47.414   5.238  14.582  0.00  0.00    +0.000 A 
ATOM      6  C   UNL     1      46.623   4.199  14.126  0.00  0.00    +0.000 A 
ATOM      7  N   UNL     1      45.973   4.204  12.944  0.00  0.00    +0.000 NA
ATOM      8  H   UNL     1      45.359   6.254  10.583  0.00  0.00    +0.000 HD
ENDROOT
BRANCH   1  10
ATOM      9  C   UNL     1      43.071   5.202  11.105  0.00  0.00    +0.000 C 
ATOM     10  C   UNL     1      44.307   4.500  10.565  0.00  0.00    +0.000 C 
ATOM     11  C   UNL     1      44.201   4.153   9.055  0.00  0.00    +0.000 C 
ATOM     12  C   UNL     1      44.748   2.745   9.354  0.00  0.00    +0.000 C 
ATOM     13  F   UNL     1      44.060   1.731   8.778  0.00  0.00    +0.000 F 
ATOM     14  F   UNL     1      46.049   2.548   9.034  0.00  0.00    +0.000 F 
ATOM     15  C   UNL     1      44.442   2.985  10.846  0.00  0.00    +0.000 C 
ENDBRANCH   1  10
BRANCH   4  16
ATOM     16  C   UNL     1      48.398   7.572  14.184  0.00  0.00    +0.000 C 
BRANCH  16  17
ATOM     17  C   UNL     1      49.682   7.239  14.960  0.00  0.00    +0.000 C 
BRANCH  17  18
ATOM     18  N   UNL     1      49.517   7.414  16.414  0.00  0.00    +0.000 N 
ATOM     19  H   UNL     1      48.542   7.619  16.637  0.00  0.00    +0.000 HD
BRANCH  18  20
ATOM     20  C   UNL     1      49.881   6.227  17.109  0.00  0.00    +0.000 A 
ATOM     21  N   UNL     1      51.066   5.650  16.779  0.00  0.00    +0.000 NA
ATOM     22  C   UNL     1      51.462   4.532  17.423  0.00  0.00    +0.000 A 
ATOM     23  C   UNL     1      50.727   3.925  18.418  0.00  0.00    +0.000 A 
ATOM     24  C   UNL     1      49.522   4.514  18.774  0.00  0.00    +0.000 A 
ATOM     25  C   UNL     1      49.090   5.688  18.139  0.00  0.00    +0.000 A 
BRANCH  25  26
ATOM     26  C   UNL     1      47.781   6.236  18.575  0.00  0.00    +0.000 C 
ATOM     27  N   UNL     1      46.700   5.405  18.554  0.00  0.00    +0.000 N 
ATOM     28  O   UNL     1      47.658   7.411  18.914  0.00  0.00    +0.000 OA
ATOM     29  H   UNL     1      46.738   4.520  18.057  0.00  0.00    +0.000 HD
ATOM     30  H   UNL     1      45.793   5.840  18.688  0.00  0.00    +0.000 HD
ENDBRANCH  25  26
ENDBRANCH  18  20
ENDBRANCH  17  18
ENDBRANCH  16  17
ENDBRANCH   4  16
TORSDOF 6
ENDMDL
