MODEL 1
REMARK VINA RESULT:    -7.523      0.000      0.000
REMARK INTER + INTRA:         -12.571
REMARK INTER:                 -11.042
REMARK INTRA:                  -1.530
REMARK UNBOUND:                -1.530
REMARK  Name = 
REMARK  11 active torsions:
REMARK  status: ('A' for Active; 'I' for Inactive)
REMARK    1  A    between atoms: C_1  and  O_2
REMARK    2  A    between atoms: O_2  and  C_3
REMARK    3  A    between atoms: C_10  and  C_11
REMARK    4  A    between atoms: N_13  and  C_14
REMARK    5  A    between atoms: C_14  and  C_15
REMARK    6  A    between atoms: C_18  and  N_19
REMARK    7  A    between atoms: N_19  and  C_20
REMARK    8  A    between atoms: C_20  and  C_21
REMARK    9  A    between atoms: C_21  and  C_22
REMARK   10  A    between atoms: C_21  and  C_23
REMARK   11  A    between atoms: C_21  and  C_24
REMARK                            x       y       z     vdW  Elec       q    Type
REMARK                         _______ _______ _______ _____ _____    ______ ____
ROOT
ATOM      1  C   UNL     1      48.726   7.015  14.761  0.00  0.00    +0.000 A 
ATOM      2  C   UNL     1      48.492   7.745  13.592  0.00  0.00    +0.000 A 
ATOM      3  C   UNL     1      47.570   7.298  12.640  0.00  0.00    +0.000 A 
ATOM      4  C   UNL     1      46.815   6.137  12.843  0.00  0.00    +0.000 A 
ATOM      5  C   UNL     1      47.046   5.417  14.024  0.00  0.00    +0.000 A 
ATOM      6  C   UNL     1      47.986   5.846  14.973  0.00  0.00    +0.000 A 
ENDROOT
BRANCH   4   7
ATOM      7  N   UNL     1      45.939   5.599  11.891  0.00  0.00    +0.000 N 
ATOM      8  H   UNL     1      46.309   5.684  10.950  0.00  0.00    +0.000 HD
BRANCH   7   9
ATOM      9  C   UNL     1      45.239   4.339  12.186  0.00  0.00    +0.000 C 
BRANCH   9  10
ATOM     10  C   UNL     1      44.182   3.927  11.113  0.00  0.00    +0.000 C 
ATOM     11  C   UNL     1      43.346   2.741  11.634  0.00  0.00    +0.000 C 
ATOM     12  C   UNL     1      43.258   5.124  10.806  0.00  0.00    +0.000 C 
BRANCH  10  13
ATOM     13  C   UNL     1      44.912   3.517   9.816  0.00  0.00    +0.000 A 
ATOM     14  C   UNL     1      45.063   2.176   9.454  0.00  0.00    +0.000 A 
ATOM     15  C   UNL     1      45.719   1.855   8.266  0.00  0.00    +0.000 A 
ATOM     16  C   UNL     1      46.215   2.872   7.462  0.00  0.00    +0.000 A 
ATOM     17  C   UNL     1      46.031   4.173   7.883  0.00  0.00    +0.000 A 
ATOM     18  N   UNL     1      45.395   4.510   9.026  0.00  0.00    +0.000 NA
ENDBRANCH  10  13
ENDBRANCH   9  10
ENDBRANCH   7   9
ENDBRANCH   4   7
BRANCH   1  19
ATOM     19  C   UNL     1      49.726   7.516  15.770  0.00  0.00    +0.000 C 
BRANCH  19  22
ATOM     20  C   UNL     1      50.508   6.032  17.582  0.00  0.00    +0.000 C 
ATOM     21  O   UNL     1      49.741   6.537  18.396  0.00  0.00    +0.000 OA
ATOM     22  N   UNL     1      50.528   6.428  16.274  0.00  0.00    +0.000 N 
ATOM     23  H   UNL     1      51.224   6.055  15.645  0.00  0.00    +0.000 HD
BRANCH  20  31
ATOM     24  C   UNL     1      50.506   2.603  17.225  0.00  0.00    +0.000 A 
ATOM     25  N   UNL     1      50.792   1.286  17.155  0.00  0.00    +0.000 NA
ATOM     26  C   UNL     1      51.955   0.870  17.659  0.00  0.00    +0.000 A 
ATOM     27  N   UNL     1      52.885   1.615  18.248  0.00  0.00    +0.000 NA
ATOM     28  C   UNL     1      52.568   2.921  18.287  0.00  0.00    +0.000 A 
ATOM     29  S   UNL     1      53.636   4.022  19.010  0.00  0.00    +0.000 S 
ATOM     30  C   UNL     1      52.611   5.329  18.652  0.00  0.00    +0.000 A 
ATOM     31  C   UNL     1      51.452   4.967  17.978  0.00  0.00    +0.000 A 
ATOM     32  C   UNL     1      51.415   3.518  17.784  0.00  0.00    +0.000 A 
BRANCH  24  34
ATOM     33  C   UNL     1      48.240   3.024  17.616  0.00  0.00    +0.000 C 
ATOM     34  O   UNL     1      49.314   3.030  16.680  0.00  0.00    +0.000 OA
ENDBRANCH  24  34
ENDBRANCH  20  31
ENDBRANCH  19  22
ENDBRANCH   1  19
TORSDOF 8
ENDMDL
MODEL 2
REMARK VINA RESULT:    -6.665      3.518      8.391
REMARK INTER + INTRA:         -11.311
REMARK INTER:                  -9.522
REMARK INTRA:                  -1.790
REMARK UNBOUND:                -1.530
REMARK  Name = 
REMARK  11 active torsions:
REMARK  status: ('A' for Active; 'I' for Inactive)
REMARK    1  A    between atoms: C_1  and  O_2
REMARK    2  A    between atoms: O_2  and  C_3
REMARK    3  A    between atoms: C_10  and  C_11
REMARK    4  A    between atoms: N_13  and  C_14
REMARK    5  A    between atoms: C_14  and  C_15
REMARK    6  A    between atoms: C_18  and  N_19
REMARK    7  A    between atoms: N_19  and  C_20
REMARK    8  A    between atoms: C_20  and  C_21
REMARK    9  A    between atoms: C_21  and  C_22
REMARK   10  A    between atoms: C_21  and  C_23
REMARK   11  A    between atoms: C_21  and  C_24
REMARK                            x       y       z     vdW  Elec       q    Type
REMARK                         _______ _______ _______ _____ _____    ______ ____
ROOT
ATOM      1  C   UNL     1      48.456   7.976  13.267  0.00  0.00    +0.000 A 
ATOM      2  C   UNL     1      49.021   6.857  13.885  0.00  0.00    +0.000 A 
ATOM      3  C   UNL     1      49.063   6.754  15.280  0.00  0.00    +0.000 A 
ATOM      4  C   UNL     1      48.500   7.737  16.102  0.00  0.00    +0.000 A 
ATOM      5  C   UNL     1      47.924   8.850  15.474  0.00  0.00    +0.000 A 
ATOM      6  C   UNL     1      47.899   8.972  14.076  0.00  0.00    +0.000 A 
ENDROOT
BRANCH   4   7
ATOM      7  N   UNL     1      48.584   7.726  17.501  0.00  0.00    +0.000 N 
ATOM      8  H   UNL     1      47.669   7.637  17.930  0.00  0.00    +0.000 HD
BRANCH   7   9
ATOM      9  C   UNL     1      49.668   6.975  18.152  0.00  0.00    +0.000 C 
BRANCH   9  10
ATOM     10  C   UNL     1      49.180   5.789  19.043  0.00  0.00    +0.000 C 
ATOM     11  C   UNL     1      50.123   5.620  20.250  0.00  0.00    +0.000 C 
ATOM     12  C   UNL     1      47.744   6.065  19.536  0.00  0.00    +0.000 C 
BRANCH  10  13
ATOM     13  C   UNL     1      49.177   4.494  18.202  0.00  0.00    +0.000 A 
ATOM     14  C   UNL     1      50.338   3.741  18.013  0.00  0.00    +0.000 A 
ATOM     15  C   UNL     1      50.284   2.571  17.256  0.00  0.00    +0.000 A 
ATOM     16  C   UNL     1      49.076   2.173  16.698  0.00  0.00    +0.000 A 
ATOM     17  C   UNL     1      47.970   2.967  16.924  0.00  0.00    +0.000 A 
ATOM     18  N   UNL     1      47.996   4.101  17.658  0.00  0.00    +0.000 NA
ENDBRANCH  10  13
ENDBRANCH   9  10
ENDBRANCH   7   9
ENDBRANCH   4   7
BRANCH   1  19
ATOM     19  C   UNL     1      48.426   8.065  11.763  0.00  0.00    +0.000 C 
BRANCH  19  22
ATOM     20  C   UNL     1      46.299   6.925  11.234  0.00  0.00    +0.000 C 
ATOM     21  O   UNL     1      45.632   7.855  11.676  0.00  0.00    +0.000 OA
ATOM     22  N   UNL     1      47.665   6.973  11.205  0.00  0.00    +0.000 N 
ATOM     23  H   UNL     1      48.192   6.163  10.912  0.00  0.00    +0.000 HD
BRANCH  20  31
ATOM     24  C   UNL     1      44.545   4.347  12.705  0.00  0.00    +0.000 A 
ATOM     25  N   UNL     1      43.778   3.278  13.003  0.00  0.00    +0.000 NA
ATOM     26  C   UNL     1      43.386   2.489  12.000  0.00  0.00    +0.000 A 
ATOM     27  N   UNL     1      43.681   2.627  10.711  0.00  0.00    +0.000 NA
ATOM     28  C   UNL     1      44.437   3.709  10.456  0.00  0.00    +0.000 A 
ATOM     29  S   UNL     1      44.916   4.039   8.862  0.00  0.00    +0.000 S 
ATOM     30  C   UNL     1      45.733   5.448   9.348  0.00  0.00    +0.000 A 
ATOM     31  C   UNL     1      45.657   5.702  10.710  0.00  0.00    +0.000 A 
ATOM     32  C   UNL     1      44.902   4.642  11.378  0.00  0.00    +0.000 A 
BRANCH  24  34
ATOM     33  C   UNL     1      46.184   4.817  14.304  0.00  0.00    +0.000 C 
ATOM     34  O   UNL     1      44.925   5.173  13.742  0.00  0.00    +0.000 OA
ENDBRANCH  24  34
ENDBRANCH  20  31
ENDBRANCH  19  22
ENDBRANCH   1  19
TORSDOF 8
ENDMDL
MODEL 3
REMARK VINA RESULT:    -6.498      5.629      7.282
REMARK INTER + INTRA:         -11.067
REMARK INTER:                  -9.671
REMARK INTRA:                  -1.395
REMARK UNBOUND:                -1.530
REMARK  Name = 
REMARK  11 active torsions:
REMARK  status: ('A' for Active; 'I' for Inactive)
REMARK    1  A    between atoms: C_1  and  O_2
REMARK    2  A    between atoms: O_2  and  C_3
REMARK    3  A    between atoms: C_10  and  C_11
REMARK    4  A    between atoms: N_13  and  C_14
REMARK    5  A    between atoms: C_14  and  C_15
REMARK    6  A    between atoms: C_18  and  N_19
REMARK    7  A    between atoms: N_19  and  C_20
REMARK    8  A    between atoms: C_20  and  C_21
REMARK    9  A    between atoms: C_21  and  C_22
REMARK   10  A    between atoms: C_21  and  C_23
REMARK   11  A    between atoms: C_21  and  C_24
REMARK                            x       y       z     vdW  Elec       q    Type
REMARK                         _______ _______ _______ _____ _____    ______ ____
ROOT
ATOM      1  C   UNL     1      49.713   8.326  12.110  0.00  0.00    +0.000 A 
ATOM      2  C   UNL     1      49.396   7.002  12.426  0.00  0.00    +0.000 A 
ATOM      3  C   UNL     1      48.067   6.612  12.625  0.00  0.00    +0.000 A 
ATOM      4  C   UNL     1      47.010   7.514  12.467  0.00  0.00    +0.000 A 
ATOM      5  C   UNL     1      47.335   8.838  12.136  0.00  0.00    +0.000 A 
ATOM      6  C   UNL     1      48.667   9.242  11.959  0.00  0.00    +0.000 A 
ENDROOT
BRANCH   4   7
ATOM      7  N   UNL     1      45.669   7.201  12.731  0.00  0.00    +0.000 N 
ATOM      8  H   UNL     1      45.264   7.835  13.411  0.00  0.00    +0.000 HD
BRANCH   7   9
ATOM      9  C   UNL     1      44.787   6.812  11.620  0.00  0.00    +0.000 C 
BRANCH   9  10
ATOM     10  C   UNL     1      44.172   5.384  11.760  0.00  0.00    +0.000 C 
ATOM     11  C   UNL     1      44.673   4.726  13.061  0.00  0.00    +0.000 C 
ATOM     12  C   UNL     1      42.632   5.481  11.783  0.00  0.00    +0.000 C 
BRANCH  10  13
ATOM     13  C   UNL     1      44.599   4.529  10.548  0.00  0.00    +0.000 A 
ATOM     14  C   UNL     1      45.369   5.062   9.511  0.00  0.00    +0.000 A 
ATOM     15  C   UNL     1      45.742   4.247   8.443  0.00  0.00    +0.000 A 
ATOM     16  C   UNL     1      45.339   2.919   8.423  0.00  0.00    +0.000 A 
ATOM     17  C   UNL     1      44.577   2.461   9.479  0.00  0.00    +0.000 A 
ATOM     18  N   UNL     1      44.209   3.228  10.528  0.00  0.00    +0.000 NA
ENDBRANCH  10  13
ENDBRANCH   9  10
ENDBRANCH   7   9
ENDBRANCH   4   7
BRANCH   1  19
ATOM     19  C   UNL     1      51.152   8.722  11.904  0.00  0.00    +0.000 C 
BRANCH  19  22
ATOM     20  C   UNL     1      52.604   8.941   9.918  0.00  0.00    +0.000 C 
ATOM     21  O   UNL     1      53.213   9.890  10.405  0.00  0.00    +0.000 OA
ATOM     22  N   UNL     1      51.616   8.295  10.606  0.00  0.00    +0.000 N 
ATOM     23  H   UNL     1      51.076   7.572  10.152  0.00  0.00    +0.000 HD
BRANCH  20  31
ATOM     24  C   UNL     1      53.537   5.872   8.654  0.00  0.00    +0.000 A 
ATOM     25  N   UNL     1      53.830   4.792   7.900  0.00  0.00    +0.000 NA
ATOM     26  C   UNL     1      53.899   4.953   6.577  0.00  0.00    +0.000 A 
ATOM     27  N   UNL     1      53.723   6.081   5.897  0.00  0.00    +0.000 NA
ATOM     28  C   UNL     1      53.424   7.130   6.683  0.00  0.00    +0.000 A 
ATOM     29  S   UNL     1      53.172   8.656   5.986  0.00  0.00    +0.000 S 
ATOM     30  C   UNL     1      52.845   9.349   7.503  0.00  0.00    +0.000 A 
ATOM     31  C   UNL     1      52.911   8.451   8.559  0.00  0.00    +0.000 A 
ATOM     32  C   UNL     1      53.286   7.125   8.069  0.00  0.00    +0.000 A 
BRANCH  24  34
ATOM     33  C   UNL     1      54.625   5.149  10.593  0.00  0.00    +0.000 C 
ATOM     34  O   UNL     1      53.442   5.695  10.019  0.00  0.00    +0.000 OA
ENDBRANCH  24  34
ENDBRANCH  20  31
ENDBRANCH  19  22
ENDBRANCH   1  19
TORSDOF 8
ENDMDL
MODEL 4
REMARK VINA RESULT:    -6.420      1.584      2.156
REMARK INTER + INTRA:         -10.952
REMARK INTER:                  -9.749
REMARK INTRA:                  -1.203
REMARK UNBOUND:                -1.530
REMARK  Name = 
REMARK  11 active torsions:
REMARK  status: ('A' for Active; 'I' for Inactive)
REMARK    1  A    between atoms: C_1  and  O_2
REMARK    2  A    between atoms: O_2  and  C_3
REMARK    3  A    between atoms: C_10  and  C_11
REMARK    4  A    between atoms: N_13  and  C_14
REMARK    5  A    between atoms: C_14  and  C_15
REMARK    6  A    between atoms: C_18  and  N_19
REMARK    7  A    between atoms: N_19  and  C_20
REMARK    8  A    between atoms: C_20  and  C_21
REMARK    9  A    between atoms: C_21  and  C_22
REMARK   10  A    between atoms: C_21  and  C_23
REMARK   11  A    between atoms: C_21  and  C_24
REMARK                            x       y       z     vdW  Elec       q    Type
REMARK                         _______ _______ _______ _____ _____    ______ ____
ROOT
ATOM      1  C   UNL     1      47.425   7.889  13.626  0.00  0.00    +0.000 A 
ATOM      2  C   UNL     1      46.492   8.635  12.901  0.00  0.00    +0.000 A 
ATOM      3  C   UNL     1      45.720   8.037  11.899  0.00  0.00    +0.000 A 
ATOM      4  C   UNL     1      45.815   6.669  11.622  0.00  0.00    +0.000 A 
ATOM      5  C   UNL     1      46.744   5.925  12.363  0.00  0.00    +0.000 A 
ATOM      6  C   UNL     1      47.540   6.522  13.353  0.00  0.00    +0.000 A 
ENDROOT
BRANCH   4   7
ATOM      7  N   UNL     1      45.128   6.034  10.578  0.00  0.00    +0.000 N 
ATOM      8  H   UNL     1      44.456   6.655  10.140  0.00  0.00    +0.000 HD
BRANCH   7   9
ATOM      9  C   UNL     1      45.865   5.148   9.664  0.00  0.00    +0.000 C 
BRANCH   9  10
ATOM     10  C   UNL     1      45.125   3.815   9.328  0.00  0.00    +0.000 C 
ATOM     11  C   UNL     1      44.890   3.009  10.621  0.00  0.00    +0.000 C 
ATOM     12  C   UNL     1      43.772   4.127   8.653  0.00  0.00    +0.000 C 
BRANCH  10  13
ATOM     13  C   UNL     1      45.990   2.989   8.351  0.00  0.00    +0.000 A 
ATOM     14  C   UNL     1      46.696   3.594   7.309  0.00  0.00    +0.000 A 
ATOM     15  C   UNL     1      47.475   2.808   6.460  0.00  0.00    +0.000 A 
ATOM     16  C   UNL     1      47.534   1.436   6.661  0.00  0.00    +0.000 A 
ATOM     17  C   UNL     1      46.808   0.907   7.709  0.00  0.00    +0.000 A 
ATOM     18  N   UNL     1      46.052   1.647   8.548  0.00  0.00    +0.000 NA
ENDBRANCH  10  13
ENDBRANCH   9  10
ENDBRANCH   7   9
ENDBRANCH   4   7
BRANCH   1  19
ATOM     19  C   UNL     1      48.247   8.557  14.698  0.00  0.00    +0.000 C 
BRANCH  19  22
ATOM     20  C   UNL     1      49.417   7.300  16.473  0.00  0.00    +0.000 C 
ATOM     21  O   UNL     1      48.600   7.640  17.323  0.00  0.00    +0.000 OA
ATOM     22  N   UNL     1      49.288   7.674  15.165  0.00  0.00    +0.000 N 
ATOM     23  H   UNL     1      50.017   7.450  14.503  0.00  0.00    +0.000 HD
BRANCH  20  31
ATOM     24  C   UNL     1      49.795   3.995  17.379  0.00  0.00    +0.000 A 
ATOM     25  N   UNL     1      50.228   2.752  17.674  0.00  0.00    +0.000 NA
ATOM     26  C   UNL     1      51.543   2.561  17.804  0.00  0.00    +0.000 A 
ATOM     27  N   UNL     1      52.500   3.476  17.686  0.00  0.00    +0.000 NA
ATOM     28  C   UNL     1      52.028   4.697  17.381  0.00  0.00    +0.000 A 
ATOM     29  S   UNL     1      53.109   5.992  17.199  0.00  0.00    +0.000 S 
ATOM     30  C   UNL     1      51.841   7.061  16.826  0.00  0.00    +0.000 A 
ATOM     31  C   UNL     1      50.586   6.469  16.824  0.00  0.00    +0.000 A 
ATOM     32  C   UNL     1      50.697   5.055  17.184  0.00  0.00    +0.000 A 
BRANCH  24  34
ATOM     33  C   UNL     1      47.736   2.968  16.969  0.00  0.00    +0.000 C 
ATOM     34  O   UNL     1      48.438   4.181  17.221  0.00  0.00    +0.000 OA
ENDBRANCH  24  34
ENDBRANCH  20  31
ENDBRANCH  19  22
ENDBRANCH   1  19
TORSDOF 8
ENDMDL
MODEL 5
REMARK VINA RESULT:    -6.104      3.440      5.154
REMARK INTER + INTRA:         -10.489
REMARK INTER:                  -8.937
REMARK INTRA:                  -1.552
REMARK UNBOUND:                -1.530
REMARK  Name = 
REMARK  11 active torsions:
REMARK  status: ('A' for Active; 'I' for Inactive)
REMARK    1  A    between atoms: C_1  and  O_2
REMARK    2  A    between atoms: O_2  and  C_3
REMARK    3  A    between atoms: C_10  and  C_11
REMARK    4  A    between atoms: N_13  and  C_14
REMARK    5  A    between atoms: C_14  and  C_15
REMARK    6  A    between atoms: C_18  and  N_19
REMARK    7  A    between atoms: N_19  and  C_20
REMARK    8  A    between atoms: C_20  and  C_21
REMARK    9  A    between atoms: C_21  and  C_22
REMARK   10  A    between atoms: C_21  and  C_23
REMARK   11  A    between atoms: C_21  and  C_24
REMARK                            x       y       z     vdW  Elec       q    Type
REMARK                         _______ _______ _______ _____ _____    ______ ____
ROOT
ATOM      1  C   UNL     1      48.672   6.105  15.480  0.00  0.00    +0.000 A 
ATOM      2  C   UNL     1      48.316   6.599  14.222  0.00  0.00    +0.000 A 
ATOM      3  C   UNL     1      47.330   5.966  13.457  0.00  0.00    +0.000 A 
ATOM      4  C   UNL     1      46.632   4.855  13.940  0.00  0.00    +0.000 A 
ATOM      5  C   UNL     1      46.985   4.373  15.209  0.00  0.00    +0.000 A 
ATOM      6  C   UNL     1      47.990   4.987  15.972  0.00  0.00    +0.000 A 
ENDROOT
BRANCH   4   7
ATOM      7  N   UNL     1      45.693   4.134  13.188  0.00  0.00    +0.000 N 
ATOM      8  H   UNL     1      45.825   3.133  13.285  0.00  0.00    +0.000 HD
BRANCH   7   9
ATOM      9  C   UNL     1      44.295   4.590  13.152  0.00  0.00    +0.000 C 
BRANCH   9  10
ATOM     10  C   UNL     1      43.883   5.288  11.817  0.00  0.00    +0.000 C 
ATOM     11  C   UNL     1      42.348   5.394  11.736  0.00  0.00    +0.000 C 
ATOM     12  C   UNL     1      44.510   6.696  11.750  0.00  0.00    +0.000 C 
BRANCH  10  13
ATOM     13  C   UNL     1      44.409   4.453  10.628  0.00  0.00    +0.000 A 
ATOM     14  C   UNL     1      45.214   5.018   9.636  0.00  0.00    +0.000 A 
ATOM     15  C   UNL     1      45.675   4.222   8.589  0.00  0.00    +0.000 A 
ATOM     16  C   UNL     1      45.325   2.879   8.546  0.00  0.00    +0.000 A 
ATOM     17  C   UNL     1      44.525   2.389   9.558  0.00  0.00    +0.000 A 
ATOM     18  N   UNL     1      44.070   3.139  10.586  0.00  0.00    +0.000 NA
ENDBRANCH  10  13
ENDBRANCH   9  10
ENDBRANCH   7   9
ENDBRANCH   4   7
BRANCH   1  19
ATOM     19  C   UNL     1      49.740   6.801  16.283  0.00  0.00    +0.000 C 
BRANCH  19  22
ATOM     20  C   UNL     1      51.264   8.284  15.026  0.00  0.00    +0.000 C 
ATOM     21  O   UNL     1      50.639   9.288  15.354  0.00  0.00    +0.000 OA
ATOM     22  N   UNL     1      50.909   7.042  15.473  0.00  0.00    +0.000 N 
ATOM     23  H   UNL     1      51.389   6.225  15.123  0.00  0.00    +0.000 HD
BRANCH  20  31
ATOM     24  C   UNL     1      51.618   8.425  11.600  0.00  0.00    +0.000 A 
ATOM     25  N   UNL     1      52.033   8.565  10.323  0.00  0.00    +0.000 NA
ATOM     26  C   UNL     1      53.342   8.699  10.101  0.00  0.00    +0.000 A 
ATOM     27  N   UNL     1      54.312   8.699  11.009  0.00  0.00    +0.000 NA
ATOM     28  C   UNL     1      53.857   8.567  12.267  0.00  0.00    +0.000 A 
ATOM     29  S   UNL     1      54.957   8.538  13.558  0.00  0.00    +0.000 S 
ATOM     30  C   UNL     1      53.700   8.392  14.691  0.00  0.00    +0.000 A 
ATOM     31  C   UNL     1      52.432   8.369  14.127  0.00  0.00    +0.000 A 
ATOM     32  C   UNL     1      52.530   8.446  12.669  0.00  0.00    +0.000 A 
BRANCH  24  34
ATOM     33  C   UNL     1      49.555   9.524  11.586  0.00  0.00    +0.000 C 
ATOM     34  O   UNL     1      50.262   8.312  11.825  0.00  0.00    +0.000 OA
ENDBRANCH  24  34
ENDBRANCH  20  31
ENDBRANCH  19  22
ENDBRANCH   1  19
TORSDOF 8
ENDMDL
MODEL 6
REMARK VINA RESULT:    -5.891      2.005      3.367
REMARK INTER + INTRA:         -10.176
REMARK INTER:                  -8.147
REMARK INTRA:                  -2.028
REMARK UNBOUND:                -1.530
REMARK  Name = 
REMARK  11 active torsions:
REMARK  status: ('A' for Active; 'I' for Inactive)
REMARK    1  A    between atoms: C_1  and  O_2
REMARK    2  A    between atoms: O_2  and  C_3
REMARK    3  A    between atoms: C_10  and  C_11
REMARK    4  A    between atoms: N_13  and  C_14
REMARK    5  A    between atoms: C_14  and  C_15
REMARK    6  A    between atoms: C_18  and  N_19
REMARK    7  A    between atoms: N_19  and  C_20
REMARK    8  A    between atoms: C_20  and  C_21
REMARK    9  A    between atoms: C_21  and  C_22
REMARK   10  A    between atoms: C_21  and  C_23
REMARK   11  A    between atoms: C_21  and  C_24
REMARK                            x       y       z     vdW  Elec       q    Type
REMARK                         _______ _______ _______ _____ _____    ______ ____
ROOT
ATOM      1  C   UNL     1      48.434   5.617  17.295  0.00  0.00    +0.000 A 
ATOM      2  C   UNL     1      48.655   6.342  16.121  0.00  0.00    +0.000 A 
ATOM      3  C   UNL     1      48.081   5.938  14.910  0.00  0.00    +0.000 A 
ATOM      4  C   UNL     1      47.228   4.831  14.840  0.00  0.00    +0.000 A 
ATOM      5  C   UNL     1      47.000   4.117  16.025  0.00  0.00    +0.000 A 
ATOM      6  C   UNL     1      47.592   4.501  17.238  0.00  0.00    +0.000 A 
ENDROOT
BRANCH   4   7
ATOM      7  N   UNL     1      46.690   4.334  13.645  0.00  0.00    +0.000 N 
ATOM      8  H   UNL     1      47.026   3.399  13.444  0.00  0.00    +0.000 HD
BRANCH   7   9
ATOM      9  C   UNL     1      45.273   4.581  13.335  0.00  0.00    +0.000 C 
BRANCH   9  10
ATOM     10  C   UNL     1      45.039   5.446  12.056  0.00  0.00    +0.000 C 
ATOM     11  C   UNL     1      45.421   4.637  10.802  0.00  0.00    +0.000 C 
ATOM     12  C   UNL     1      43.555   5.865  11.977  0.00  0.00    +0.000 C 
BRANCH  10  13
ATOM     13  C   UNL     1      45.911   6.717  12.140  0.00  0.00    +0.000 A 
ATOM     14  C   UNL     1      45.451   7.881  12.761  0.00  0.00    +0.000 A 
ATOM     15  C   UNL     1      46.281   9.000  12.824  0.00  0.00    +0.000 A 
ATOM     16  C   UNL     1      47.550   8.943  12.265  0.00  0.00    +0.000 A 
ATOM     17  C   UNL     1      47.936   7.762  11.664  0.00  0.00    +0.000 A 
ATOM     18  N   UNL     1      47.154   6.663  11.596  0.00  0.00    +0.000 NA
ENDBRANCH  10  13
ENDBRANCH   9  10
ENDBRANCH   7   9
ENDBRANCH   4   7
BRANCH   1  19
ATOM     19  C   UNL     1      49.067   6.070  18.585  0.00  0.00    +0.000 C 
BRANCH  19  22
ATOM     20  C   UNL     1      51.454   5.509  18.882  0.00  0.00    +0.000 C 
ATOM     21  O   UNL     1      51.813   6.631  18.534  0.00  0.00    +0.000 OA
ATOM     22  N   UNL     1      50.131   5.176  18.971  0.00  0.00    +0.000 N 
ATOM     23  H   UNL     1      49.865   4.224  19.180  0.00  0.00    +0.000 HD
BRANCH  20  31
ATOM     24  C   UNL     1      52.036   2.325  17.697  0.00  0.00    +0.000 A 
ATOM     25  N   UNL     1      52.521   1.107  17.376  0.00  0.00    +0.000 NA
ATOM     26  C   UNL     1      53.598   0.670  18.031  0.00  0.00    +0.000 A 
ATOM     27  N   UNL     1      54.259   1.301  18.996  0.00  0.00    +0.000 NA
ATOM     28  C   UNL     1      53.751   2.513  19.279  0.00  0.00    +0.000 A 
ATOM     29  S   UNL     1      54.465   3.459  20.492  0.00  0.00    +0.000 S 
ATOM     30  C   UNL     1      53.358   4.721  20.228  0.00  0.00    +0.000 A 
ATOM     31  C   UNL     1      52.437   4.462  19.221  0.00  0.00    +0.000 A 
ATOM     32  C   UNL     1      52.658   3.124  18.672  0.00  0.00    +0.000 A 
BRANCH  24  34
ATOM     33  C   UNL     1      49.891   1.821  16.915  0.00  0.00    +0.000 C 
ATOM     34  O   UNL     1      50.938   2.783  16.999  0.00  0.00    +0.000 OA
ENDBRANCH  24  34
ENDBRANCH  20  31
ENDBRANCH  19  22
ENDBRANCH   1  19
TORSDOF 8
ENDMDL
MODEL 7
REMARK VINA RESULT:    -5.812      1.735      2.741
REMARK INTER + INTRA:         -10.060
REMARK INTER:                  -8.861
REMARK INTRA:                  -1.199
REMARK UNBOUND:                -1.530
REMARK  Name = 
REMARK  11 active torsions:
REMARK  status: ('A' for Active; 'I' for Inactive)
REMARK    1  A    between atoms: C_1  and  O_2
REMARK    2  A    between atoms: O_2  and  C_3
REMARK    3  A    between atoms: C_10  and  C_11
REMARK    4  A    between atoms: N_13  and  C_14
REMARK    5  A    between atoms: C_14  and  C_15
REMARK    6  A    between atoms: C_18  and  N_19
REMARK    7  A    between atoms: N_19  and  C_20
REMARK    8  A    between atoms: C_20  and  C_21
REMARK    9  A    between atoms: C_21  and  C_22
REMARK   10  A    between atoms: C_21  and  C_23
REMARK   11  A    between atoms: C_21  and  C_24
REMARK                            x       y       z     vdW  Elec       q    Type
REMARK                         _______ _______ _______ _____ _____    ______ ____
ROOT
ATOM      1  C   UNL     1      48.495   7.881  14.634  0.00  0.00    +0.000 A 
ATOM      2  C   UNL     1      48.395   6.578  14.137  0.00  0.00    +0.000 A 
ATOM      3  C   UNL     1      47.368   6.225  13.254  0.00  0.00    +0.000 A 
ATOM      4  C   UNL     1      46.440   7.168  12.800  0.00  0.00    +0.000 A 
ATOM      5  C   UNL     1      46.555   8.476  13.292  0.00  0.00    +0.000 A 
ATOM      6  C   UNL     1      47.567   8.832  14.197  0.00  0.00    +0.000 A 
ENDROOT
BRANCH   4   7
ATOM      7  N   UNL     1      45.345   6.855  11.982  0.00  0.00    +0.000 N 
ATOM      8  H   UNL     1      44.703   7.635  11.901  0.00  0.00    +0.000 HD
BRANCH   7   9
ATOM      9  C   UNL     1      45.565   6.083  10.749  0.00  0.00    +0.000 C 
BRANCH   9  10
ATOM     10  C   UNL     1      44.858   4.690  10.731  0.00  0.00    +0.000 C 
ATOM     11  C   UNL     1      45.159   3.937  12.041  0.00  0.00    +0.000 C 
ATOM     12  C   UNL     1      43.335   4.881  10.574  0.00  0.00    +0.000 C 
BRANCH  10  13
ATOM     13  C   UNL     1      45.384   3.873   9.531  0.00  0.00    +0.000 A 
ATOM     14  C   UNL     1      45.309   2.478   9.506  0.00  0.00    +0.000 A 
ATOM     15  C   UNL     1      45.785   1.784   8.394  0.00  0.00    +0.000 A 
ATOM     16  C   UNL     1      46.328   2.489   7.329  0.00  0.00    +0.000 A 
ATOM     17  C   UNL     1      46.372   3.865   7.423  0.00  0.00    +0.000 A 
ATOM     18  N   UNL     1      45.912   4.561   8.486  0.00  0.00    +0.000 NA
ENDBRANCH  10  13
ENDBRANCH   9  10
ENDBRANCH   7   9
ENDBRANCH   4   7
BRANCH   1  19
ATOM     19  C   UNL     1      49.608   8.235  15.586  0.00  0.00    +0.000 C 
BRANCH  19  22
ATOM     20  C   UNL     1      50.186   6.340  17.060  0.00  0.00    +0.000 C 
ATOM     21  O   UNL     1      49.275   6.603  17.840  0.00  0.00    +0.000 OA
ATOM     22  N   UNL     1      50.384   7.065  15.919  0.00  0.00    +0.000 N 
ATOM     23  H   UNL     1      51.189   6.880  15.338  0.00  0.00    +0.000 HD
BRANCH  20  31
ATOM     24  C   UNL     1      53.622   6.098  17.212  0.00  0.00    +0.000 A 
ATOM     25  N   UNL     1      54.910   5.743  17.400  0.00  0.00    +0.000 NA
ATOM     26  C   UNL     1      55.168   4.478  17.739  0.00  0.00    +0.000 A 
ATOM     27  N   UNL     1      54.286   3.498  17.905  0.00  0.00    +0.000 NA
ATOM     28  C   UNL     1      53.015   3.895  17.719  0.00  0.00    +0.000 A 
ATOM     29  S   UNL     1      51.754   2.772  17.883  0.00  0.00    +0.000 S 
ATOM     30  C   UNL     1      50.586   3.961  17.551  0.00  0.00    +0.000 A 
ATOM     31  C   UNL     1      51.117   5.223  17.319  0.00  0.00    +0.000 A 
ATOM     32  C   UNL     1      52.577   5.175  17.393  0.00  0.00    +0.000 A 
BRANCH  24  34
ATOM     33  C   UNL     1      53.427   8.287  18.008  0.00  0.00    +0.000 C 
ATOM     34  O   UNL     1      53.359   7.412  16.887  0.00  0.00    +0.000 OA
ENDBRANCH  24  34
ENDBRANCH  20  31
ENDBRANCH  19  22
ENDBRANCH   1  19
TORSDOF 8
ENDMDL
MODEL 8
REMARK VINA RESULT:    -5.625      1.993      3.347
REMARK INTER + INTRA:          -9.785
REMARK INTER:                  -8.527
REMARK INTRA:                  -1.258
REMARK UNBOUND:                -1.530
REMARK  Name = 
REMARK  11 active torsions:
REMARK  status: ('A' for Active; 'I' for Inactive)
REMARK    1  A    between atoms: C_1  and  O_2
REMARK    2  A    between atoms: O_2  and  C_3
REMARK    3  A    between atoms: C_10  and  C_11
REMARK    4  A    between atoms: N_13  and  C_14
REMARK    5  A    between atoms: C_14  and  C_15
REMARK    6  A    between atoms: C_18  and  N_19
REMARK    7  A    between atoms: N_19  and  C_20
REMARK    8  A    between atoms: C_20  and  C_21
REMARK    9  A    between atoms: C_21  and  C_22
REMARK   10  A    between atoms: C_21  and  C_23
REMARK   11  A    between atoms: C_21  and  C_24
REMARK                            x       y       z     vdW  Elec       q    Type
REMARK                         _______ _______ _______ _____ _____    ______ ____
ROOT
ATOM      1  C   UNL     1      48.325   3.826  16.956  0.00  0.00    +0.000 A 
ATOM      2  C   UNL     1      48.295   5.193  16.662  0.00  0.00    +0.000 A 
ATOM      3  C   UNL     1      47.751   5.654  15.458  0.00  0.00    +0.000 A 
ATOM      4  C   UNL     1      47.175   4.777  14.533  0.00  0.00    +0.000 A 
ATOM      5  C   UNL     1      47.197   3.409  14.841  0.00  0.00    +0.000 A 
ATOM      6  C   UNL     1      47.763   2.936  16.036  0.00  0.00    +0.000 A 
ENDROOT
BRANCH   4   7
ATOM      7  N   UNL     1      46.690   5.172  13.279  0.00  0.00    +0.000 N 
ATOM      8  H   UNL     1      47.397   5.078  12.557  0.00  0.00    +0.000 HD
BRANCH   7   9
ATOM      9  C   UNL     1      45.324   4.795  12.883  0.00  0.00    +0.000 C 
BRANCH   9  10
ATOM     10  C   UNL     1      44.811   5.510  11.592  0.00  0.00    +0.000 C 
ATOM     11  C   UNL     1      43.328   5.892  11.763  0.00  0.00    +0.000 C 
ATOM     12  C   UNL     1      45.651   6.778  11.331  0.00  0.00    +0.000 C 
BRANCH  10  13
ATOM     13  C   UNL     1      44.966   4.554  10.390  0.00  0.00    +0.000 A 
ATOM     14  C   UNL     1      45.596   4.957   9.210  0.00  0.00    +0.000 A 
ATOM     15  C   UNL     1      45.723   4.054   8.156  0.00  0.00    +0.000 A 
ATOM     16  C   UNL     1      45.220   2.768   8.292  0.00  0.00    +0.000 A 
ATOM     17  C   UNL     1      44.608   2.439   9.485  0.00  0.00    +0.000 A 
ATOM     18  N   UNL     1      44.478   3.294  10.523  0.00  0.00    +0.000 NA
ENDBRANCH  10  13
ENDBRANCH   9  10
ENDBRANCH   7   9
ENDBRANCH   4   7
BRANCH   1  19
ATOM     19  C   UNL     1      48.919   3.354  18.258  0.00  0.00    +0.000 C 
BRANCH  19  22
ATOM     20  C   UNL     1      51.079   4.367  18.897  0.00  0.00    +0.000 C 
ATOM     21  O   UNL     1      50.537   5.169  19.652  0.00  0.00    +0.000 OA
ATOM     22  N   UNL     1      50.359   3.426  18.216  0.00  0.00    +0.000 N 
ATOM     23  H   UNL     1      50.818   2.834  17.539  0.00  0.00    +0.000 HD
BRANCH  20  31
ATOM     24  C   UNL     1      53.136   5.964  16.638  0.00  0.00    +0.000 A 
ATOM     25  N   UNL     1      54.155   6.511  15.942  0.00  0.00    +0.000 NA
ATOM     26  C   UNL     1      55.400   6.184  16.294  0.00  0.00    +0.000 A 
ATOM     27  N   UNL     1      55.765   5.351  17.264  0.00  0.00    +0.000 NA
ATOM     28  C   UNL     1      54.723   4.837  17.938  0.00  0.00    +0.000 A 
ATOM     29  S   UNL     1      55.001   3.747  19.208  0.00  0.00    +0.000 S 
ATOM     30  C   UNL     1      53.336   3.610  19.521  0.00  0.00    +0.000 A 
ATOM     31  C   UNL     1      52.540   4.382  18.685  0.00  0.00    +0.000 A 
ATOM     32  C   UNL     1      53.373   5.097  17.718  0.00  0.00    +0.000 A 
BRANCH  24  34
ATOM     33  C   UNL     1      51.566   7.694  16.558  0.00  0.00    +0.000 C 
ATOM     34  O   UNL     1      51.853   6.326  16.286  0.00  0.00    +0.000 OA
ENDBRANCH  24  34
ENDBRANCH  20  31
ENDBRANCH  19  22
ENDBRANCH   1  19
TORSDOF 8
ENDMDL
MODEL 9
REMARK VINA RESULT:    -5.614      2.730      3.819
REMARK INTER + INTRA:          -9.769
REMARK INTER:                  -8.678
REMARK INTRA:                  -1.090
REMARK UNBOUND:                -1.530
REMARK  Name = 
REMARK  11 active torsions:
REMARK  status: ('A' for Active; 'I' for Inactive)
REMARK    1  A    between atoms: C_1  and  O_2
REMARK    2  A    between atoms: O_2  and  C_3
REMARK    3  A    between atoms: C_10  and  C_11
REMARK    4  A    between atoms: N_13  and  C_14
REMARK    5  A    between atoms: C_14  and  C_15
REMARK    6  A    between atoms: C_18  and  N_19
REMARK    7  A    between atoms: N_19  and  C_20
REMARK    8  A    between atoms: C_20  and  C_21
REMARK    9  A    between atoms: C_21  and  C_22
REMARK   10  A    between atoms: C_21  and  C_23
REMARK   11  A    between atoms: C_21  and  C_24
REMARK                            x       y       z     vdW  Elec       q    Type
REMARK                         _______ _______ _______ _____ _____    ______ ____
ROOT
ATOM      1  C   UNL     1      47.628   7.773  13.464  0.00  0.00    +0.000 A 
ATOM      2  C   UNL     1      47.223   6.547  14.001  0.00  0.00    +0.000 A 
ATOM      3  C   UNL     1      46.492   5.635  13.231  0.00  0.00    +0.000 A 
ATOM      4  C   UNL     1      46.186   5.891  11.890  0.00  0.00    +0.000 A 
ATOM      5  C   UNL     1      46.607   7.117  11.355  0.00  0.00    +0.000 A 
ATOM      6  C   UNL     1      47.319   8.047  12.127  0.00  0.00    +0.000 A 
ENDROOT
BRANCH   4   7
ATOM      7  N   UNL     1      45.390   5.053  11.097  0.00  0.00    +0.000 N 
ATOM      8  H   UNL     1      44.402   5.235  11.234  0.00  0.00    +0.000 HD
BRANCH   7   9
ATOM      9  C   UNL     1      45.798   4.771   9.712  0.00  0.00    +0.000 C 
BRANCH   9  10
ATOM     10  C   UNL     1      45.067   3.552   9.065  0.00  0.00    +0.000 C 
ATOM     11  C   UNL     1      44.732   2.510  10.149  0.00  0.00    +0.000 C 
ATOM     12  C   UNL     1      43.771   4.028   8.376  0.00  0.00    +0.000 C 
BRANCH  10  13
ATOM     13  C   UNL     1      45.990   2.916   8.002  0.00  0.00    +0.000 A 
ATOM     14  C   UNL     1      46.458   3.647   6.908  0.00  0.00    +0.000 A 
ATOM     15  C   UNL     1      47.301   3.034   5.981  0.00  0.00    +0.000 A 
ATOM     16  C   UNL     1      47.659   1.705   6.158  0.00  0.00    +0.000 A 
ATOM     17  C   UNL     1      47.157   1.044   7.260  0.00  0.00    +0.000 A 
ATOM     18  N   UNL     1      46.345   1.617   8.175  0.00  0.00    +0.000 NA
ENDBRANCH  10  13
ENDBRANCH   9  10
ENDBRANCH   7   9
ENDBRANCH   4   7
BRANCH   1  19
ATOM     19  C   UNL     1      48.411   8.739  14.314  0.00  0.00    +0.000 C 
BRANCH  19  22
ATOM     20  C   UNL     1      49.026   8.431  16.686  0.00  0.00    +0.000 C 
ATOM     21  O   UNL     1      50.225   8.513  16.438  0.00  0.00    +0.000 OA
ATOM     22  N   UNL     1      48.081   8.573  15.708  0.00  0.00    +0.000 N 
ATOM     23  H   UNL     1      47.107   8.419  15.924  0.00  0.00    +0.000 HD
BRANCH  20  31
ATOM     24  C   UNL     1      48.856   5.603  18.651  0.00  0.00    +0.000 A 
ATOM     25  N   UNL     1      48.745   4.690  19.638  0.00  0.00    +0.000 NA
ATOM     26  C   UNL     1      48.271   5.098  20.817  0.00  0.00    +0.000 A 
ATOM     27  N   UNL     1      47.873   6.324  21.139  0.00  0.00    +0.000 NA
ATOM     28  C   UNL     1      48.009   7.205  20.133  0.00  0.00    +0.000 A 
ATOM     29  S   UNL     1      47.544   8.820  20.362  0.00  0.00    +0.000 S 
ATOM     30  C   UNL     1      48.020   9.233  18.784  0.00  0.00    +0.000 A 
ATOM     31  C   UNL     1      48.543   8.172  18.057  0.00  0.00    +0.000 A 
ATOM     32  C   UNL     1      48.511   6.949  18.859  0.00  0.00    +0.000 A 
BRANCH  24  34
ATOM     33  C   UNL     1      49.852   3.842  17.479  0.00  0.00    +0.000 C 
ATOM     34  O   UNL     1      49.370   5.181  17.442  0.00  0.00    +0.000 OA
ENDBRANCH  24  34
ENDBRANCH  20  31
ENDBRANCH  19  22
ENDBRANCH   1  19
TORSDOF 8
ENDMDL
