MODEL 1
REMARK VINA RESULT:    -8.577      0.000      0.000
REMARK INTER + INTRA:         -13.438
REMARK INTER:                 -12.589
REMARK INTRA:                  -0.849
REMARK UNBOUND:                -0.849
REMARK  Name = 
REMARK  9 active torsions:
REMARK  status: ('A' for Active; 'I' for Inactive)
REMARK    1  A    between atoms: C_1  and  O_2
REMARK    2  A    between atoms: O_2  and  C_3
REMARK    3  A    between atoms: C_5  and  C_6
REMARK    4  A    between atoms: C_6  and  N_7
REMARK    5  A    between atoms: C_8  and  C_10
REMARK    6  A    between atoms: C_22  and  C_23
REMARK    7  A    between atoms: C_23  and  N_24
REMARK    8  A    between atoms: N_24  and  C_25
REMARK    9  A    between atoms: C_25  and  C_26
REMARK                            x       y       z     vdW  Elec       q    Type
REMARK                         _______ _______ _______ _____ _____    ______ ____
ROOT
ATOM      1  C   UNL     1      44.986   5.242  11.779  0.00  0.00    +0.000 A 
ATOM      2  C   UNL     1      46.028   6.005  12.328  0.00  0.00    +0.000 A 
ATOM      3  C   UNL     1      46.962   5.432  13.197  0.00  0.00    +0.000 A 
ATOM      4  C   UNL     1      46.831   4.078  13.452  0.00  0.00    +0.000 A 
ATOM      5  N   UNL     1      45.848   3.307  12.939  0.00  0.00    +0.000 NA
ATOM      6  C   UNL     1      44.943   3.877  12.086  0.00  0.00    +0.000 A 
ENDROOT
BRANCH   1   8
ATOM      7  C   UNL     1      42.870   6.279  11.414  0.00  0.00    +0.000 C 
ATOM      8  O   UNL     1      44.170   5.949  10.939  0.00  0.00    +0.000 OA
ENDBRANCH   1   8
BRANCH   3   9
ATOM      9  C   UNL     1      48.070   6.227  13.819  0.00  0.00    +0.000 C 
BRANCH   9  10
ATOM     10  N   UNL     1      47.855   6.442  15.228  0.00  0.00    +0.000 N 
ATOM     11  C   UNL     1      48.911   6.461  16.105  0.00  0.00    +0.000 C 
ATOM     12  O   UNL     1      50.074   6.356  15.720  0.00  0.00    +0.000 OA
ATOM     13  H   UNL     1      46.916   6.296  15.585  0.00  0.00    +0.000 HD
BRANCH  11  14
ATOM     14  C   UNL     1      48.594   6.673  17.522  0.00  0.00    +0.000 A 
ATOM     15  C   UNL     1      48.260   7.945  17.967  0.00  0.00    +0.000 A 
ATOM     16  S   UNL     1      47.871   8.012  19.629  0.00  0.00    +0.000 S 
ATOM     17  C   UNL     1      48.190   6.352  19.823  0.00  0.00    +0.000 A 
ATOM     18  N   UNL     1      48.068   5.755  21.041  0.00  0.00    +0.000 NA
ATOM     19  C   UNL     1      48.370   4.499  21.051  0.00  0.00    +0.000 A 
ATOM     20  N   UNL     1      48.775   3.785  19.954  0.00  0.00    +0.000 N 
ATOM     21  C   UNL     1      48.890   4.342  18.701  0.00  0.00    +0.000 A 
ATOM     22  O   UNL     1      49.229   3.665  17.733  0.00  0.00    +0.000 OA
ATOM     23  C   UNL     1      48.571   5.750  18.635  0.00  0.00    +0.000 A 
ATOM     24  H   UNL     1      48.989   2.801  20.028  0.00  0.00    +0.000 HD
ENDBRANCH  11  14
ENDBRANCH   9  10
ENDBRANCH   3   9
BRANCH   6  25
ATOM     25  C   UNL     1      43.920   2.930  11.478  0.00  0.00    +0.000 C 
BRANCH  25  26
ATOM     26  N   UNL     1      44.433   2.166  10.341  0.00  0.00    +0.000 NA
ATOM     27  H   UNL     1      43.818   1.362  10.201  0.00  0.00    +0.000 HD
BRANCH  26  28
ATOM     28  C   UNL     1      44.535   2.960   9.127  0.00  0.00    +0.000 C 
BRANCH  28  29
ATOM     29  C   UNL     1      45.669   2.437   8.282  0.00  0.00    +0.000 A 
ATOM     30  C   UNL     1      45.974   1.077   8.235  0.00  0.00    +0.000 A 
ATOM     31  C   UNL     1      47.070   0.673   7.489  0.00  0.00    +0.000 A 
ATOM     32  N   UNL     1      47.869   1.518   6.799  0.00  0.00    +0.000 NA
ATOM     33  C   UNL     1      47.553   2.827   6.858  0.00  0.00    +0.000 A 
ATOM     34  C   UNL     1      46.472   3.326   7.565  0.00  0.00    +0.000 A 
ENDBRANCH  28  29
ENDBRANCH  26  28
ENDBRANCH  25  26
ENDBRANCH   6  25
TORSDOF 8
ENDMDL
MODEL 2
REMARK VINA RESULT:    -8.429      1.973      2.247
REMARK INTER + INTRA:         -13.220
REMARK INTER:                 -11.905
REMARK INTRA:                  -1.315
REMARK UNBOUND:                -0.849
REMARK  Name = 
REMARK  9 active torsions:
REMARK  status: ('A' for Active; 'I' for Inactive)
REMARK    1  A    between atoms: C_1  and  O_2
REMARK    2  A    between atoms: O_2  and  C_3
REMARK    3  A    between atoms: C_5  and  C_6
REMARK    4  A    between atoms: C_6  and  N_7
REMARK    5  A    between atoms: C_8  and  C_10
REMARK    6  A    between atoms: C_22  and  C_23
REMARK    7  A    between atoms: C_23  and  N_24
REMARK    8  A    between atoms: N_24  and  C_25
REMARK    9  A    between atoms: C_25  and  C_26
REMARK                            x       y       z     vdW  Elec       q    Type
REMARK                         _______ _______ _______ _____ _____    ______ ____
ROOT
ATOM      1  C   UNL     1      44.186   5.803  12.165  0.00  0.00    +0.000 A 
ATOM      2  C   UNL     1      45.049   6.605  12.927  0.00  0.00    +0.000 A 
ATOM      3  C   UNL     1      46.274   7.041  12.410  0.00  0.00    +0.000 A 
ATOM      4  C   UNL     1      46.568   6.677  11.107  0.00  0.00    +0.000 A 
ATOM      5  N   UNL     1      45.762   5.912  10.339  0.00  0.00    +0.000 NA
ATOM      6  C   UNL     1      44.565   5.497  10.854  0.00  0.00    +0.000 A 
ENDROOT
BRANCH   1   8
ATOM      7  C   UNL     1      43.016   4.275  13.573  0.00  0.00    +0.000 C 
ATOM      8  O   UNL     1      43.025   5.477  12.812  0.00  0.00    +0.000 OA
ENDBRANCH   1   8
BRANCH   3   9
ATOM      9  C   UNL     1      47.228   7.877  13.208  0.00  0.00    +0.000 C 
BRANCH   9  10
ATOM     10  N   UNL     1      47.556   7.265  14.471  0.00  0.00    +0.000 N 
ATOM     11  C   UNL     1      48.834   6.840  14.735  0.00  0.00    +0.000 C 
ATOM     12  O   UNL     1      49.753   7.017  13.936  0.00  0.00    +0.000 OA
ATOM     13  H   UNL     1      46.788   6.905  15.030  0.00  0.00    +0.000 HD
BRANCH  11  14
ATOM     14  C   UNL     1      49.070   6.216  16.042  0.00  0.00    +0.000 A 
ATOM     15  C   UNL     1      50.046   6.735  16.884  0.00  0.00    +0.000 A 
ATOM     16  S   UNL     1      50.161   5.928  18.384  0.00  0.00    +0.000 S 
ATOM     17  C   UNL     1      48.948   4.821  17.939  0.00  0.00    +0.000 A 
ATOM     18  N   UNL     1      48.568   3.823  18.784  0.00  0.00    +0.000 NA
ATOM     19  C   UNL     1      47.659   3.037  18.307  0.00  0.00    +0.000 A 
ATOM     20  N   UNL     1      47.092   3.163  17.067  0.00  0.00    +0.000 N 
ATOM     21  C   UNL     1      47.429   4.168  16.189  0.00  0.00    +0.000 A 
ATOM     22  O   UNL     1      46.880   4.268  15.095  0.00  0.00    +0.000 OA
ATOM     23  C   UNL     1      48.449   5.073  16.671  0.00  0.00    +0.000 A 
ATOM     24  H   UNL     1      46.380   2.518  16.757  0.00  0.00    +0.000 HD
ENDBRANCH  11  14
ENDBRANCH   9  10
ENDBRANCH   3   9
BRANCH   6  25
ATOM     25  C   UNL     1      43.672   4.716   9.901  0.00  0.00    +0.000 C 
BRANCH  25  26
ATOM     26  N   UNL     1      44.390   4.139   8.766  0.00  0.00    +0.000 NA
ATOM     27  H   UNL     1      45.268   4.651   8.657  0.00  0.00    +0.000 HD
BRANCH  26  28
ATOM     28  C   UNL     1      44.637   2.714   8.918  0.00  0.00    +0.000 C 
BRANCH  28  29
ATOM     29  C   UNL     1      45.827   2.320   8.080  0.00  0.00    +0.000 A 
ATOM     30  C   UNL     1      46.277   1.001   8.030  0.00  0.00    +0.000 A 
ATOM     31  C   UNL     1      47.416   0.721   7.292  0.00  0.00    +0.000 A 
ATOM     32  N   UNL     1      48.125   1.650   6.613  0.00  0.00    +0.000 NA
ATOM     33  C   UNL     1      47.669   2.918   6.673  0.00  0.00    +0.000 A 
ATOM     34  C   UNL     1      46.535   3.294   7.373  0.00  0.00    +0.000 A 
ENDBRANCH  28  29
ENDBRANCH  26  28
ENDBRANCH  25  26
ENDBRANCH   6  25
TORSDOF 8
ENDMDL
MODEL 3
REMARK VINA RESULT:    -8.333      1.416      2.102
REMARK INTER + INTRA:         -13.078
REMARK INTER:                 -11.989
REMARK INTRA:                  -1.090
REMARK UNBOUND:                -0.849
REMARK  Name = 
REMARK  9 active torsions:
REMARK  status: ('A' for Active; 'I' for Inactive)
REMARK    1  A    between atoms: C_1  and  O_2
REMARK    2  A    between atoms: O_2  and  C_3
REMARK    3  A    between atoms: C_5  and  C_6
REMARK    4  A    between atoms: C_6  and  N_7
REMARK    5  A    between atoms: C_8  and  C_10
REMARK    6  A    between atoms: C_22  and  C_23
REMARK    7  A    between atoms: C_23  and  N_24
REMARK    8  A    between atoms: N_24  and  C_25
REMARK    9  A    between atoms: C_25  and  C_26
REMARK                            x       y       z     vdW  Elec       q    Type
REMARK                         _______ _______ _______ _____ _____    ______ ____
ROOT
ATOM      1  C   UNL     1      45.047   5.466  12.084  0.00  0.00    +0.000 A 
ATOM      2  C   UNL     1      46.113   6.104  12.736  0.00  0.00    +0.000 A 
ATOM      3  C   UNL     1      47.001   5.384  13.543  0.00  0.00    +0.000 A 
ATOM      4  C   UNL     1      46.799   4.018  13.631  0.00  0.00    +0.000 A 
ATOM      5  N   UNL     1      45.790   3.365  13.015  0.00  0.00    +0.000 NA
ATOM      6  C   UNL     1      44.931   4.078  12.225  0.00  0.00    +0.000 A 
ENDROOT
BRANCH   1   8
ATOM      7  C   UNL     1      44.566   7.700  11.403  0.00  0.00    +0.000 C 
ATOM      8  O   UNL     1      44.283   6.308  11.325  0.00  0.00    +0.000 OA
ENDBRANCH   1   8
BRANCH   3   9
ATOM      9  C   UNL     1      48.133   6.043  14.271  0.00  0.00    +0.000 C 
BRANCH   9  10
ATOM     10  N   UNL     1      47.887   6.127  15.689  0.00  0.00    +0.000 N 
ATOM     11  C   UNL     1      48.913   5.989  16.590  0.00  0.00    +0.000 C 
ATOM     12  O   UNL     1      50.080   5.849  16.226  0.00  0.00    +0.000 OA
ATOM     13  H   UNL     1      46.930   6.006  16.005  0.00  0.00    +0.000 HD
BRANCH  11  14
ATOM     14  C   UNL     1      48.564   6.077  18.013  0.00  0.00    +0.000 A 
ATOM     15  C   UNL     1      48.654   4.944  18.811  0.00  0.00    +0.000 A 
ATOM     16  S   UNL     1      48.261   5.225  20.449  0.00  0.00    +0.000 S 
ATOM     17  C   UNL     1      47.903   6.859  20.137  0.00  0.00    +0.000 A 
ATOM     18  N   UNL     1      47.474   7.683  21.132  0.00  0.00    +0.000 NA
ATOM     19  C   UNL     1      47.210   8.889  20.749  0.00  0.00    +0.000 A 
ATOM     20  N   UNL     1      47.343   9.346  19.465  0.00  0.00    +0.000 N 
ATOM     21  C   UNL     1      47.794   8.555  18.432  0.00  0.00    +0.000 A 
ATOM     22  O   UNL     1      47.928   9.005  17.298  0.00  0.00    +0.000 OA
ATOM     23  C   UNL     1      48.097   7.191  18.806  0.00  0.00    +0.000 A 
ATOM     24  H   UNL     1      47.127  10.304  19.232  0.00  0.00    +0.000 HD
ENDBRANCH  11  14
ENDBRANCH   9  10
ENDBRANCH   3   9
BRANCH   6  25
ATOM     25  C   UNL     1      43.876   3.263  11.493  0.00  0.00    +0.000 C 
BRANCH  25  26
ATOM     26  N   UNL     1      44.410   2.474  10.383  0.00  0.00    +0.000 NA
ATOM     27  H   UNL     1      43.769   1.697  10.214  0.00  0.00    +0.000 HD
BRANCH  26  28
ATOM     28  C   UNL     1      44.605   3.259   9.175  0.00  0.00    +0.000 C 
BRANCH  28  29
ATOM     29  C   UNL     1      45.668   2.611   8.324  0.00  0.00    +0.000 A 
ATOM     30  C   UNL     1      45.874   1.231   8.343  0.00  0.00    +0.000 A 
ATOM     31  C   UNL     1      46.911   0.709   7.586  0.00  0.00    +0.000 A 
ATOM     32  N   UNL     1      47.743   1.456   6.825  0.00  0.00    +0.000 NA
ATOM     33  C   UNL     1      47.523   2.786   6.821  0.00  0.00    +0.000 A 
ATOM     34  C   UNL     1      46.506   3.399   7.533  0.00  0.00    +0.000 A 
ENDBRANCH  28  29
ENDBRANCH  26  28
ENDBRANCH  25  26
ENDBRANCH   6  25
TORSDOF 8
ENDMDL
MODEL 4
REMARK VINA RESULT:    -8.317      1.938      3.095
REMARK INTER + INTRA:         -13.056
REMARK INTER:                 -11.954
REMARK INTRA:                  -1.102
REMARK UNBOUND:                -0.849
REMARK  Name = 
REMARK  9 active torsions:
REMARK  status: ('A' for Active; 'I' for Inactive)
REMARK    1  A    between atoms: C_1  and  O_2
REMARK    2  A    between atoms: O_2  and  C_3
REMARK    3  A    between atoms: C_5  and  C_6
REMARK    4  A    between atoms: C_6  and  N_7
REMARK    5  A    between atoms: C_8  and  C_10
REMARK    6  A    between atoms: C_22  and  C_23
REMARK    7  A    between atoms: C_23  and  N_24
REMARK    8  A    between atoms: N_24  and  C_25
REMARK    9  A    between atoms: C_25  and  C_26
REMARK                            x       y       z     vdW  Elec       q    Type
REMARK                         _______ _______ _______ _____ _____    ______ ____
ROOT
ATOM      1  C   UNL     1      45.487   3.950  12.006  0.00  0.00    +0.000 A 
ATOM      2  C   UNL     1      46.015   3.600  13.258  0.00  0.00    +0.000 A 
ATOM      3  C   UNL     1      46.801   4.498  13.987  0.00  0.00    +0.000 A 
ATOM      4  C   UNL     1      46.996   5.752  13.434  0.00  0.00    +0.000 A 
ATOM      5  N   UNL     1      46.501   6.130  12.236  0.00  0.00    +0.000 NA
ATOM      6  C   UNL     1      45.729   5.245  11.534  0.00  0.00    +0.000 A 
ENDROOT
BRANCH   1   8
ATOM      7  C   UNL     1      43.347   2.927  11.760  0.00  0.00    +0.000 C 
ATOM      8  O   UNL     1      44.731   2.966  11.432  0.00  0.00    +0.000 OA
ENDBRANCH   1   8
BRANCH   3   9
ATOM      9  C   UNL     1      47.399   4.143  15.315  0.00  0.00    +0.000 C 
BRANCH   9  10
ATOM     10  N   UNL     1      47.400   5.263  16.223  0.00  0.00    +0.000 N 
ATOM     11  C   UNL     1      48.541   5.618  16.899  0.00  0.00    +0.000 C 
ATOM     12  O   UNL     1      49.609   5.037  16.716  0.00  0.00    +0.000 OA
ATOM     13  H   UNL     1      46.501   5.594  16.558  0.00  0.00    +0.000 HD
BRANCH  11  14
ATOM     14  C   UNL     1      48.443   6.763  17.811  0.00  0.00    +0.000 A 
ATOM     15  C   UNL     1      48.408   6.547  19.183  0.00  0.00    +0.000 A 
ATOM     16  S   UNL     1      48.343   7.983  20.104  0.00  0.00    +0.000 S 
ATOM     17  C   UNL     1      48.303   8.943  18.700  0.00  0.00    +0.000 A 
ATOM     18  N   UNL     1      48.222  10.300  18.782  0.00  0.00    +0.000 NA
ATOM     19  C   UNL     1      48.168  10.901  17.640  0.00  0.00    +0.000 A 
ATOM     20  N   UNL     1      48.196  10.271  16.424  0.00  0.00    +0.000 N 
ATOM     21  C   UNL     1      48.300   8.904  16.293  0.00  0.00    +0.000 A 
ATOM     22  O   UNL     1      48.351   8.374  15.186  0.00  0.00    +0.000 OA
ATOM     23  C   UNL     1      48.356   8.181  17.544  0.00  0.00    +0.000 A 
ATOM     24  H   UNL     1      48.159  10.801  15.566  0.00  0.00    +0.000 HD
ENDBRANCH  11  14
ENDBRANCH   9  10
ENDBRANCH   3   9
BRANCH   6  25
ATOM     25  C   UNL     1      45.133   5.772  10.237  0.00  0.00    +0.000 C 
BRANCH  25  26
ATOM     26  N   UNL     1      45.760   5.219   9.037  0.00  0.00    +0.000 NA
ATOM     27  H   UNL     1      46.692   4.889   9.295  0.00  0.00    +0.000 HD
BRANCH  26  28
ATOM     28  C   UNL     1      44.979   4.152   8.433  0.00  0.00    +0.000 C 
BRANCH  28  29
ATOM     29  C   UNL     1      45.910   3.114   7.860  0.00  0.00    +0.000 A 
ATOM     30  C   UNL     1      45.870   1.787   8.285  0.00  0.00    +0.000 A 
ATOM     31  C   UNL     1      46.799   0.899   7.764  0.00  0.00    +0.000 A 
ATOM     32  N   UNL     1      47.748   1.240   6.864  0.00  0.00    +0.000 NA
ATOM     33  C   UNL     1      47.766   2.528   6.466  0.00  0.00    +0.000 A 
ATOM     34  C   UNL     1      46.873   3.484   6.919  0.00  0.00    +0.000 A 
ENDBRANCH  28  29
ENDBRANCH  26  28
ENDBRANCH  25  26
ENDBRANCH   6  25
TORSDOF 8
ENDMDL
MODEL 5
REMARK VINA RESULT:    -8.105      1.785      2.703
REMARK INTER + INTRA:         -12.744
REMARK INTER:                 -11.558
REMARK INTRA:                  -1.187
REMARK UNBOUND:                -0.849
REMARK  Name = 
REMARK  9 active torsions:
REMARK  status: ('A' for Active; 'I' for Inactive)
REMARK    1  A    between atoms: C_1  and  O_2
REMARK    2  A    between atoms: O_2  and  C_3
REMARK    3  A    between atoms: C_5  and  C_6
REMARK    4  A    between atoms: C_6  and  N_7
REMARK    5  A    between atoms: C_8  and  C_10
REMARK    6  A    between atoms: C_22  and  C_23
REMARK    7  A    between atoms: C_23  and  N_24
REMARK    8  A    between atoms: N_24  and  C_25
REMARK    9  A    between atoms: C_25  and  C_26
REMARK                            x       y       z     vdW  Elec       q    Type
REMARK                         _______ _______ _______ _____ _____    ______ ____
ROOT
ATOM      1  C   UNL     1      45.221   5.696  11.875  0.00  0.00    +0.000 A 
ATOM      2  C   UNL     1      46.070   5.356  12.939  0.00  0.00    +0.000 A 
ATOM      3  C   UNL     1      46.246   4.023  13.325  0.00  0.00    +0.000 A 
ATOM      4  C   UNL     1      45.576   3.064  12.585  0.00  0.00    +0.000 A 
ATOM      5  N   UNL     1      44.756   3.349  11.551  0.00  0.00    +0.000 NA
ATOM      6  C   UNL     1      44.596   4.655  11.179  0.00  0.00    +0.000 A 
ENDROOT
BRANCH   1   8
ATOM      7  C   UNL     1      45.791   7.909  12.557  0.00  0.00    +0.000 C 
ATOM      8  O   UNL     1      45.172   7.039  11.617  0.00  0.00    +0.000 OA
ENDBRANCH   1   8
BRANCH   3   9
ATOM      9  C   UNL     1      47.127   3.632  14.473  0.00  0.00    +0.000 C 
BRANCH   9  10
ATOM     10  N   UNL     1      47.338   4.726  15.388  0.00  0.00    +0.000 N 
ATOM     11  C   UNL     1      48.071   4.551  16.535  0.00  0.00    +0.000 C 
ATOM     12  O   UNL     1      48.620   3.482  16.796  0.00  0.00    +0.000 OA
ATOM     13  H   UNL     1      46.715   5.524  15.314  0.00  0.00    +0.000 HD
BRANCH  11  14
ATOM     14  C   UNL     1      48.221   5.718  17.412  0.00  0.00    +0.000 A 
ATOM     15  C   UNL     1      47.602   5.726  18.655  0.00  0.00    +0.000 A 
ATOM     16  S   UNL     1      47.915   7.133  19.570  0.00  0.00    +0.000 S 
ATOM     17  C   UNL     1      48.845   7.806  18.314  0.00  0.00    +0.000 A 
ATOM     18  N   UNL     1      49.404   9.040  18.442  0.00  0.00    +0.000 NA
ATOM     19  C   UNL     1      50.058   9.440  17.401  0.00  0.00    +0.000 A 
ATOM     20  N   UNL     1      50.208   8.716  16.248  0.00  0.00    +0.000 N 
ATOM     21  C   UNL     1      49.679   7.456  16.083  0.00  0.00    +0.000 A 
ATOM     22  O   UNL     1      49.857   6.822  15.046  0.00  0.00    +0.000 OA
ATOM     23  C   UNL     1      48.930   6.962  17.218  0.00  0.00    +0.000 A 
ATOM     24  H   UNL     1      50.739   9.084  15.472  0.00  0.00    +0.000 HD
ENDBRANCH  11  14
ENDBRANCH   9  10
ENDBRANCH   3   9
BRANCH   6  25
ATOM     25  C   UNL     1      43.729   4.892   9.951  0.00  0.00    +0.000 C 
BRANCH  25  26
ATOM     26  N   UNL     1      44.172   4.151   8.770  0.00  0.00    +0.000 NA
ATOM     27  H   UNL     1      43.524   4.361   8.008  0.00  0.00    +0.000 HD
BRANCH  26  28
ATOM     28  C   UNL     1      45.540   4.461   8.389  0.00  0.00    +0.000 C 
BRANCH  28  29
ATOM     29  C   UNL     1      46.161   3.254   7.732  0.00  0.00    +0.000 A 
ATOM     30  C   UNL     1      46.079   1.988   8.311  0.00  0.00    +0.000 A 
ATOM     31  C   UNL     1      46.728   0.935   7.685  0.00  0.00    +0.000 A 
ATOM     32  N   UNL     1      47.441   1.057   6.543  0.00  0.00    +0.000 NA
ATOM     33  C   UNL     1      47.504   2.289   6.001  0.00  0.00    +0.000 A 
ATOM     34  C   UNL     1      46.880   3.399   6.544  0.00  0.00    +0.000 A 
ENDBRANCH  28  29
ENDBRANCH  26  28
ENDBRANCH  25  26
ENDBRANCH   6  25
TORSDOF 8
ENDMDL
MODEL 6
REMARK VINA RESULT:    -8.103      1.330      1.847
REMARK INTER + INTRA:         -12.741
REMARK INTER:                 -11.696
REMARK INTRA:                  -1.045
REMARK UNBOUND:                -0.849
REMARK  Name = 
REMARK  9 active torsions:
REMARK  status: ('A' for Active; 'I' for Inactive)
REMARK    1  A    between atoms: C_1  and  O_2
REMARK    2  A    between atoms: O_2  and  C_3
REMARK    3  A    between atoms: C_5  and  C_6
REMARK    4  A    between atoms: C_6  and  N_7
REMARK    5  A    between atoms: C_8  and  C_10
REMARK    6  A    between atoms: C_22  and  C_23
REMARK    7  A    between atoms: C_23  and  N_24
REMARK    8  A    between atoms: N_24  and  C_25
REMARK    9  A    between atoms: C_25  and  C_26
REMARK                            x       y       z     vdW  Elec       q    Type
REMARK                         _______ _______ _______ _____ _____    ______ ____
ROOT
ATOM      1  C   UNL     1      46.057   4.821  12.652  0.00  0.00    +0.000 A 
ATOM      2  C   UNL     1      46.924   5.714  13.300  0.00  0.00    +0.000 A 
ATOM      3  C   UNL     1      46.999   7.057  12.913  0.00  0.00    +0.000 A 
ATOM      4  C   UNL     1      46.152   7.463  11.896  0.00  0.00    +0.000 A 
ATOM      5  N   UNL     1      45.300   6.637  11.252  0.00  0.00    +0.000 NA
ATOM      6  C   UNL     1      45.231   5.328  11.642  0.00  0.00    +0.000 A 
ENDROOT
BRANCH   1   8
ATOM      7  C   UNL     1      47.089   3.266  14.136  0.00  0.00    +0.000 C 
ATOM      8  O   UNL     1      46.094   3.552  13.160  0.00  0.00    +0.000 OA
ENDBRANCH   1   8
BRANCH   3   9
ATOM      9  C   UNL     1      47.933   8.027  13.570  0.00  0.00    +0.000 C 
BRANCH   9  10
ATOM     10  N   UNL     1      47.896   7.924  15.007  0.00  0.00    +0.000 N 
ATOM     11  C   UNL     1      48.876   7.247  15.689  0.00  0.00    +0.000 C 
ATOM     12  O   UNL     1      49.845   6.758  15.112  0.00  0.00    +0.000 OA
ATOM     13  H   UNL     1      47.009   8.108  15.466  0.00  0.00    +0.000 HD
BRANCH  11  14
ATOM     14  C   UNL     1      48.747   7.184  17.150  0.00  0.00    +0.000 A 
ATOM     15  C   UNL     1      48.542   8.353  17.871  0.00  0.00    +0.000 A 
ATOM     16  S   UNL     1      48.363   8.101  19.551  0.00  0.00    +0.000 S 
ATOM     17  C   UNL     1      48.609   6.426  19.379  0.00  0.00    +0.000 A 
ATOM     18  N   UNL     1      48.604   5.604  20.464  0.00  0.00    +0.000 NA
ATOM     19  C   UNL     1      48.834   4.361  20.192  0.00  0.00    +0.000 A 
ATOM     20  N   UNL     1      49.061   3.867  18.935  0.00  0.00    +0.000 N 
ATOM     21  C   UNL     1      49.053   4.657  17.808  0.00  0.00    +0.000 A 
ATOM     22  O   UNL     1      49.232   4.176  16.692  0.00  0.00    +0.000 OA
ATOM     23  C   UNL     1      48.807   6.060  18.057  0.00  0.00    +0.000 A 
ATOM     24  H   UNL     1      49.227   2.881  18.789  0.00  0.00    +0.000 HD
ENDBRANCH  11  14
ENDBRANCH   9  10
ENDBRANCH   3   9
BRANCH   6  25
ATOM     25  C   UNL     1      44.186   4.481  10.933  0.00  0.00    +0.000 C 
BRANCH  25  26
ATOM     26  N   UNL     1      44.753   3.380  10.156  0.00  0.00    +0.000 NA
ATOM     27  H   UNL     1      44.242   2.529  10.400  0.00  0.00    +0.000 HD
BRANCH  26  28
ATOM     28  C   UNL     1      44.710   3.619   8.722  0.00  0.00    +0.000 C 
BRANCH  28  29
ATOM     29  C   UNL     1      45.789   2.809   8.048  0.00  0.00    +0.000 A 
ATOM     30  C   UNL     1      45.904   1.435   8.256  0.00  0.00    +0.000 A 
ATOM     31  C   UNL     1      46.960   0.764   7.657  0.00  0.00    +0.000 A 
ATOM     32  N   UNL     1      47.890   1.361   6.878  0.00  0.00    +0.000 NA
ATOM     33  C   UNL     1      47.756   2.689   6.689  0.00  0.00    +0.000 A 
ATOM     34  C   UNL     1      46.731   3.442   7.234  0.00  0.00    +0.000 A 
ENDBRANCH  28  29
ENDBRANCH  26  28
ENDBRANCH  25  26
ENDBRANCH   6  25
TORSDOF 8
ENDMDL
MODEL 7
REMARK VINA RESULT:    -7.438      2.846      3.792
REMARK INTER + INTRA:         -11.765
REMARK INTER:                 -10.909
REMARK INTRA:                  -0.856
REMARK UNBOUND:                -0.849
REMARK  Name = 
REMARK  9 active torsions:
REMARK  status: ('A' for Active; 'I' for Inactive)
REMARK    1  A    between atoms: C_1  and  O_2
REMARK    2  A    between atoms: O_2  and  C_3
REMARK    3  A    between atoms: C_5  and  C_6
REMARK    4  A    between atoms: C_6  and  N_7
REMARK    5  A    between atoms: C_8  and  C_10
REMARK    6  A    between atoms: C_22  and  C_23
REMARK    7  A    between atoms: C_23  and  N_24
REMARK    8  A    between atoms: N_24  and  C_25
REMARK    9  A    between atoms: C_25  and  C_26
REMARK                            x       y       z     vdW  Elec       q    Type
REMARK                         _______ _______ _______ _____ _____    ______ ____
ROOT
ATOM      1  C   UNL     1      45.603   4.561  12.647  0.00  0.00    +0.000 A 
ATOM      2  C   UNL     1      46.069   5.787  13.147  0.00  0.00    +0.000 A 
ATOM      3  C   UNL     1      45.541   6.999  12.692  0.00  0.00    +0.000 A 
ATOM      4  C   UNL     1      44.517   6.927  11.763  0.00  0.00    +0.000 A 
ATOM      5  N   UNL     1      44.036   5.769  11.262  0.00  0.00    +0.000 NA
ATOM      6  C   UNL     1      44.557   4.589  11.718  0.00  0.00    +0.000 A 
ENDROOT
BRANCH   1   8
ATOM      7  C   UNL     1      47.043   3.695  14.339  0.00  0.00    +0.000 C 
ATOM      8  O   UNL     1      46.213   3.472  13.206  0.00  0.00    +0.000 OA
ENDBRANCH   1   8
BRANCH   3   9
ATOM      9  C   UNL     1      46.036   8.324  13.189  0.00  0.00    +0.000 C 
BRANCH   9  10
ATOM     10  N   UNL     1      47.369   8.234  13.730  0.00  0.00    +0.000 N 
ATOM     11  C   UNL     1      48.466   8.277  12.907  0.00  0.00    +0.000 C 
ATOM     12  O   UNL     1      48.359   8.451  11.694  0.00  0.00    +0.000 OA
ATOM     13  H   UNL     1      47.467   7.862  14.670  0.00  0.00    +0.000 HD
BRANCH  11  14
ATOM     14  C   UNL     1      49.782   8.164  13.548  0.00  0.00    +0.000 A 
ATOM     15  C   UNL     1      50.885   8.768  12.959  0.00  0.00    +0.000 A 
ATOM     16  S   UNL     1      52.328   8.585  13.854  0.00  0.00    +0.000 S 
ATOM     17  C   UNL     1      51.539   7.644  15.032  0.00  0.00    +0.000 A 
ATOM     18  N   UNL     1      52.224   7.135  16.092  0.00  0.00    +0.000 NA
ATOM     19  C   UNL     1      51.508   6.414  16.892  0.00  0.00    +0.000 A 
ATOM     20  N   UNL     1      50.171   6.164  16.731  0.00  0.00    +0.000 N 
ATOM     21  C   UNL     1      49.435   6.676  15.687  0.00  0.00    +0.000 A 
ATOM     22  O   UNL     1      48.231   6.455  15.589  0.00  0.00    +0.000 OA
ATOM     23  C   UNL     1      50.190   7.486  14.757  0.00  0.00    +0.000 A 
ATOM     24  H   UNL     1      49.667   5.597  17.398  0.00  0.00    +0.000 HD
ENDBRANCH  11  14
ENDBRANCH   9  10
ENDBRANCH   3   9
BRANCH   6  25
ATOM     25  C   UNL     1      43.905   3.326  11.176  0.00  0.00    +0.000 C 
BRANCH  25  26
ATOM     26  N   UNL     1      43.925   3.236   9.717  0.00  0.00    +0.000 NA
ATOM     27  H   UNL     1      44.466   4.027   9.362  0.00  0.00    +0.000 HD
BRANCH  26  28
ATOM     28  C   UNL     1      44.470   1.977   9.235  0.00  0.00    +0.000 C 
BRANCH  28  29
ATOM     29  C   UNL     1      45.658   2.253   8.349  0.00  0.00    +0.000 A 
ATOM     30  C   UNL     1      45.914   3.531   7.852  0.00  0.00    +0.000 A 
ATOM     31  C   UNL     1      46.987   3.699   6.990  0.00  0.00    +0.000 A 
ATOM     32  N   UNL     1      47.807   2.699   6.598  0.00  0.00    +0.000 NA
ATOM     33  C   UNL     1      47.542   1.474   7.094  0.00  0.00    +0.000 A 
ATOM     34  C   UNL     1      46.503   1.208   7.970  0.00  0.00    +0.000 A 
ENDBRANCH  28  29
ENDBRANCH  26  28
ENDBRANCH  25  26
ENDBRANCH   6  25
TORSDOF 8
ENDMDL
MODEL 8
REMARK VINA RESULT:    -7.297      3.490      8.570
REMARK INTER + INTRA:         -11.559
REMARK INTER:                 -10.402
REMARK INTRA:                  -1.157
REMARK UNBOUND:                -0.849
REMARK  Name = 
REMARK  9 active torsions:
REMARK  status: ('A' for Active; 'I' for Inactive)
REMARK    1  A    between atoms: C_1  and  O_2
REMARK    2  A    between atoms: O_2  and  C_3
REMARK    3  A    between atoms: C_5  and  C_6
REMARK    4  A    between atoms: C_6  and  N_7
REMARK    5  A    between atoms: C_8  and  C_10
REMARK    6  A    between atoms: C_22  and  C_23
REMARK    7  A    between atoms: C_23  and  N_24
REMARK    8  A    between atoms: N_24  and  C_25
REMARK    9  A    between atoms: C_25  and  C_26
REMARK                            x       y       z     vdW  Elec       q    Type
REMARK                         _______ _______ _______ _____ _____    ______ ____
ROOT
ATOM      1  C   UNL     1      50.846   7.749  15.030  0.00  0.00    +0.000 A 
ATOM      2  C   UNL     1      50.237   8.141  13.828  0.00  0.00    +0.000 A 
ATOM      3  C   UNL     1      49.002   7.613  13.439  0.00  0.00    +0.000 A 
ATOM      4  C   UNL     1      48.399   6.724  14.312  0.00  0.00    +0.000 A 
ATOM      5  N   UNL     1      48.948   6.326  15.479  0.00  0.00    +0.000 NA
ATOM      6  C   UNL     1      50.154   6.853  15.852  0.00  0.00    +0.000 A 
ENDROOT
BRANCH   1   8
ATOM      7  C   UNL     1      52.906   8.575  14.156  0.00  0.00    +0.000 C 
ATOM      8  O   UNL     1      52.043   8.368  15.268  0.00  0.00    +0.000 OA
ENDBRANCH   1   8
BRANCH   3   9
ATOM      9  C   UNL     1      48.339   7.994  12.150  0.00  0.00    +0.000 C 
BRANCH   9  10
ATOM     10  N   UNL     1      47.642   6.883  11.552  0.00  0.00    +0.000 N 
ATOM     11  C   UNL     1      46.276   6.903  11.412  0.00  0.00    +0.000 C 
ATOM     12  O   UNL     1      45.607   7.883  11.732  0.00  0.00    +0.000 OA
ATOM     13  H   UNL     1      48.133   5.995  11.502  0.00  0.00    +0.000 HD
BRANCH  11  14
ATOM     14  C   UNL     1      45.654   5.720  10.804  0.00  0.00    +0.000 A 
ATOM     15  C   UNL     1      45.796   5.495   9.441  0.00  0.00    +0.000 A 
ATOM     16  S   UNL     1      45.055   4.054   8.902  0.00  0.00    +0.000 S 
ATOM     17  C   UNL     1      44.471   3.709  10.462  0.00  0.00    +0.000 A 
ATOM     18  N   UNL     1      43.719   2.599  10.698  0.00  0.00    +0.000 NA
ATOM     19  C   UNL     1      43.316   2.477  11.920  0.00  0.00    +0.000 A 
ATOM     20  N   UNL     1      43.604   3.359  12.927  0.00  0.00    +0.000 N 
ATOM     21  C   UNL     1      44.379   4.481  12.740  0.00  0.00    +0.000 A 
ATOM     22  O   UNL     1      44.641   5.236  13.673  0.00  0.00    +0.000 OA
ATOM     23  C   UNL     1      44.850   4.670  11.386  0.00  0.00    +0.000 A 
ATOM     24  H   UNL     1      43.264   3.201  13.865  0.00  0.00    +0.000 HD
ENDBRANCH  11  14
ENDBRANCH   9  10
ENDBRANCH   3   9
BRANCH   6  25
ATOM     25  C   UNL     1      50.667   6.427  17.219  0.00  0.00    +0.000 C 
BRANCH  25  26
ATOM     26  N   UNL     1      49.609   6.256  18.214  0.00  0.00    +0.000 NA
ATOM     27  H   UNL     1      48.713   6.279  17.725  0.00  0.00    +0.000 HD
BRANCH  26  28
ATOM     28  C   UNL     1      49.750   5.031  18.984  0.00  0.00    +0.000 C 
BRANCH  28  29
ATOM     29  C   UNL     1      49.622   3.845  18.063  0.00  0.00    +0.000 A 
ATOM     30  C   UNL     1      50.717   3.033  17.765  0.00  0.00    +0.000 A 
ATOM     31  C   UNL     1      50.542   1.998  16.859  0.00  0.00    +0.000 A 
ATOM     32  N   UNL     1      49.372   1.723  16.241  0.00  0.00    +0.000 NA
ATOM     33  C   UNL     1      48.327   2.519  16.547  0.00  0.00    +0.000 A 
ATOM     34  C   UNL     1      48.399   3.568  17.448  0.00  0.00    +0.000 A 
ENDBRANCH  28  29
ENDBRANCH  26  28
ENDBRANCH  25  26
ENDBRANCH   6  25
TORSDOF 8
ENDMDL
MODEL 9
REMARK VINA RESULT:    -7.240      4.160      5.581
REMARK INTER + INTRA:         -11.475
REMARK INTER:                 -10.210
REMARK INTRA:                  -1.265
REMARK UNBOUND:                -0.849
REMARK  Name = 
REMARK  9 active torsions:
REMARK  status: ('A' for Active; 'I' for Inactive)
REMARK    1  A    between atoms: C_1  and  O_2
REMARK    2  A    between atoms: O_2  and  C_3
REMARK    3  A    between atoms: C_5  and  C_6
REMARK    4  A    between atoms: C_6  and  N_7
REMARK    5  A    between atoms: C_8  and  C_10
REMARK    6  A    between atoms: C_22  and  C_23
REMARK    7  A    between atoms: C_23  and  N_24
REMARK    8  A    between atoms: N_24  and  C_25
REMARK    9  A    between atoms: C_25  and  C_26
REMARK                            x       y       z     vdW  Elec       q    Type
REMARK                         _______ _______ _______ _____ _____    ______ ____
ROOT
ATOM      1  C   UNL     1      45.572   5.090  12.470  0.00  0.00    +0.000 A 
ATOM      2  C   UNL     1      45.927   6.389  12.862  0.00  0.00    +0.000 A 
ATOM      3  C   UNL     1      45.215   7.502  12.403  0.00  0.00    +0.000 A 
ATOM      4  C   UNL     1      44.127   7.255  11.583  0.00  0.00    +0.000 A 
ATOM      5  N   UNL     1      43.748   6.020  11.189  0.00  0.00    +0.000 NA
ATOM      6  C   UNL     1      44.449   4.939  11.648  0.00  0.00    +0.000 A 
ENDROOT
BRANCH   1   8
ATOM      7  C   UNL     1      46.779   4.293  14.366  0.00  0.00    +0.000 C 
ATOM      8  O   UNL     1      46.359   4.115  13.018  0.00  0.00    +0.000 OA
ENDBRANCH   1   8
BRANCH   3   9
ATOM      9  C   UNL     1      45.587   8.903  12.784  0.00  0.00    +0.000 C 
BRANCH   9  10
ATOM     10  N   UNL     1      47.015   9.095  12.809  0.00  0.00    +0.000 N 
ATOM     11  C   UNL     1      47.584  10.220  12.265  0.00  0.00    +0.000 C 
ATOM     12  O   UNL     1      46.900  11.126  11.792  0.00  0.00    +0.000 OA
ATOM     13  H   UNL     1      47.593   8.276  12.974  0.00  0.00    +0.000 HD
BRANCH  11  14
ATOM     14  C   UNL     1      49.047  10.320  12.326  0.00  0.00    +0.000 A 
ATOM     15  C   UNL     1      49.635  11.501  12.760  0.00  0.00    +0.000 A 
ATOM     16  S   UNL     1      51.340  11.438  12.819  0.00  0.00    +0.000 S 
ATOM     17  C   UNL     1      51.354   9.848  12.213  0.00  0.00    +0.000 A 
ATOM     18  N   UNL     1      52.527   9.192  11.997  0.00  0.00    +0.000 NA
ATOM     19  C   UNL     1      52.392   8.004  11.507  0.00  0.00    +0.000 A 
ATOM     20  N   UNL     1      51.191   7.411  11.220  0.00  0.00    +0.000 N 
ATOM     21  C   UNL     1      49.981   8.028  11.442  0.00  0.00    +0.000 A 
ATOM     22  O   UNL     1      48.921   7.455  11.200  0.00  0.00    +0.000 OA
ATOM     23  C   UNL     1      50.076   9.365  11.985  0.00  0.00    +0.000 A 
ATOM     24  H   UNL     1      51.154   6.475  10.844  0.00  0.00    +0.000 HD
ENDBRANCH  11  14
ENDBRANCH   9  10
ENDBRANCH   3   9
BRANCH   6  25
ATOM     25  C   UNL     1      43.910   3.578  11.234  0.00  0.00    +0.000 C 
BRANCH  25  26
ATOM     26  N   UNL     1      43.962   3.341   9.792  0.00  0.00    +0.000 NA
ATOM     27  H   UNL     1      44.482   4.111   9.367  0.00  0.00    +0.000 HD
BRANCH  26  28
ATOM     28  C   UNL     1      44.557   2.060   9.450  0.00  0.00    +0.000 C 
BRANCH  28  29
ATOM     29  C   UNL     1      45.629   2.269   8.411  0.00  0.00    +0.000 A 
ATOM     30  C   UNL     1      45.804   3.502   7.784  0.00  0.00    +0.000 A 
ATOM     31  C   UNL     1      46.765   3.606   6.790  0.00  0.00    +0.000 A 
ATOM     32  N   UNL     1      47.550   2.581   6.387  0.00  0.00    +0.000 NA
ATOM     33  C   UNL     1      47.365   1.400   7.010  0.00  0.00    +0.000 A 
ATOM     34  C   UNL     1      46.440   1.201   8.020  0.00  0.00    +0.000 A 
ENDBRANCH  28  29
ENDBRANCH  26  28
ENDBRANCH  25  26
ENDBRANCH   6  25
TORSDOF 8
ENDMDL
