MODEL 1
REMARK VINA RESULT:    -7.414      0.000      0.000
REMARK INTER + INTRA:         -10.257
REMARK INTER:                  -9.797
REMARK INTRA:                  -0.460
REMARK UNBOUND:                -0.460
REMARK  Name = 
REMARK  6 active torsions:
REMARK  status: ('A' for Active; 'I' for Inactive)
REMARK    1  A    between atoms: N_1  and  C_2
REMARK    2  A    between atoms: C_2  and  C_3
REMARK    3  A    between atoms: C_7  and  O_8
REMARK    4  A    between atoms: O_8  and  C_9
REMARK    5  A    between atoms: C_9  and  C_10
REMARK    6  A    between atoms: C_10  and  C_11
REMARK                            x       y       z     vdW  Elec       q    Type
REMARK                         _______ _______ _______ _____ _____    ______ ____
ROOT
ATOM      1  C   UNL     1      45.341   4.685  12.927  0.00  0.00    +0.000 A 
ATOM      2  C   UNL     1      44.538   5.834  12.938  0.00  0.00    +0.000 A 
ATOM      3  C   UNL     1      43.451   5.947  12.075  0.00  0.00    +0.000 A 
ATOM      4  C   UNL     1      43.158   4.918  11.181  0.00  0.00    +0.000 A 
ATOM      5  C   UNL     1      43.948   3.765  11.144  0.00  0.00    +0.000 A 
ATOM      6  C   UNL     1      45.036   3.654  12.020  0.00  0.00    +0.000 A 
ENDROOT
BRANCH   1   7
ATOM      7  C   UNL     1      46.520   4.588  13.861  0.00  0.00    +0.000 C 
BRANCH   7   8
ATOM      8  N   UNL     1      47.098   3.247  13.855  0.00  0.00    +0.000 NA
ATOM      9  H   UNL     1      47.698   3.143  13.039  0.00  0.00    +0.000 HD
ATOM     10  H   UNL     1      46.346   2.567  13.751  0.00  0.00    +0.000 HD
ENDBRANCH   7   8
ENDBRANCH   1   7
BRANCH   5  11
ATOM     11  O   UNL     1      43.754   2.700  10.298  0.00  0.00    +0.000 OA
BRANCH  11  12
ATOM     12  C   UNL     1      44.901   2.290   9.547  0.00  0.00    +0.000 C 
BRANCH  12  13
ATOM     13  C   UNL     1      45.018   3.123   8.270  0.00  0.00    +0.000 C 
BRANCH  13  14
ATOM     14  C   UNL     1      46.154   2.642   7.408  0.00  0.00    +0.000 A 
ATOM     15  C   UNL     1      46.520   3.312   6.243  0.00  0.00    +0.000 A 
ATOM     16  C   UNL     1      47.545   2.787   5.474  0.00  0.00    +0.000 A 
ATOM     17  N   UNL     1      48.195   1.654   5.806  0.00  0.00    +0.000 NA
ATOM     18  N   UNL     1      47.840   0.990   6.939  0.00  0.00    +0.000 NA
ATOM     19  C   UNL     1      46.846   1.478   7.711  0.00  0.00    +0.000 A 
ENDBRANCH  13  14
ENDBRANCH  12  13
ENDBRANCH  11  12
ENDBRANCH   5  11
TORSDOF 6
ENDMDL
MODEL 2
REMARK VINA RESULT:    -7.220      1.434      5.775
REMARK INTER + INTRA:         -10.002
REMARK INTER:                  -9.336
REMARK INTRA:                  -0.665
REMARK UNBOUND:                -0.460
REMARK  Name = 
REMARK  6 active torsions:
REMARK  status: ('A' for Active; 'I' for Inactive)
REMARK    1  A    between atoms: N_1  and  C_2
REMARK    2  A    between atoms: C_2  and  C_3
REMARK    3  A    between atoms: C_7  and  O_8
REMARK    4  A    between atoms: O_8  and  C_9
REMARK    5  A    between atoms: C_9  and  C_10
REMARK    6  A    between atoms: C_10  and  C_11
REMARK                            x       y       z     vdW  Elec       q    Type
REMARK                         _______ _______ _______ _____ _____    ______ ____
ROOT
ATOM      1  C   UNL     1      46.434   1.964   7.749  0.00  0.00    +0.000 A 
ATOM      2  C   UNL     1      46.657   3.254   7.249  0.00  0.00    +0.000 A 
ATOM      3  C   UNL     1      45.950   4.342   7.753  0.00  0.00    +0.000 A 
ATOM      4  C   UNL     1      45.003   4.154   8.759  0.00  0.00    +0.000 A 
ATOM      5  C   UNL     1      44.754   2.877   9.270  0.00  0.00    +0.000 A 
ATOM      6  C   UNL     1      45.474   1.787   8.763  0.00  0.00    +0.000 A 
ENDROOT
BRANCH   1   7
ATOM      7  C   UNL     1      47.201   0.797   7.181  0.00  0.00    +0.000 C 
BRANCH   7   8
ATOM      8  N   UNL     1      46.796  -0.462   7.799  0.00  0.00    +0.000 NA
ATOM      9  H   UNL     1      46.048  -0.881   7.251  0.00  0.00    +0.000 HD
ATOM     10  H   UNL     1      46.406  -0.264   8.720  0.00  0.00    +0.000 HD
ENDBRANCH   7   8
ENDBRANCH   1   7
BRANCH   5  11
ATOM     11  O   UNL     1      43.838   2.581  10.250  0.00  0.00    +0.000 OA
BRANCH  11  12
ATOM     12  C   UNL     1      43.551   3.640  11.168  0.00  0.00    +0.000 C 
BRANCH  12  13
ATOM     13  C   UNL     1      44.289   3.406  12.487  0.00  0.00    +0.000 C 
BRANCH  13  14
ATOM     14  C   UNL     1      45.437   4.366  12.647  0.00  0.00    +0.000 A 
ATOM     15  C   UNL     1      45.498   5.557  11.926  0.00  0.00    +0.000 A 
ATOM     16  C   UNL     1      46.605   6.371  12.088  0.00  0.00    +0.000 A 
ATOM     17  N   UNL     1      47.626   6.053  12.909  0.00  0.00    +0.000 NA
ATOM     18  N   UNL     1      47.578   4.890  13.612  0.00  0.00    +0.000 NA
ATOM     19  C   UNL     1      46.511   4.076  13.477  0.00  0.00    +0.000 A 
ENDBRANCH  13  14
ENDBRANCH  12  13
ENDBRANCH  11  12
ENDBRANCH   5  11
TORSDOF 6
ENDMDL
MODEL 3
REMARK VINA RESULT:    -7.212      1.122      6.243
REMARK INTER + INTRA:          -9.991
REMARK INTER:                  -9.433
REMARK INTRA:                  -0.558
REMARK UNBOUND:                -0.460
REMARK  Name = 
REMARK  6 active torsions:
REMARK  status: ('A' for Active; 'I' for Inactive)
REMARK    1  A    between atoms: N_1  and  C_2
REMARK    2  A    between atoms: C_2  and  C_3
REMARK    3  A    between atoms: C_7  and  O_8
REMARK    4  A    between atoms: O_8  and  C_9
REMARK    5  A    between atoms: C_9  and  C_10
REMARK    6  A    between atoms: C_10  and  C_11
REMARK                            x       y       z     vdW  Elec       q    Type
REMARK                         _______ _______ _______ _____ _____    ______ ____
ROOT
ATOM      1  C   UNL     1      46.643   2.579   6.726  0.00  0.00    +0.000 A 
ATOM      2  C   UNL     1      46.654   1.323   7.347  0.00  0.00    +0.000 A 
ATOM      3  C   UNL     1      45.880   1.085   8.481  0.00  0.00    +0.000 A 
ATOM      4  C   UNL     1      45.093   2.104   9.015  0.00  0.00    +0.000 A 
ATOM      5  C   UNL     1      45.070   3.369   8.421  0.00  0.00    +0.000 A 
ATOM      6  C   UNL     1      45.845   3.600   7.276  0.00  0.00    +0.000 A 
ENDROOT
BRANCH   1   7
ATOM      7  C   UNL     1      47.497   2.819   5.508  0.00  0.00    +0.000 C 
BRANCH   7   8
ATOM      8  N   UNL     1      48.548   1.813   5.384  0.00  0.00    +0.000 NA
ATOM      9  H   UNL     1      49.408   2.262   5.077  0.00  0.00    +0.000 HD
ATOM     10  H   UNL     1      48.285   1.156   4.650  0.00  0.00    +0.000 HD
ENDBRANCH   7   8
ENDBRANCH   1   7
BRANCH   5  11
ATOM     11  O   UNL     1      44.341   4.443   8.871  0.00  0.00    +0.000 OA
BRANCH  11  12
ATOM     12  C   UNL     1      43.833   4.329  10.204  0.00  0.00    +0.000 C 
BRANCH  12  13
ATOM     13  C   UNL     1      44.358   5.478  11.066  0.00  0.00    +0.000 C 
BRANCH  13  14
ATOM     14  C   UNL     1      45.349   4.985  12.086  0.00  0.00    +0.000 A 
ATOM     15  C   UNL     1      46.303   5.832  12.646  0.00  0.00    +0.000 A 
ATOM     16  C   UNL     1      47.212   5.300  13.543  0.00  0.00    +0.000 A 
ATOM     17  N   UNL     1      47.214   3.998  13.889  0.00  0.00    +0.000 NA
ATOM     18  N   UNL     1      46.291   3.162  13.342  0.00  0.00    +0.000 NA
ATOM     19  C   UNL     1      45.390   3.651  12.466  0.00  0.00    +0.000 A 
ENDBRANCH  13  14
ENDBRANCH  12  13
ENDBRANCH  11  12
ENDBRANCH   5  11
TORSDOF 6
ENDMDL
MODEL 4
REMARK VINA RESULT:    -6.758      2.280      2.742
REMARK INTER + INTRA:          -9.390
REMARK INTER:                  -8.916
REMARK INTRA:                  -0.474
REMARK UNBOUND:                -0.460
REMARK  Name = 
REMARK  6 active torsions:
REMARK  status: ('A' for Active; 'I' for Inactive)
REMARK    1  A    between atoms: N_1  and  C_2
REMARK    2  A    between atoms: C_2  and  C_3
REMARK    3  A    between atoms: C_7  and  O_8
REMARK    4  A    between atoms: O_8  and  C_9
REMARK    5  A    between atoms: C_9  and  C_10
REMARK    6  A    between atoms: C_10  and  C_11
REMARK                            x       y       z     vdW  Elec       q    Type
REMARK                         _______ _______ _______ _____ _____    ______ ____
ROOT
ATOM      1  C   UNL     1      45.497   7.366  12.242  0.00  0.00    +0.000 A 
ATOM      2  C   UNL     1      46.315   6.620  13.101  0.00  0.00    +0.000 A 
ATOM      3  C   UNL     1      46.287   5.228  13.075  0.00  0.00    +0.000 A 
ATOM      4  C   UNL     1      45.433   4.562  12.197  0.00  0.00    +0.000 A 
ATOM      5  C   UNL     1      44.600   5.282  11.336  0.00  0.00    +0.000 A 
ATOM      6  C   UNL     1      44.638   6.682  11.361  0.00  0.00    +0.000 A 
ENDROOT
BRANCH   1   7
ATOM      7  C   UNL     1      45.533   8.872  12.294  0.00  0.00    +0.000 C 
BRANCH   7   8
ATOM      8  N   UNL     1      44.200   9.445  12.128  0.00  0.00    +0.000 NA
ATOM      9  H   UNL     1      44.098  10.243  12.751  0.00  0.00    +0.000 HD
ATOM     10  H   UNL     1      43.509   8.756  12.421  0.00  0.00    +0.000 HD
ENDBRANCH   7   8
ENDBRANCH   1   7
BRANCH   5  11
ATOM     11  O   UNL     1      43.716   4.727  10.442  0.00  0.00    +0.000 OA
BRANCH  11  12
ATOM     12  C   UNL     1      44.196   3.585   9.726  0.00  0.00    +0.000 C 
BRANCH  12  13
ATOM     13  C   UNL     1      44.873   4.026   8.428  0.00  0.00    +0.000 C 
BRANCH  13  14
ATOM     14  C   UNL     1      45.882   3.009   7.967  0.00  0.00    +0.000 A 
ATOM     15  C   UNL     1      46.876   3.332   7.045  0.00  0.00    +0.000 A 
ATOM     16  C   UNL     1      47.741   2.334   6.631  0.00  0.00    +0.000 A 
ATOM     17  N   UNL     1      47.655   1.066   7.078  0.00  0.00    +0.000 NA
ATOM     18  N   UNL     1      46.684   0.740   7.973  0.00  0.00    +0.000 NA
ATOM     19  C   UNL     1      45.826   1.691   8.398  0.00  0.00    +0.000 A 
ENDBRANCH  13  14
ENDBRANCH  12  13
ENDBRANCH  11  12
ENDBRANCH   5  11
TORSDOF 6
ENDMDL
MODEL 5
REMARK VINA RESULT:    -6.328      1.960      2.634
REMARK INTER + INTRA:          -8.823
REMARK INTER:                  -8.263
REMARK INTRA:                  -0.559
REMARK UNBOUND:                -0.460
REMARK  Name = 
REMARK  6 active torsions:
REMARK  status: ('A' for Active; 'I' for Inactive)
REMARK    1  A    between atoms: N_1  and  C_2
REMARK    2  A    between atoms: C_2  and  C_3
REMARK    3  A    between atoms: C_7  and  O_8
REMARK    4  A    between atoms: O_8  and  C_9
REMARK    5  A    between atoms: C_9  and  C_10
REMARK    6  A    between atoms: C_10  and  C_11
REMARK                            x       y       z     vdW  Elec       q    Type
REMARK                         _______ _______ _______ _____ _____    ______ ____
ROOT
ATOM      1  C   UNL     1      44.482   4.131  12.347  0.00  0.00    +0.000 A 
ATOM      2  C   UNL     1      45.025   4.897  13.388  0.00  0.00    +0.000 A 
ATOM      3  C   UNL     1      45.850   5.984  13.111  0.00  0.00    +0.000 A 
ATOM      4  C   UNL     1      46.153   6.314  11.791  0.00  0.00    +0.000 A 
ATOM      5  C   UNL     1      45.632   5.561  10.735  0.00  0.00    +0.000 A 
ATOM      6  C   UNL     1      44.796   4.473  11.019  0.00  0.00    +0.000 A 
ENDROOT
BRANCH   1   7
ATOM      7  C   UNL     1      43.601   2.951  12.668  0.00  0.00    +0.000 C 
BRANCH   7   8
ATOM      8  N   UNL     1      43.060   2.342  11.456  0.00  0.00    +0.000 NA
ATOM      9  H   UNL     1      42.690   3.070  10.850  0.00  0.00    +0.000 HD
ATOM     10  H   UNL     1      42.272   1.748  11.713  0.00  0.00    +0.000 HD
ENDBRANCH   7   8
ENDBRANCH   1   7
BRANCH   5  11
ATOM     11  O   UNL     1      45.875   5.792   9.402  0.00  0.00    +0.000 OA
BRANCH  11  12
ATOM     12  C   UNL     1      45.442   4.762   8.508  0.00  0.00    +0.000 C 
BRANCH  12  13
ATOM     13  C   UNL     1      46.553   4.434   7.509  0.00  0.00    +0.000 C 
BRANCH  13  14
ATOM     14  C   UNL     1      46.734   2.946   7.367  0.00  0.00    +0.000 A 
ATOM     15  C   UNL     1      46.034   2.046   8.168  0.00  0.00    +0.000 A 
ATOM     16  C   UNL     1      46.285   0.693   8.014  0.00  0.00    +0.000 A 
ATOM     17  N   UNL     1      47.181   0.217   7.128  0.00  0.00    +0.000 NA
ATOM     18  N   UNL     1      47.873   1.089   6.346  0.00  0.00    +0.000 NA
ATOM     19  C   UNL     1      47.650   2.413   6.471  0.00  0.00    +0.000 A 
ENDBRANCH  13  14
ENDBRANCH  12  13
ENDBRANCH  11  12
ENDBRANCH   5  11
TORSDOF 6
ENDMDL
MODEL 6
REMARK VINA RESULT:    -6.247      2.378      6.492
REMARK INTER + INTRA:          -8.715
REMARK INTER:                  -8.287
REMARK INTRA:                  -0.428
REMARK UNBOUND:                -0.460
REMARK  Name = 
REMARK  6 active torsions:
REMARK  status: ('A' for Active; 'I' for Inactive)
REMARK    1  A    between atoms: N_1  and  C_2
REMARK    2  A    between atoms: C_2  and  C_3
REMARK    3  A    between atoms: C_7  and  O_8
REMARK    4  A    between atoms: O_8  and  C_9
REMARK    5  A    between atoms: C_9  and  C_10
REMARK    6  A    between atoms: C_10  and  C_11
REMARK                            x       y       z     vdW  Elec       q    Type
REMARK                         _______ _______ _______ _____ _____    ______ ____
ROOT
ATOM      1  C   UNL     1      46.733   2.641   6.853  0.00  0.00    +0.000 A 
ATOM      2  C   UNL     1      46.567   1.357   7.390  0.00  0.00    +0.000 A 
ATOM      3  C   UNL     1      45.785   1.159   8.525  0.00  0.00    +0.000 A 
ATOM      4  C   UNL     1      45.166   2.243   9.145  0.00  0.00    +0.000 A 
ATOM      5  C   UNL     1      45.322   3.536   8.635  0.00  0.00    +0.000 A 
ATOM      6  C   UNL     1      46.105   3.727   7.489  0.00  0.00    +0.000 A 
ENDROOT
BRANCH   1   7
ATOM      7  C   UNL     1      47.595   2.836   5.632  0.00  0.00    +0.000 C 
BRANCH   7   8
ATOM      8  N   UNL     1      48.570   1.758   5.486  0.00  0.00    +0.000 NA
ATOM      9  H   UNL     1      48.915   1.491   6.406  0.00  0.00    +0.000 HD
ATOM     10  H   UNL     1      49.371   2.111   4.965  0.00  0.00    +0.000 HD
ENDBRANCH   7   8
ENDBRANCH   1   7
BRANCH   5  11
ATOM     11  O   UNL     1      44.767   4.671   9.173  0.00  0.00    +0.000 OA
BRANCH  11  12
ATOM     12  C   UNL     1      43.807   4.457  10.212  0.00  0.00    +0.000 C 
BRANCH  12  13
ATOM     13  C   UNL     1      44.474   4.600  11.581  0.00  0.00    +0.000 C 
BRANCH  13  14
ATOM     14  C   UNL     1      45.177   5.924  11.708  0.00  0.00    +0.000 A 
ATOM     15  C   UNL     1      46.537   6.004  11.999  0.00  0.00    +0.000 A 
ATOM     16  C   UNL     1      47.108   7.255  12.148  0.00  0.00    +0.000 A 
ATOM     17  N   UNL     1      46.401   8.396  12.029  0.00  0.00    +0.000 NA
ATOM     18  N   UNL     1      45.071   8.328  11.751  0.00  0.00    +0.000 NA
ATOM     19  C   UNL     1      44.485   7.122  11.598  0.00  0.00    +0.000 A 
ENDBRANCH  13  14
ENDBRANCH  12  13
ENDBRANCH  11  12
ENDBRANCH   5  11
TORSDOF 6
ENDMDL
MODEL 7
REMARK VINA RESULT:    -6.194      1.936      2.396
REMARK INTER + INTRA:          -8.645
REMARK INTER:                  -8.212
REMARK INTRA:                  -0.433
REMARK UNBOUND:                -0.460
REMARK  Name = 
REMARK  6 active torsions:
REMARK  status: ('A' for Active; 'I' for Inactive)
REMARK    1  A    between atoms: N_1  and  C_2
REMARK    2  A    between atoms: C_2  and  C_3
REMARK    3  A    between atoms: C_7  and  O_8
REMARK    4  A    between atoms: O_8  and  C_9
REMARK    5  A    between atoms: C_9  and  C_10
REMARK    6  A    between atoms: C_10  and  C_11
REMARK                            x       y       z     vdW  Elec       q    Type
REMARK                         _______ _______ _______ _____ _____    ______ ____
ROOT
ATOM      1  C   UNL     1      46.815   6.671  13.062  0.00  0.00    +0.000 A 
ATOM      2  C   UNL     1      46.097   7.803  12.654  0.00  0.00    +0.000 A 
ATOM      3  C   UNL     1      44.960   7.673  11.861  0.00  0.00    +0.000 A 
ATOM      4  C   UNL     1      44.531   6.410  11.456  0.00  0.00    +0.000 A 
ATOM      5  C   UNL     1      45.234   5.265  11.841  0.00  0.00    +0.000 A 
ATOM      6  C   UNL     1      46.373   5.402  12.645  0.00  0.00    +0.000 A 
ENDROOT
BRANCH   1   7
ATOM      7  C   UNL     1      48.050   6.834  13.910  0.00  0.00    +0.000 C 
BRANCH   7   8
ATOM      8  N   UNL     1      49.262   6.520  13.158  0.00  0.00    +0.000 NA
ATOM      9  H   UNL     1      49.013   5.982  12.330  0.00  0.00    +0.000 HD
ATOM     10  H   UNL     1      49.855   5.919  13.729  0.00  0.00    +0.000 HD
ENDBRANCH   7   8
ENDBRANCH   1   7
BRANCH   5  11
ATOM     11  O   UNL     1      44.905   3.978  11.489  0.00  0.00    +0.000 OA
BRANCH  11  12
ATOM     12  C   UNL     1      44.192   3.838  10.256  0.00  0.00    +0.000 C 
BRANCH  12  13
ATOM     13  C   UNL     1      44.463   2.462   9.646  0.00  0.00    +0.000 C 
BRANCH  13  14
ATOM     14  C   UNL     1      45.443   2.555   8.508  0.00  0.00    +0.000 A 
ATOM     15  C   UNL     1      46.263   1.484   8.161  0.00  0.00    +0.000 A 
ATOM     16  C   UNL     1      47.174   1.655   7.133  0.00  0.00    +0.000 A 
ATOM     17  N   UNL     1      47.301   2.816   6.461  0.00  0.00    +0.000 NA
ATOM     18  N   UNL     1      46.508   3.870   6.796  0.00  0.00    +0.000 NA
ATOM     19  C   UNL     1      45.609   3.733   7.793  0.00  0.00    +0.000 A 
ENDBRANCH  13  14
ENDBRANCH  12  13
ENDBRANCH  11  12
ENDBRANCH   5  11
TORSDOF 6
ENDMDL
MODEL 8
REMARK VINA RESULT:    -6.037      1.375      1.858
REMARK INTER + INTRA:          -8.438
REMARK INTER:                  -7.983
REMARK INTRA:                  -0.455
REMARK UNBOUND:                -0.460
REMARK  Name = 
REMARK  6 active torsions:
REMARK  status: ('A' for Active; 'I' for Inactive)
REMARK    1  A    between atoms: N_1  and  C_2
REMARK    2  A    between atoms: C_2  and  C_3
REMARK    3  A    between atoms: C_7  and  O_8
REMARK    4  A    between atoms: O_8  and  C_9
REMARK    5  A    between atoms: C_9  and  C_10
REMARK    6  A    between atoms: C_10  and  C_11
REMARK                            x       y       z     vdW  Elec       q    Type
REMARK                         _______ _______ _______ _____ _____    ______ ____
ROOT
ATOM      1  C   UNL     1      45.815   4.791  13.115  0.00  0.00    +0.000 A 
ATOM      2  C   UNL     1      44.554   4.437  13.614  0.00  0.00    +0.000 A 
ATOM      3  C   UNL     1      43.419   4.543  12.813  0.00  0.00    +0.000 A 
ATOM      4  C   UNL     1      43.528   5.014  11.506  0.00  0.00    +0.000 A 
ATOM      5  C   UNL     1      44.772   5.383  10.986  0.00  0.00    +0.000 A 
ATOM      6  C   UNL     1      45.911   5.267  11.794  0.00  0.00    +0.000 A 
ENDROOT
BRANCH   1   7
ATOM      7  C   UNL     1      47.029   4.681  14.001  0.00  0.00    +0.000 C 
BRANCH   7   8
ATOM      8  N   UNL     1      47.302   3.294  14.365  0.00  0.00    +0.000 NA
ATOM      9  H   UNL     1      48.302   3.119  14.295  0.00  0.00    +0.000 HD
ATOM     10  H   UNL     1      46.851   2.683  13.686  0.00  0.00    +0.000 HD
ENDBRANCH   7   8
ENDBRANCH   1   7
BRANCH   5  11
ATOM     11  O   UNL     1      44.989   5.868   9.719  0.00  0.00    +0.000 OA
BRANCH  11  12
ATOM     12  C   UNL     1      45.822   5.060   8.882  0.00  0.00    +0.000 C 
BRANCH  12  13
ATOM     13  C   UNL     1      45.157   3.706   8.631  0.00  0.00    +0.000 C 
BRANCH  13  14
ATOM     14  C   UNL     1      46.112   2.745   7.973  0.00  0.00    +0.000 A 
ATOM     15  C   UNL     1      46.000   1.368   8.153  0.00  0.00    +0.000 A 
ATOM     16  C   UNL     1      46.941   0.547   7.556  0.00  0.00    +0.000 A 
ATOM     17  N   UNL     1      47.959   1.027   6.815  0.00  0.00    +0.000 NA
ATOM     18  N   UNL     1      48.079   2.370   6.639  0.00  0.00    +0.000 NA
ATOM     19  C   UNL     1      47.177   3.197   7.207  0.00  0.00    +0.000 A 
ENDBRANCH  13  14
ENDBRANCH  12  13
ENDBRANCH  11  12
ENDBRANCH   5  11
TORSDOF 6
ENDMDL
MODEL 9
REMARK VINA RESULT:    -5.065      3.929      5.899
REMARK INTER + INTRA:          -7.153
REMARK INTER:                  -6.798
REMARK INTRA:                  -0.355
REMARK UNBOUND:                -0.460
REMARK  Name = 
REMARK  6 active torsions:
REMARK  status: ('A' for Active; 'I' for Inactive)
REMARK    1  A    between atoms: N_1  and  C_2
REMARK    2  A    between atoms: C_2  and  C_3
REMARK    3  A    between atoms: C_7  and  O_8
REMARK    4  A    between atoms: O_8  and  C_9
REMARK    5  A    between atoms: C_9  and  C_10
REMARK    6  A    between atoms: C_10  and  C_11
REMARK                            x       y       z     vdW  Elec       q    Type
REMARK                         _______ _______ _______ _____ _____    ______ ____
ROOT
ATOM      1  C   UNL     1      48.169   4.836  17.161  0.00  0.00    +0.000 A 
ATOM      2  C   UNL     1      48.790   6.010  17.608  0.00  0.00    +0.000 A 
ATOM      3  C   UNL     1      49.049   7.056  16.725  0.00  0.00    +0.000 A 
ATOM      4  C   UNL     1      48.700   6.938  15.381  0.00  0.00    +0.000 A 
ATOM      5  C   UNL     1      48.088   5.774  14.906  0.00  0.00    +0.000 A 
ATOM      6  C   UNL     1      47.824   4.728  15.801  0.00  0.00    +0.000 A 
ENDROOT
BRANCH   1   7
ATOM      7  C   UNL     1      47.910   3.711  18.129  0.00  0.00    +0.000 C 
BRANCH   7   8
ATOM      8  N   UNL     1      46.738   2.930  17.742  0.00  0.00    +0.000 NA
ATOM      9  H   UNL     1      45.950   3.191  18.331  0.00  0.00    +0.000 HD
ATOM     10  H   UNL     1      46.926   1.946  17.925  0.00  0.00    +0.000 HD
ENDBRANCH   7   8
ENDBRANCH   1   7
BRANCH   5  11
ATOM     11  O   UNL     1      47.714   5.550  13.603  0.00  0.00    +0.000 OA
BRANCH  11  12
ATOM     12  C   UNL     1      46.628   6.350  13.126  0.00  0.00    +0.000 C 
BRANCH  12  13
ATOM     13  C   UNL     1      46.289   5.970  11.684  0.00  0.00    +0.000 C 
BRANCH  13  14
ATOM     14  C   UNL     1      45.298   4.839  11.638  0.00  0.00    +0.000 A 
ATOM     15  C   UNL     1      44.906   4.260  10.432  0.00  0.00    +0.000 A 
ATOM     16  C   UNL     1      43.956   3.255  10.461  0.00  0.00    +0.000 A 
ATOM     17  N   UNL     1      43.393   2.820  11.605  0.00  0.00    +0.000 NA
ATOM     18  N   UNL     1      43.764   3.383  12.787  0.00  0.00    +0.000 NA
ATOM     19  C   UNL     1      44.690   4.364  12.792  0.00  0.00    +0.000 A 
ENDBRANCH  13  14
ENDBRANCH  12  13
ENDBRANCH  11  12
ENDBRANCH   5  11
TORSDOF 6
ENDMDL
