MODEL 1
REMARK VINA RESULT:    -5.688      0.000      0.000
REMARK INTER + INTRA:          -7.794
REMARK INTER:                  -7.350
REMARK INTRA:                  -0.443
REMARK UNBOUND:                -0.443
REMARK  Name = 
REMARK  7 active torsions:
REMARK  status: ('A' for Active; 'I' for Inactive)
REMARK    1  A    between atoms: C_1  and  C_2
REMARK    2  A    between atoms: C_2  and  C_3
REMARK    3  A    between atoms: C_2  and  C_4
REMARK    4  A    between atoms: C_7  and  C_8
REMARK    5  A    between atoms: C_15  and  C_17
REMARK    6  A    between atoms: C_20  and  O_21
REMARK    7  A    between atoms: O_21  and  C_22
REMARK                            x       y       z     vdW  Elec       q    Type
REMARK                         _______ _______ _______ _____ _____    ______ ____
ROOT
ATOM      1  C   UNL     1      47.055   4.963  12.736  0.00  0.00    +0.000 C 
ATOM      2  C   UNL     1      46.333   6.422  12.446  0.00  0.00    +0.000 C 
ATOM      3  C   UNL     1      47.331   7.207  11.361  0.00  0.00    +0.000 C 
ATOM      4  C   UNL     1      45.406   5.893  13.193  0.00  0.00    +0.000 C 
ATOM      5  C   UNL     1      45.621   6.271  11.341  0.00  0.00    +0.000 C 
ATOM      6  F   UNL     1      44.631   7.201  11.037  0.00  0.00    +0.000 F 
ENDROOT
BRANCH   2   7
ATOM      7  C   UNL     1      47.205   7.260  13.530  0.00  0.00    +0.000 A 
ATOM      8  N   UNL     1      48.150   6.608  14.291  0.00  0.00    +0.000 NA
ATOM      9  C   UNL     1      48.823   7.139  15.326  0.00  0.00    +0.000 A 
ATOM     10  C   UNL     1      48.597   8.455  15.723  0.00  0.00    +0.000 A 
ATOM     11  C   UNL     1      47.681   9.212  14.956  0.00  0.00    +0.000 A 
ATOM     12  C   UNL     1      46.990   8.631  13.863  0.00  0.00    +0.000 A 
ATOM     13  F   UNL     1      46.098   9.398  13.183  0.00  0.00    +0.000 F 
BRANCH  10  14
ATOM     14  C   UNL     1      49.322   8.952  16.943  0.00  0.00    +0.000 C 
ATOM     15  N   UNL     1      50.475   9.660  16.883  0.00  0.00    +0.000 N 
ATOM     16  O   UNL     1      48.839   8.732  18.046  0.00  0.00    +0.000 OA
ATOM     17  H   UNL     1      50.936   9.892  15.997  0.00  0.00    +0.000 HD
ATOM     18  H   UNL     1      50.913   9.990  17.759  0.00  0.00    +0.000 HD
ENDBRANCH  10  14
ENDBRANCH   2   7
BRANCH   5  19
ATOM     19  C   UNL     1      45.594   5.048  10.385  0.00  0.00    +0.000 A 
ATOM     20  C   UNL     1      46.016   5.205   9.056  0.00  0.00    +0.000 A 
ATOM     21  C   UNL     1      46.014   4.109   8.192  0.00  0.00    +0.000 A 
ATOM     22  C   UNL     1      45.593   2.848   8.652  0.00  0.00    +0.000 A 
ATOM     23  C   UNL     1      45.207   2.725   9.984  0.00  0.00    +0.000 A 
ATOM     24  N   UNL     1      45.183   3.814  10.789  0.00  0.00    +0.000 NA
BRANCH  22  25
ATOM     25  O   UNL     1      45.530   1.746   7.864  0.00  0.00    +0.000 OA
BRANCH  25  26
ATOM     26  C   UNL     1      46.588   1.046   7.307  0.00  0.00    +0.000 C 
ATOM     27  F   UNL     1      47.821   1.512   7.727  0.00  0.00    +0.000 F 
ATOM     28  F   UNL     1      46.471  -0.294   7.618  0.00  0.00    +0.000 F 
ATOM     29  F   UNL     1      46.534   1.198   5.935  0.00  0.00    +0.000 F 
ENDBRANCH  25  26
ENDBRANCH  22  25
ENDBRANCH   5  19
TORSDOF 5
ENDMDL
MODEL 2
REMARK VINA RESULT:    -5.682      2.546      3.035
REMARK INTER + INTRA:          -7.787
REMARK INTER:                  -8.587
REMARK INTRA:                   0.801
REMARK UNBOUND:                -0.443
REMARK  Name = 
REMARK  7 active torsions:
REMARK  status: ('A' for Active; 'I' for Inactive)
REMARK    1  A    between atoms: C_1  and  C_2
REMARK    2  A    between atoms: C_2  and  C_3
REMARK    3  A    between atoms: C_2  and  C_4
REMARK    4  A    between atoms: C_7  and  C_8
REMARK    5  A    between atoms: C_15  and  C_17
REMARK    6  A    between atoms: C_20  and  O_21
REMARK    7  A    between atoms: O_21  and  C_22
REMARK                            x       y       z     vdW  Elec       q    Type
REMARK                         _______ _______ _______ _____ _____    ______ ____
ROOT
ATOM      1  C   UNL     1      46.638   3.284  13.220  0.00  0.00    +0.000 C 
ATOM      2  C   UNL     1      46.336   4.849  13.660  0.00  0.00    +0.000 C 
ATOM      3  C   UNL     1      47.674   5.719  13.168  0.00  0.00    +0.000 C 
ATOM      4  C   UNL     1      45.188   4.330  13.992  0.00  0.00    +0.000 C 
ATOM      5  C   UNL     1      45.831   5.445  12.592  0.00  0.00    +0.000 C 
ATOM      6  F   UNL     1      45.156   6.652  12.741  0.00  0.00    +0.000 F 
ENDROOT
BRANCH   2   7
ATOM      7  C   UNL     1      47.154   4.791  15.062  0.00  0.00    +0.000 A 
ATOM      8  N   UNL     1      47.099   3.651  15.833  0.00  0.00    +0.000 NA
ATOM      9  C   UNL     1      47.589   3.524  17.078  0.00  0.00    +0.000 A 
ATOM     10  C   UNL     1      48.217   4.595  17.709  0.00  0.00    +0.000 A 
ATOM     11  C   UNL     1      48.365   5.787  16.962  0.00  0.00    +0.000 A 
ATOM     12  C   UNL     1      47.846   5.893  15.647  0.00  0.00    +0.000 A 
ATOM     13  F   UNL     1      47.990   7.074  14.991  0.00  0.00    +0.000 F 
BRANCH  10  14
ATOM     14  C   UNL     1      48.662   4.406  19.132  0.00  0.00    +0.000 C 
ATOM     15  N   UNL     1      48.379   3.297  19.857  0.00  0.00    +0.000 N 
ATOM     16  O   UNL     1      49.337   5.279  19.661  0.00  0.00    +0.000 OA
ATOM     17  H   UNL     1      47.828   2.518  19.482  0.00  0.00    +0.000 HD
ATOM     18  H   UNL     1      48.731   3.220  20.825  0.00  0.00    +0.000 HD
ENDBRANCH  10  14
ENDBRANCH   2   7
BRANCH   5  19
ATOM     19  C   UNL     1      45.710   4.875  11.152  0.00  0.00    +0.000 A 
ATOM     20  C   UNL     1      46.081   5.677  10.062  0.00  0.00    +0.000 A 
ATOM     21  C   UNL     1      45.993   5.170   8.765  0.00  0.00    +0.000 A 
ATOM     22  C   UNL     1      45.538   3.857   8.549  0.00  0.00    +0.000 A 
ATOM     23  C   UNL     1      45.204   3.082   9.657  0.00  0.00    +0.000 A 
ATOM     24  N   UNL     1      45.263   3.613  10.902  0.00  0.00    +0.000 NA
BRANCH  22  25
ATOM     25  O   UNL     1      45.392   3.307   7.318  0.00  0.00    +0.000 OA
BRANCH  25  26
ATOM     26  C   UNL     1      46.354   2.648   6.570  0.00  0.00    +0.000 C 
ATOM     27  F   UNL     1      46.368   1.283   6.794  0.00  0.00    +0.000 F 
ATOM     28  F   UNL     1      46.145   2.893   5.227  0.00  0.00    +0.000 F 
ATOM     29  F   UNL     1      47.594   3.139   6.930  0.00  0.00    +0.000 F 
ENDBRANCH  25  26
ENDBRANCH  22  25
ENDBRANCH   5  19
TORSDOF 5
ENDMDL
MODEL 3
REMARK VINA RESULT:    -5.609      2.812      3.227
REMARK INTER + INTRA:          -7.691
REMARK INTER:                  -6.979
REMARK INTRA:                  -0.712
REMARK UNBOUND:                -0.443
REMARK  Name = 
REMARK  7 active torsions:
REMARK  status: ('A' for Active; 'I' for Inactive)
REMARK    1  A    between atoms: C_1  and  C_2
REMARK    2  A    between atoms: C_2  and  C_3
REMARK    3  A    between atoms: C_2  and  C_4
REMARK    4  A    between atoms: C_7  and  C_8
REMARK    5  A    between atoms: C_15  and  C_17
REMARK    6  A    between atoms: C_20  and  O_21
REMARK    7  A    between atoms: O_21  and  C_22
REMARK                            x       y       z     vdW  Elec       q    Type
REMARK                         _______ _______ _______ _____ _____    ______ ____
ROOT
ATOM      1  C   UNL     1      48.749   6.272  12.787  0.00  0.00    +0.000 C 
ATOM      2  C   UNL     1      47.947   7.658  13.199  0.00  0.00    +0.000 C 
ATOM      3  C   UNL     1      47.814   8.536  11.785  0.00  0.00    +0.000 C 
ATOM      4  C   UNL     1      47.871   7.043  14.345  0.00  0.00    +0.000 C 
ATOM      5  C   UNL     1      46.670   7.444  12.926  0.00  0.00    +0.000 C 
ATOM      6  F   UNL     1      45.706   8.278  13.483  0.00  0.00    +0.000 F 
ENDROOT
BRANCH   2   7
ATOM      7  C   UNL     1      49.276   8.571  13.391  0.00  0.00    +0.000 A 
ATOM      8  N   UNL     1      50.457   8.185  12.796  0.00  0.00    +0.000 NA
ATOM      9  C   UNL     1      51.658   8.752  13.000  0.00  0.00    +0.000 A 
ATOM     10  C   UNL     1      51.800   9.823  13.879  0.00  0.00    +0.000 A 
ATOM     11  C   UNL     1      50.624  10.317  14.489  0.00  0.00    +0.000 A 
ATOM     12  C   UNL     1      49.366   9.707  14.251  0.00  0.00    +0.000 A 
ATOM     13  F   UNL     1      48.277  10.205  14.891  0.00  0.00    +0.000 F 
BRANCH  10  14
ATOM     14  C   UNL     1      53.187  10.348  14.123  0.00  0.00    +0.000 C 
ATOM     15  N   UNL     1      54.138  10.408  13.161  0.00  0.00    +0.000 N 
ATOM     16  O   UNL     1      53.471  10.768  15.237  0.00  0.00    +0.000 OA
ATOM     17  H   UNL     1      53.975  10.085  12.201  0.00  0.00    +0.000 HD
ATOM     18  H   UNL     1      55.067  10.799  13.389  0.00  0.00    +0.000 HD
ENDBRANCH  10  14
ENDBRANCH   2   7
BRANCH   5  19
ATOM     19  C   UNL     1      46.045   6.227  12.192  0.00  0.00    +0.000 A 
ATOM     20  C   UNL     1      45.877   6.274  10.800  0.00  0.00    +0.000 A 
ATOM     21  C   UNL     1      45.332   5.179  10.128  0.00  0.00    +0.000 A 
ATOM     22  C   UNL     1      44.954   4.028  10.843  0.00  0.00    +0.000 A 
ATOM     23  C   UNL     1      45.160   4.008  12.221  0.00  0.00    +0.000 A 
ATOM     24  N   UNL     1      45.656   5.099  12.851  0.00  0.00    +0.000 NA
BRANCH  22  25
ATOM     25  O   UNL     1      44.387   2.940  10.265  0.00  0.00    +0.000 OA
BRANCH  25  26
ATOM     26  C   UNL     1      44.762   2.322   9.084  0.00  0.00    +0.000 C 
ATOM     27  F   UNL     1      44.329   3.002   7.960  0.00  0.00    +0.000 F 
ATOM     28  F   UNL     1      46.136   2.192   9.045  0.00  0.00    +0.000 F 
ATOM     29  F   UNL     1      44.190   1.064   9.053  0.00  0.00    +0.000 F 
ENDBRANCH  25  26
ENDBRANCH  22  25
ENDBRANCH   5  19
TORSDOF 5
ENDMDL
MODEL 4
REMARK VINA RESULT:    -5.510      2.306      2.868
REMARK INTER + INTRA:          -7.564
REMARK INTER:                  -7.920
REMARK INTRA:                   0.356
REMARK UNBOUND:                -0.443
REMARK  Name = 
REMARK  7 active torsions:
REMARK  status: ('A' for Active; 'I' for Inactive)
REMARK    1  A    between atoms: C_1  and  C_2
REMARK    2  A    between atoms: C_2  and  C_3
REMARK    3  A    between atoms: C_2  and  C_4
REMARK    4  A    between atoms: C_7  and  C_8
REMARK    5  A    between atoms: C_15  and  C_17
REMARK    6  A    between atoms: C_20  and  O_21
REMARK    7  A    between atoms: O_21  and  C_22
REMARK                            x       y       z     vdW  Elec       q    Type
REMARK                         _______ _______ _______ _____ _____    ______ ____
ROOT
ATOM      1  C   UNL     1      47.445   3.939  13.214  0.00  0.00    +0.000 C 
ATOM      2  C   UNL     1      46.524   5.162  13.840  0.00  0.00    +0.000 C 
ATOM      3  C   UNL     1      47.182   6.573  13.235  0.00  0.00    +0.000 C 
ATOM      4  C   UNL     1      45.836   4.151  14.290  0.00  0.00    +0.000 C 
ATOM      5  C   UNL     1      45.618   5.452  12.920  0.00  0.00    +0.000 C 
ATOM      6  F   UNL     1      44.491   6.184  13.282  0.00  0.00    +0.000 F 
ENDROOT
BRANCH   2   7
ATOM      7  C   UNL     1      47.506   5.489  15.091  0.00  0.00    +0.000 A 
ATOM      8  N   UNL     1      48.480   6.453  14.954  0.00  0.00    +0.000 NA
ATOM      9  C   UNL     1      49.455   6.711  15.843  0.00  0.00    +0.000 A 
ATOM     10  C   UNL     1      49.554   5.980  17.024  0.00  0.00    +0.000 A 
ATOM     11  C   UNL     1      48.555   5.008  17.267  0.00  0.00    +0.000 A 
ATOM     12  C   UNL     1      47.532   4.761  16.317  0.00  0.00    +0.000 A 
ATOM     13  F   UNL     1      46.619   3.792  16.591  0.00  0.00    +0.000 F 
BRANCH  10  14
ATOM     14  C   UNL     1      50.720   6.265  17.928  0.00  0.00    +0.000 C 
ATOM     15  N   UNL     1      52.010   6.202  17.518  0.00  0.00    +0.000 N 
ATOM     16  O   UNL     1      50.502   6.598  19.086  0.00  0.00    +0.000 OA
ATOM     17  H   UNL     1      52.273   5.941  16.562  0.00  0.00    +0.000 HD
ATOM     18  H   UNL     1      52.766   6.430  18.184  0.00  0.00    +0.000 HD
ENDBRANCH  10  14
ENDBRANCH   2   7
BRANCH   5  19
ATOM     19  C   UNL     1      45.527   4.909  11.468  0.00  0.00    +0.000 A 
ATOM     20  C   UNL     1      44.945   3.653  11.239  0.00  0.00    +0.000 A 
ATOM     21  C   UNL     1      44.841   3.162   9.936  0.00  0.00    +0.000 A 
ATOM     22  C   UNL     1      45.316   3.925   8.854  0.00  0.00    +0.000 A 
ATOM     23  C   UNL     1      45.864   5.178   9.118  0.00  0.00    +0.000 A 
ATOM     24  N   UNL     1      45.985   5.612  10.396  0.00  0.00    +0.000 NA
BRANCH  22  25
ATOM     25  O   UNL     1      45.282   3.501   7.567  0.00  0.00    +0.000 OA
BRANCH  25  26
ATOM     26  C   UNL     1      46.290   2.860   6.864  0.00  0.00    +0.000 C 
ATOM     27  F   UNL     1      46.019   2.752   5.512  0.00  0.00    +0.000 F 
ATOM     28  F   UNL     1      47.481   3.535   7.043  0.00  0.00    +0.000 F 
ATOM     29  F   UNL     1      46.419   1.578   7.364  0.00  0.00    +0.000 F 
ENDBRANCH  25  26
ENDBRANCH  22  25
ENDBRANCH   5  19
TORSDOF 5
ENDMDL
MODEL 5
REMARK VINA RESULT:    -5.358      3.789      8.866
REMARK INTER + INTRA:          -7.367
REMARK INTER:                  -6.579
REMARK INTRA:                  -0.789
REMARK UNBOUND:                -0.443
REMARK  Name = 
REMARK  7 active torsions:
REMARK  status: ('A' for Active; 'I' for Inactive)
REMARK    1  A    between atoms: C_1  and  C_2
REMARK    2  A    between atoms: C_2  and  C_3
REMARK    3  A    between atoms: C_2  and  C_4
REMARK    4  A    between atoms: C_7  and  C_8
REMARK    5  A    between atoms: C_15  and  C_17
REMARK    6  A    between atoms: C_20  and  O_21
REMARK    7  A    between atoms: O_21  and  C_22
REMARK                            x       y       z     vdW  Elec       q    Type
REMARK                         _______ _______ _______ _____ _____    ______ ____
ROOT
ATOM      1  C   UNL     1      48.703   6.966  13.248  0.00  0.00    +0.000 C 
ATOM      2  C   UNL     1      47.650   7.911  12.391  0.00  0.00    +0.000 C 
ATOM      3  C   UNL     1      46.606   8.557  13.523  0.00  0.00    +0.000 C 
ATOM      4  C   UNL     1      48.451   7.582  11.418  0.00  0.00    +0.000 C 
ATOM      5  C   UNL     1      48.126   9.145  12.452  0.00  0.00    +0.000 C 
ATOM      6  F   UNL     1      47.665  10.097  11.548  0.00  0.00    +0.000 F 
ENDROOT
BRANCH   2   7
ATOM      7  C   UNL     1      46.482   6.790  12.264  0.00  0.00    +0.000 A 
ATOM      8  N   UNL     1      46.673   5.545  12.820  0.00  0.00    +0.000 NA
ATOM      9  C   UNL     1      45.868   4.482  12.653  0.00  0.00    +0.000 A 
ATOM     10  C   UNL     1      44.725   4.571  11.862  0.00  0.00    +0.000 A 
ATOM     11  C   UNL     1      44.427   5.835  11.301  0.00  0.00    +0.000 A 
ATOM     12  C   UNL     1      45.289   6.943  11.498  0.00  0.00    +0.000 A 
ATOM     13  F   UNL     1      44.967   8.123  10.907  0.00  0.00    +0.000 F 
BRANCH  10  14
ATOM     14  C   UNL     1      43.921   3.319  11.652  0.00  0.00    +0.000 C 
ATOM     15  N   UNL     1      43.694   2.409  12.629  0.00  0.00    +0.000 N 
ATOM     16  O   UNL     1      43.420   3.117  10.553  0.00  0.00    +0.000 OA
ATOM     17  H   UNL     1      44.070   2.512  13.578  0.00  0.00    +0.000 HD
ATOM     18  H   UNL     1      43.115   1.579  12.425  0.00  0.00    +0.000 HD
ENDBRANCH  10  14
ENDBRANCH   2   7
BRANCH   5  19
ATOM     19  C   UNL     1      49.317   9.666  13.300  0.00  0.00    +0.000 A 
ATOM     20  C   UNL     1      50.540   9.944  12.671  0.00  0.00    +0.000 A 
ATOM     21  C   UNL     1      51.613  10.430  13.420  0.00  0.00    +0.000 A 
ATOM     22  C   UNL     1      51.469  10.643  14.803  0.00  0.00    +0.000 A 
ATOM     23  C   UNL     1      50.233  10.379  15.388  0.00  0.00    +0.000 A 
ATOM     24  N   UNL     1      49.222   9.873  14.643  0.00  0.00    +0.000 NA
BRANCH  22  25
ATOM     25  O   UNL     1      52.475  11.078  15.602  0.00  0.00    +0.000 OA
BRANCH  25  26
ATOM     26  C   UNL     1      53.348  10.308  16.352  0.00  0.00    +0.000 C 
ATOM     27  F   UNL     1      53.436   9.002  15.904  0.00  0.00    +0.000 F 
ATOM     28  F   UNL     1      54.603  10.885  16.340  0.00  0.00    +0.000 F 
ATOM     29  F   UNL     1      52.883  10.269  17.652  0.00  0.00    +0.000 F 
ENDBRANCH  25  26
ENDBRANCH  22  25
ENDBRANCH   5  19
TORSDOF 5
ENDMDL
MODEL 6
REMARK VINA RESULT:    -5.318      3.139      3.969
REMARK INTER + INTRA:          -7.316
REMARK INTER:                  -6.581
REMARK INTRA:                  -0.735
REMARK UNBOUND:                -0.443
REMARK  Name = 
REMARK  7 active torsions:
REMARK  status: ('A' for Active; 'I' for Inactive)
REMARK    1  A    between atoms: C_1  and  C_2
REMARK    2  A    between atoms: C_2  and  C_3
REMARK    3  A    between atoms: C_2  and  C_4
REMARK    4  A    between atoms: C_7  and  C_8
REMARK    5  A    between atoms: C_15  and  C_17
REMARK    6  A    between atoms: C_20  and  O_21
REMARK    7  A    between atoms: O_21  and  C_22
REMARK                            x       y       z     vdW  Elec       q    Type
REMARK                         _______ _______ _______ _____ _____    ______ ____
ROOT
ATOM      1  C   UNL     1      48.350   6.922  13.857  0.00  0.00    +0.000 C 
ATOM      2  C   UNL     1      48.308   8.469  13.275  0.00  0.00    +0.000 C 
ATOM      3  C   UNL     1      49.009   8.397  11.761  0.00  0.00    +0.000 C 
ATOM      4  C   UNL     1      47.639   8.659  14.377  0.00  0.00    +0.000 C 
ATOM      5  C   UNL     1      47.221   8.554  12.524  0.00  0.00    +0.000 C 
ATOM      6  F   UNL     1      46.724   9.809  12.186  0.00  0.00    +0.000 F 
ENDROOT
BRANCH   2   7
ATOM      7  C   UNL     1      49.819   8.860  13.723  0.00  0.00    +0.000 A 
ATOM      8  N   UNL     1      50.660   7.879  14.200  0.00  0.00    +0.000 NA
ATOM      9  C   UNL     1      51.869   8.085  14.751  0.00  0.00    +0.000 A 
ATOM     10  C   UNL     1      52.378   9.374  14.888  0.00  0.00    +0.000 A 
ATOM     11  C   UNL     1      51.599  10.434  14.371  0.00  0.00    +0.000 A 
ATOM     12  C   UNL     1      50.331  10.190  13.786  0.00  0.00    +0.000 A 
ATOM     13  F   UNL     1      49.614  11.252  13.335  0.00  0.00    +0.000 F 
BRANCH  10  14
ATOM     14  C   UNL     1      53.697   9.533  15.593  0.00  0.00    +0.000 C 
ATOM     15  N   UNL     1      54.588  10.506  15.289  0.00  0.00    +0.000 N 
ATOM     16  O   UNL     1      53.974   8.766  16.506  0.00  0.00    +0.000 OA
ATOM     17  H   UNL     1      54.425  11.192  14.544  0.00  0.00    +0.000 HD
ATOM     18  H   UNL     1      55.469  10.573  15.825  0.00  0.00    +0.000 HD
ENDBRANCH  10  14
ENDBRANCH   2   7
BRANCH   5  19
ATOM     19  C   UNL     1      46.264   7.406  12.102  0.00  0.00    +0.000 A 
ATOM     20  C   UNL     1      46.509   6.711  10.908  0.00  0.00    +0.000 A 
ATOM     21  C   UNL     1      45.666   5.666  10.526  0.00  0.00    +0.000 A 
ATOM     22  C   UNL     1      44.574   5.308  11.338  0.00  0.00    +0.000 A 
ATOM     23  C   UNL     1      44.378   6.003  12.529  0.00  0.00    +0.000 A 
ATOM     24  N   UNL     1      45.191   7.037  12.854  0.00  0.00    +0.000 NA
BRANCH  22  25
ATOM     25  O   UNL     1      43.692   4.329  11.017  0.00  0.00    +0.000 OA
BRANCH  25  26
ATOM     26  C   UNL     1      43.918   2.962  11.003  0.00  0.00    +0.000 C 
ATOM     27  F   UNL     1      42.952   2.250  11.691  0.00  0.00    +0.000 F 
ATOM     28  F   UNL     1      43.978   2.515   9.698  0.00  0.00    +0.000 F 
ATOM     29  F   UNL     1      45.130   2.717  11.620  0.00  0.00    +0.000 F 
ENDBRANCH  25  26
ENDBRANCH  22  25
ENDBRANCH   5  19
TORSDOF 5
ENDMDL
MODEL 7
REMARK VINA RESULT:    -5.281      4.305      5.347
REMARK INTER + INTRA:          -7.269
REMARK INTER:                  -6.572
REMARK INTRA:                  -0.696
REMARK UNBOUND:                -0.443
REMARK  Name = 
REMARK  7 active torsions:
REMARK  status: ('A' for Active; 'I' for Inactive)
REMARK    1  A    between atoms: C_1  and  C_2
REMARK    2  A    between atoms: C_2  and  C_3
REMARK    3  A    between atoms: C_2  and  C_4
REMARK    4  A    between atoms: C_7  and  C_8
REMARK    5  A    between atoms: C_15  and  C_17
REMARK    6  A    between atoms: C_20  and  O_21
REMARK    7  A    between atoms: O_21  and  C_22
REMARK                            x       y       z     vdW  Elec       q    Type
REMARK                         _______ _______ _______ _____ _____    ______ ____
ROOT
ATOM      1  C   UNL     1      49.215   7.031  12.000  0.00  0.00    +0.000 C 
ATOM      2  C   UNL     1      49.002   8.339  12.989  0.00  0.00    +0.000 C 
ATOM      3  C   UNL     1      48.033   9.394  12.132  0.00  0.00    +0.000 C 
ATOM      4  C   UNL     1      49.658   7.575  13.816  0.00  0.00    +0.000 C 
ATOM      5  C   UNL     1      47.854   8.145  13.618  0.00  0.00    +0.000 C 
ATOM      6  F   UNL     1      47.573   8.885  14.763  0.00  0.00    +0.000 F 
ENDROOT
BRANCH   2   7
ATOM      7  C   UNL     1      50.190   9.236  12.340  0.00  0.00    +0.000 A 
ATOM      8  N   UNL     1      50.813   8.808  11.189  0.00  0.00    +0.000 NA
ATOM      9  C   UNL     1      51.906   9.362  10.638  0.00  0.00    +0.000 A 
ATOM     10  C   UNL     1      52.520  10.465  11.228  0.00  0.00    +0.000 A 
ATOM     11  C   UNL     1      51.908  11.001  12.384  0.00  0.00    +0.000 A 
ATOM     12  C   UNL     1      50.749  10.403  12.941  0.00  0.00    +0.000 A 
ATOM     13  F   UNL     1      50.225  10.944  14.072  0.00  0.00    +0.000 F 
BRANCH  10  14
ATOM     14  C   UNL     1      53.788  10.976  10.604  0.00  0.00    +0.000 C 
ATOM     15  N   UNL     1      53.973  11.066   9.265  0.00  0.00    +0.000 N 
ATOM     16  O   UNL     1      54.694  11.356  11.335  0.00  0.00    +0.000 OA
ATOM     17  H   UNL     1      53.259  10.777   8.588  0.00  0.00    +0.000 HD
ATOM     18  H   UNL     1      54.862  11.445   8.901  0.00  0.00    +0.000 HD
ENDBRANCH  10  14
ENDBRANCH   2   7
BRANCH   5  19
ATOM     19  C   UNL     1      46.807   7.027  13.366  0.00  0.00    +0.000 A 
ATOM     20  C   UNL     1      45.645   7.325  12.637  0.00  0.00    +0.000 A 
ATOM     21  C   UNL     1      44.705   6.324  12.389  0.00  0.00    +0.000 A 
ATOM     22  C   UNL     1      44.921   5.018  12.864  0.00  0.00    +0.000 A 
ATOM     23  C   UNL     1      46.098   4.754  13.561  0.00  0.00    +0.000 A 
ATOM     24  N   UNL     1      46.974   5.754  13.819  0.00  0.00    +0.000 NA
BRANCH  22  25
ATOM     25  O   UNL     1      44.038   4.003  12.693  0.00  0.00    +0.000 OA
BRANCH  25  26
ATOM     26  C   UNL     1      43.768   3.309  11.525  0.00  0.00    +0.000 C 
ATOM     27  F   UNL     1      43.030   2.159  11.741  0.00  0.00    +0.000 F 
ATOM     28  F   UNL     1      43.093   4.131  10.644  0.00  0.00    +0.000 F 
ATOM     29  F   UNL     1      44.969   2.930  10.958  0.00  0.00    +0.000 F 
ENDBRANCH  25  26
ENDBRANCH  22  25
ENDBRANCH   5  19
TORSDOF 5
ENDMDL
MODEL 8
REMARK VINA RESULT:    -4.795      4.323      8.579
REMARK INTER + INTRA:          -6.640
REMARK INTER:                  -5.834
REMARK INTRA:                  -0.805
REMARK UNBOUND:                -0.443
REMARK  Name = 
REMARK  7 active torsions:
REMARK  status: ('A' for Active; 'I' for Inactive)
REMARK    1  A    between atoms: C_1  and  C_2
REMARK    2  A    between atoms: C_2  and  C_3
REMARK    3  A    between atoms: C_2  and  C_4
REMARK    4  A    between atoms: C_7  and  C_8
REMARK    5  A    between atoms: C_15  and  C_17
REMARK    6  A    between atoms: C_20  and  O_21
REMARK    7  A    between atoms: O_21  and  C_22
REMARK                            x       y       z     vdW  Elec       q    Type
REMARK                         _______ _______ _______ _____ _____    ______ ____
ROOT
ATOM      1  C   UNL     1      49.121   6.812  12.830  0.00  0.00    +0.000 C 
ATOM      2  C   UNL     1      48.251   8.210  12.675  0.00  0.00    +0.000 C 
ATOM      3  C   UNL     1      47.546   8.466  14.167  0.00  0.00    +0.000 C 
ATOM      4  C   UNL     1      48.823   8.207  11.504  0.00  0.00    +0.000 C 
ATOM      5  C   UNL     1      49.030   9.182  13.124  0.00  0.00    +0.000 C 
ATOM      6  F   UNL     1      48.725  10.501  12.802  0.00  0.00    +0.000 F 
ENDROOT
BRANCH   2   7
ATOM      7  C   UNL     1      46.830   7.492  12.362  0.00  0.00    +0.000 A 
ATOM      8  N   UNL     1      46.740   6.118  12.400  0.00  0.00    +0.000 NA
ATOM      9  C   UNL     1      45.679   5.392  12.009  0.00  0.00    +0.000 A 
ATOM     10  C   UNL     1      44.537   6.012  11.508  0.00  0.00    +0.000 A 
ATOM     11  C   UNL     1      44.527   7.426  11.489  0.00  0.00    +0.000 A 
ATOM     12  C   UNL     1      45.657   8.170  11.915  0.00  0.00    +0.000 A 
ATOM     13  F   UNL     1      45.600   9.525  11.843  0.00  0.00    +0.000 F 
BRANCH  10  14
ATOM     14  C   UNL     1      43.425   5.132  11.009  0.00  0.00    +0.000 C 
ATOM     15  N   UNL     1      42.378   4.750  11.780  0.00  0.00    +0.000 N 
ATOM     16  O   UNL     1      43.445   4.760   9.844  0.00  0.00    +0.000 OA
ATOM     17  H   UNL     1      42.285   5.029  12.762  0.00  0.00    +0.000 HD
ATOM     18  H   UNL     1      41.636   4.160  11.370  0.00  0.00    +0.000 HD
ENDBRANCH  10  14
ENDBRANCH   2   7
BRANCH   5  19
ATOM     19  C   UNL     1      50.405   9.050  13.832  0.00  0.00    +0.000 A 
ATOM     20  C   UNL     1      51.580   9.287  13.102  0.00  0.00    +0.000 A 
ATOM     21  C   UNL     1      52.822   9.189  13.732  0.00  0.00    +0.000 A 
ATOM     22  C   UNL     1      52.897   8.857  15.097  0.00  0.00    +0.000 A 
ATOM     23  C   UNL     1      51.709   8.655  15.795  0.00  0.00    +0.000 A 
ATOM     24  N   UNL     1      50.520   8.720  15.148  0.00  0.00    +0.000 NA
BRANCH  22  25
ATOM     25  O   UNL     1      54.066   8.709  15.768  0.00  0.00    +0.000 OA
BRANCH  25  26
ATOM     26  C   UNL     1      54.892   7.597  15.786  0.00  0.00    +0.000 C 
ATOM     27  F   UNL     1      54.198   6.414  15.966  0.00  0.00    +0.000 F 
ATOM     28  F   UNL     1      55.611   7.536  14.609  0.00  0.00    +0.000 F 
ATOM     29  F   UNL     1      55.770   7.727  16.845  0.00  0.00    +0.000 F 
ENDBRANCH  25  26
ENDBRANCH  22  25
ENDBRANCH   5  19
TORSDOF 5
ENDMDL
MODEL 9
REMARK VINA RESULT:    -4.788      3.947      8.298
REMARK INTER + INTRA:          -6.631
REMARK INTER:                  -6.767
REMARK INTRA:                   0.135
REMARK UNBOUND:                -0.443
REMARK  Name = 
REMARK  7 active torsions:
REMARK  status: ('A' for Active; 'I' for Inactive)
REMARK    1  A    between atoms: C_1  and  C_2
REMARK    2  A    between atoms: C_2  and  C_3
REMARK    3  A    between atoms: C_2  and  C_4
REMARK    4  A    between atoms: C_7  and  C_8
REMARK    5  A    between atoms: C_15  and  C_17
REMARK    6  A    between atoms: C_20  and  O_21
REMARK    7  A    between atoms: O_21  and  C_22
REMARK                            x       y       z     vdW  Elec       q    Type
REMARK                         _______ _______ _______ _____ _____    ______ ____
ROOT
ATOM      1  C   UNL     1      48.251   7.520  11.681  0.00  0.00    +0.000 C 
ATOM      2  C   UNL     1      47.304   7.637  13.033  0.00  0.00    +0.000 C 
ATOM      3  C   UNL     1      47.821   6.416  14.048  0.00  0.00    +0.000 C 
ATOM      4  C   UNL     1      46.878   8.696  12.405  0.00  0.00    +0.000 C 
ATOM      5  C   UNL     1      47.993   8.353  13.907  0.00  0.00    +0.000 C 
ATOM      6  F   UNL     1      47.332   8.918  14.994  0.00  0.00    +0.000 F 
ENDROOT
BRANCH   2   7
ATOM      7  C   UNL     1      46.223   6.514  12.579  0.00  0.00    +0.000 A 
ATOM      8  N   UNL     1      46.393   5.207  12.980  0.00  0.00    +0.000 NA
ATOM      9  C   UNL     1      45.673   4.157  12.550  0.00  0.00    +0.000 A 
ATOM     10  C   UNL     1      44.653   4.327  11.617  0.00  0.00    +0.000 A 
ATOM     11  C   UNL     1      44.377   5.649  11.197  0.00  0.00    +0.000 A 
ATOM     12  C   UNL     1      45.146   6.741  11.672  0.00  0.00    +0.000 A 
ATOM     13  F   UNL     1      44.854   7.984  11.208  0.00  0.00    +0.000 F 
BRANCH  10  14
ATOM     14  C   UNL     1      43.949   3.096  11.118  0.00  0.00    +0.000 C 
ATOM     15  N   UNL     1      43.415   2.161  11.940  0.00  0.00    +0.000 N 
ATOM     16  O   UNL     1      43.826   2.936   9.911  0.00  0.00    +0.000 OA
ATOM     17  H   UNL     1      43.469   2.229  12.962  0.00  0.00    +0.000 HD
ATOM     18  H   UNL     1      42.926   1.347  11.534  0.00  0.00    +0.000 HD
ENDBRANCH  10  14
ENDBRANCH   2   7
BRANCH   5  19
ATOM     19  C   UNL     1      49.464   8.839  13.793  0.00  0.00    +0.000 A 
ATOM     20  C   UNL     1      49.723  10.164  13.413  0.00  0.00    +0.000 A 
ATOM     21  C   UNL     1      51.040  10.617  13.324  0.00  0.00    +0.000 A 
ATOM     22  C   UNL     1      52.106   9.748  13.618  0.00  0.00    +0.000 A 
ATOM     23  C   UNL     1      51.810   8.447  14.017  0.00  0.00    +0.000 A 
ATOM     24  N   UNL     1      50.523   8.025  14.058  0.00  0.00    +0.000 NA
BRANCH  22  25
ATOM     25  O   UNL     1      53.412  10.104  13.521  0.00  0.00    +0.000 OA
BRANCH  25  26
ATOM     26  C   UNL     1      54.193  10.136  12.377  0.00  0.00    +0.000 C 
ATOM     27  F   UNL     1      55.532  10.357  12.646  0.00  0.00    +0.000 F 
ATOM     28  F   UNL     1      54.051   8.950  11.686  0.00  0.00    +0.000 F 
ATOM     29  F   UNL     1      53.754  11.177  11.582  0.00  0.00    +0.000 F 
ENDBRANCH  25  26
ENDBRANCH  22  25
ENDBRANCH   5  19
TORSDOF 5
ENDMDL
