MODEL 1
REMARK VINA RESULT:    -8.336      0.000      0.000
REMARK INTER + INTRA:         -12.158
REMARK INTER:                 -11.260
REMARK INTRA:                  -0.898
REMARK UNBOUND:                -0.898
REMARK  Name = 
REMARK  7 active torsions:
REMARK  status: ('A' for Active; 'I' for Inactive)
REMARK    1  A    between atoms: C_1  and  C_2
REMARK    2  A    between atoms: C_2  and  N_3
REMARK    3  A    between atoms: C_2  and  C_16
REMARK    4  A    between atoms: C_4  and  C_6
REMARK    5  A    between atoms: C_19  and  C_20
REMARK    6  A    between atoms: C_20  and  N_21
REMARK    7  A    between atoms: C_22  and  C_24
REMARK                            x       y       z     vdW  Elec       q    Type
REMARK                         _______ _______ _______ _____ _____    ______ ____
ROOT
ATOM      1  C   UNL     1      47.675   9.006  13.704  0.00  0.00    +0.000 C 
ATOM      2  C   UNL     1      47.849   7.482  13.743  0.00  0.00    +0.000 C 
ENDROOT
BRANCH   2   3
ATOM      3  C   UNL     1      46.705   6.836  12.955  0.00  0.00    +0.000 A 
ATOM      4  C   UNL     1      45.973   7.587  12.031  0.00  0.00    +0.000 A 
ATOM      5  C   UNL     1      45.007   6.958  11.249  0.00  0.00    +0.000 A 
ATOM      6  C   UNL     1      44.778   5.591  11.402  0.00  0.00    +0.000 A 
ATOM      7  C   UNL     1      45.512   4.932  12.382  0.00  0.00    +0.000 A 
ATOM      8  N   UNL     1      46.461   5.517  13.154  0.00  0.00    +0.000 NA
BRANCH   6   9
ATOM      9  C   UNL     1      43.789   4.858  10.546  0.00  0.00    +0.000 C 
BRANCH   9  10
ATOM     10  N   UNL     1      44.416   3.817   9.765  0.00  0.00    +0.000 N 
ATOM     11  C   UNL     1      45.340   4.143   8.793  0.00  0.00    +0.000 C 
ATOM     12  O   UNL     1      45.654   5.296   8.521  0.00  0.00    +0.000 OA
ATOM     13  H   UNL     1      44.359   2.866  10.101  0.00  0.00    +0.000 HD
BRANCH  11  14
ATOM     14  C   UNL     1      45.986   3.010   8.092  0.00  0.00    +0.000 A 
ATOM     15  C   UNL     1      46.770   3.178   6.948  0.00  0.00    +0.000 A 
ATOM     16  C   UNL     1      47.347   2.060   6.346  0.00  0.00    +0.000 A 
ATOM     17  C   UNL     1      47.122   0.815   6.913  0.00  0.00    +0.000 A 
ATOM     18  N   UNL     1      46.382   0.622   8.026  0.00  0.00    +0.000 NA
ATOM     19  C   UNL     1      45.839   1.726   8.600  0.00  0.00    +0.000 A 
ENDBRANCH  11  14
ENDBRANCH   9  10
ENDBRANCH   6   9
ENDBRANCH   2   3
BRANCH   2  20
ATOM     20  N   UNL     1      47.886   6.954  15.102  0.00  0.00    +0.000 N 
ATOM     21  C   UNL     1      49.040   6.563  15.736  0.00  0.00    +0.000 C 
ATOM     22  O   UNL     1      50.151   6.673  15.235  0.00  0.00    +0.000 OA
ATOM     23  H   UNL     1      47.029   6.496  15.398  0.00  0.00    +0.000 HD
BRANCH  21  24
ATOM     24  C   UNL     1      48.873   6.084  17.114  0.00  0.00    +0.000 A 
ATOM     25  C   UNL     1      49.196   4.773  17.438  0.00  0.00    +0.000 A 
ATOM     26  S   UNL     1      49.007   4.411  19.095  0.00  0.00    +0.000 S 
ATOM     27  C   UNL     1      48.433   5.979  19.427  0.00  0.00    +0.000 A 
ATOM     28  N   UNL     1      48.060   6.340  20.684  0.00  0.00    +0.000 NA
ATOM     29  C   UNL     1      47.608   7.545  20.782  0.00  0.00    +0.000 A 
ATOM     30  N   UNL     1      47.505   8.428  19.738  0.00  0.00    +0.000 N 
ATOM     31  C   UNL     1      47.916   8.125  18.464  0.00  0.00    +0.000 A 
ATOM     32  O   UNL     1      47.887   8.960  17.566  0.00  0.00    +0.000 OA
ATOM     33  C   UNL     1      48.406   6.772  18.295  0.00  0.00    +0.000 A 
ATOM     34  H   UNL     1      47.154   9.363  19.881  0.00  0.00    +0.000 HD
ENDBRANCH  21  24
ENDBRANCH   2  20
TORSDOF 6
ENDMDL
MODEL 2
REMARK VINA RESULT:    -8.278      1.641      2.087
REMARK INTER + INTRA:         -12.080
REMARK INTER:                 -10.940
REMARK INTRA:                  -1.140
REMARK UNBOUND:                -0.898
REMARK  Name = 
REMARK  7 active torsions:
REMARK  status: ('A' for Active; 'I' for Inactive)
REMARK    1  A    between atoms: C_1  and  C_2
REMARK    2  A    between atoms: C_2  and  N_3
REMARK    3  A    between atoms: C_2  and  C_16
REMARK    4  A    between atoms: C_4  and  C_6
REMARK    5  A    between atoms: C_19  and  C_20
REMARK    6  A    between atoms: C_20  and  N_21
REMARK    7  A    between atoms: C_22  and  C_24
REMARK                            x       y       z     vdW  Elec       q    Type
REMARK                         _______ _______ _______ _____ _____    ______ ____
ROOT
ATOM      1  C   UNL     1      47.534   8.834  13.693  0.00  0.00    +0.000 C 
ATOM      2  C   UNL     1      48.092   7.438  13.997  0.00  0.00    +0.000 C 
ENDROOT
BRANCH   2   3
ATOM      3  C   UNL     1      47.107   6.389  13.471  0.00  0.00    +0.000 A 
ATOM      4  C   UNL     1      46.009   6.778  12.699  0.00  0.00    +0.000 A 
ATOM      5  C   UNL     1      45.183   5.803  12.143  0.00  0.00    +0.000 A 
ATOM      6  C   UNL     1      45.459   4.455  12.367  0.00  0.00    +0.000 A 
ATOM      7  C   UNL     1      46.539   4.158  13.192  0.00  0.00    +0.000 A 
ATOM      8  N   UNL     1      47.361   5.086  13.743  0.00  0.00    +0.000 NA
BRANCH   6   9
ATOM      9  C   UNL     1      44.634   3.368  11.745  0.00  0.00    +0.000 C 
BRANCH   9  10
ATOM     10  N   UNL     1      45.272   2.805  10.578  0.00  0.00    +0.000 N 
ATOM     11  C   UNL     1      45.020   3.336   9.328  0.00  0.00    +0.000 C 
ATOM     12  O   UNL     1      44.246   4.265   9.134  0.00  0.00    +0.000 OA
ATOM     13  H   UNL     1      46.072   2.203  10.713  0.00  0.00    +0.000 HD
BRANCH  11  14
ATOM     14  C   UNL     1      45.773   2.744   8.198  0.00  0.00    +0.000 A 
ATOM     15  C   UNL     1      46.075   3.458   7.037  0.00  0.00    +0.000 A 
ATOM     16  C   UNL     1      46.791   2.831   6.017  0.00  0.00    +0.000 A 
ATOM     17  C   UNL     1      47.182   1.513   6.199  0.00  0.00    +0.000 A 
ATOM     18  N   UNL     1      46.918   0.801   7.316  0.00  0.00    +0.000 NA
ATOM     19  C   UNL     1      46.229   1.436   8.299  0.00  0.00    +0.000 A 
ENDBRANCH  11  14
ENDBRANCH   9  10
ENDBRANCH   6   9
ENDBRANCH   2   3
BRANCH   2  20
ATOM     20  N   UNL     1      48.340   7.228  15.419  0.00  0.00    +0.000 N 
ATOM     21  C   UNL     1      49.581   6.970  15.946  0.00  0.00    +0.000 C 
ATOM     22  O   UNL     1      50.604   6.948  15.274  0.00  0.00    +0.000 OA
ATOM     23  H   UNL     1      47.544   6.862  15.934  0.00  0.00    +0.000 HD
BRANCH  21  24
ATOM     24  C   UNL     1      49.629   6.816  17.406  0.00  0.00    +0.000 A 
ATOM     25  C   UNL     1      50.106   7.851  18.199  0.00  0.00    +0.000 A 
ATOM     26  S   UNL     1      50.025   7.524  19.871  0.00  0.00    +0.000 S 
ATOM     27  C   UNL     1      49.400   5.966  19.592  0.00  0.00    +0.000 A 
ATOM     28  N   UNL     1      49.120   5.125  20.623  0.00  0.00    +0.000 NA
ATOM     29  C   UNL     1      48.691   3.962  20.263  0.00  0.00    +0.000 A 
ATOM     30  N   UNL     1      48.505   3.566  18.963  0.00  0.00    +0.000 N 
ATOM     31  C   UNL     1      48.727   4.397  17.894  0.00  0.00    +0.000 A 
ATOM     32  O   UNL     1      48.476   4.043  16.746  0.00  0.00    +0.000 OA
ATOM     33  C   UNL     1      49.238   5.706  18.243  0.00  0.00    +0.000 A 
ATOM     34  H   UNL     1      48.154   2.645  18.746  0.00  0.00    +0.000 HD
ENDBRANCH  21  24
ENDBRANCH   2  20
TORSDOF 6
ENDMDL
MODEL 3
REMARK VINA RESULT:    -8.050      2.784      4.230
REMARK INTER + INTRA:         -11.772
REMARK INTER:                 -10.496
REMARK INTRA:                  -1.276
REMARK UNBOUND:                -0.898
REMARK  Name = 
REMARK  7 active torsions:
REMARK  status: ('A' for Active; 'I' for Inactive)
REMARK    1  A    between atoms: C_1  and  C_2
REMARK    2  A    between atoms: C_2  and  N_3
REMARK    3  A    between atoms: C_2  and  C_16
REMARK    4  A    between atoms: C_4  and  C_6
REMARK    5  A    between atoms: C_19  and  C_20
REMARK    6  A    between atoms: C_20  and  N_21
REMARK    7  A    between atoms: C_22  and  C_24
REMARK                            x       y       z     vdW  Elec       q    Type
REMARK                         _______ _______ _______ _____ _____    ______ ____
ROOT
ATOM      1  C   UNL     1      47.532   3.594  15.517  0.00  0.00    +0.000 C 
ATOM      2  C   UNL     1      47.104   4.970  14.990  0.00  0.00    +0.000 C 
ENDROOT
BRANCH   2   3
ATOM      3  C   UNL     1      46.136   4.770  13.820  0.00  0.00    +0.000 A 
ATOM      4  C   UNL     1      45.471   5.864  13.259  0.00  0.00    +0.000 A 
ATOM      5  C   UNL     1      44.676   5.677  12.130  0.00  0.00    +0.000 A 
ATOM      6  C   UNL     1      44.551   4.403  11.577  0.00  0.00    +0.000 A 
ATOM      7  C   UNL     1      45.203   3.362  12.231  0.00  0.00    +0.000 A 
ATOM      8  N   UNL     1      45.985   3.516  13.328  0.00  0.00    +0.000 NA
BRANCH   6   9
ATOM      9  C   UNL     1      43.753   4.161  10.331  0.00  0.00    +0.000 C 
BRANCH   9  10
ATOM     10  N   UNL     1      44.485   3.378   9.363  0.00  0.00    +0.000 N 
ATOM     11  C   UNL     1      45.426   3.983   8.554  0.00  0.00    +0.000 C 
ATOM     12  O   UNL     1      45.669   5.183   8.584  0.00  0.00    +0.000 OA
ATOM     13  H   UNL     1      44.481   2.373   9.459  0.00  0.00    +0.000 HD
BRANCH  11  14
ATOM     14  C   UNL     1      46.180   3.092   7.643  0.00  0.00    +0.000 A 
ATOM     15  C   UNL     1      46.687   3.523   6.415  0.00  0.00    +0.000 A 
ATOM     16  C   UNL     1      47.389   2.624   5.613  0.00  0.00    +0.000 A 
ATOM     17  C   UNL     1      47.563   1.328   6.071  0.00  0.00    +0.000 A 
ATOM     18  N   UNL     1      47.100   0.885   7.260  0.00  0.00    +0.000 NA
ATOM     19  C   UNL     1      46.427   1.781   8.027  0.00  0.00    +0.000 A 
ENDBRANCH  11  14
ENDBRANCH   9  10
ENDBRANCH   6   9
ENDBRANCH   2   3
BRANCH   2  20
ATOM     20  N   UNL     1      48.236   5.791  14.574  0.00  0.00    +0.000 N 
ATOM     21  C   UNL     1      48.822   6.741  15.373  0.00  0.00    +0.000 C 
ATOM     22  O   UNL     1      48.481   6.948  16.530  0.00  0.00    +0.000 OA
ATOM     23  H   UNL     1      48.299   5.940  13.571  0.00  0.00    +0.000 HD
BRANCH  21  24
ATOM     24  C   UNL     1      49.968   7.444  14.783  0.00  0.00    +0.000 A 
ATOM     25  C   UNL     1      51.199   7.430  15.425  0.00  0.00    +0.000 A 
ATOM     26  S   UNL     1      52.430   8.237  14.564  0.00  0.00    +0.000 S 
ATOM     27  C   UNL     1      51.348   8.682  13.328  0.00  0.00    +0.000 A 
ATOM     28  N   UNL     1      51.761   9.425  12.266  0.00  0.00    +0.000 NA
ATOM     29  C   UNL     1      50.826   9.722  11.427  0.00  0.00    +0.000 A 
ATOM     30  N   UNL     1      49.516   9.334  11.546  0.00  0.00    +0.000 N 
ATOM     31  C   UNL     1      49.066   8.543  12.573  0.00  0.00    +0.000 A 
ATOM     32  O   UNL     1      47.906   8.144  12.612  0.00  0.00    +0.000 OA
ATOM     33  C   UNL     1      50.071   8.204  13.559  0.00  0.00    +0.000 A 
ATOM     34  H   UNL     1      48.833   9.589  10.848  0.00  0.00    +0.000 HD
ENDBRANCH  21  24
ENDBRANCH   2  20
TORSDOF 6
ENDMDL
MODEL 4
REMARK VINA RESULT:    -7.747      2.739      3.662
REMARK INTER + INTRA:         -11.362
REMARK INTER:                 -10.351
REMARK INTRA:                  -1.011
REMARK UNBOUND:                -0.898
REMARK  Name = 
REMARK  7 active torsions:
REMARK  status: ('A' for Active; 'I' for Inactive)
REMARK    1  A    between atoms: C_1  and  C_2
REMARK    2  A    between atoms: C_2  and  N_3
REMARK    3  A    between atoms: C_2  and  C_16
REMARK    4  A    between atoms: C_4  and  C_6
REMARK    5  A    between atoms: C_19  and  C_20
REMARK    6  A    between atoms: C_20  and  N_21
REMARK    7  A    between atoms: C_22  and  C_24
REMARK                            x       y       z     vdW  Elec       q    Type
REMARK                         _______ _______ _______ _____ _____    ______ ____
ROOT
ATOM      1  C   UNL     1      47.532   3.375  15.415  0.00  0.00    +0.000 C 
ATOM      2  C   UNL     1      47.034   4.812  15.207  0.00  0.00    +0.000 C 
ENDROOT
BRANCH   2   3
ATOM      3  C   UNL     1      46.262   4.878  13.886  0.00  0.00    +0.000 A 
ATOM      4  C   UNL     1      46.638   5.789  12.895  0.00  0.00    +0.000 A 
ATOM      5  C   UNL     1      45.992   5.765  11.661  0.00  0.00    +0.000 A 
ATOM      6  C   UNL     1      44.977   4.836  11.432  0.00  0.00    +0.000 A 
ATOM      7  C   UNL     1      44.629   4.004  12.491  0.00  0.00    +0.000 A 
ATOM      8  N   UNL     1      45.243   4.003  13.700  0.00  0.00    +0.000 NA
BRANCH   6   9
ATOM      9  C   UNL     1      44.290   4.733  10.103  0.00  0.00    +0.000 C 
BRANCH   9  10
ATOM     10  N   UNL     1      45.195   4.316   9.057  0.00  0.00    +0.000 N 
ATOM     11  C   UNL     1      45.298   2.981   8.723  0.00  0.00    +0.000 C 
ATOM     12  O   UNL     1      44.673   2.093   9.291  0.00  0.00    +0.000 OA
ATOM     13  H   UNL     1      45.550   5.019   8.424  0.00  0.00    +0.000 HD
BRANCH  11  14
ATOM     14  C   UNL     1      46.195   2.654   7.591  0.00  0.00    +0.000 A 
ATOM     15  C   UNL     1      46.363   3.500   6.493  0.00  0.00    +0.000 A 
ATOM     16  C   UNL     1      47.229   3.123   5.467  0.00  0.00    +0.000 A 
ATOM     17  C   UNL     1      47.898   1.913   5.579  0.00  0.00    +0.000 A 
ATOM     18  N   UNL     1      47.768   1.081   6.634  0.00  0.00    +0.000 NA
ATOM     19  C   UNL     1      46.927   1.474   7.625  0.00  0.00    +0.000 A 
ENDBRANCH  11  14
ENDBRANCH   9  10
ENDBRANCH   6   9
ENDBRANCH   2   3
BRANCH   2  20
ATOM     20  N   UNL     1      48.117   5.788  15.209  0.00  0.00    +0.000 N 
ATOM     21  C   UNL     1      48.642   6.342  16.350  0.00  0.00    +0.000 C 
ATOM     22  O   UNL     1      48.284   6.024  17.476  0.00  0.00    +0.000 OA
ATOM     23  H   UNL     1      48.177   6.349  14.364  0.00  0.00    +0.000 HD
BRANCH  21  24
ATOM     24  C   UNL     1      49.747   7.287  16.145  0.00  0.00    +0.000 A 
ATOM     25  C   UNL     1      49.485   8.582  15.718  0.00  0.00    +0.000 A 
ATOM     26  S   UNL     1      50.878   9.558  15.601  0.00  0.00    +0.000 S 
ATOM     27  C   UNL     1      51.888   8.268  16.062  0.00  0.00    +0.000 A 
ATOM     28  N   UNL     1      53.237   8.424  16.142  0.00  0.00    +0.000 NA
ATOM     29  C   UNL     1      53.880   7.353  16.465  0.00  0.00    +0.000 A 
ATOM     30  N   UNL     1      53.297   6.139  16.727  0.00  0.00    +0.000 N 
ATOM     31  C   UNL     1      51.938   5.949  16.707  0.00  0.00    +0.000 A 
ATOM     32  O   UNL     1      51.438   4.874  17.023  0.00  0.00    +0.000 OA
ATOM     33  C   UNL     1      51.170   7.115  16.322  0.00  0.00    +0.000 A 
ATOM     34  H   UNL     1      53.854   5.340  16.986  0.00  0.00    +0.000 HD
ENDBRANCH  21  24
ENDBRANCH   2  20
TORSDOF 6
ENDMDL
MODEL 5
REMARK VINA RESULT:    -7.530      3.992      5.581
REMARK INTER + INTRA:         -11.069
REMARK INTER:                  -9.931
REMARK INTRA:                  -1.138
REMARK UNBOUND:                -0.898
REMARK  Name = 
REMARK  7 active torsions:
REMARK  status: ('A' for Active; 'I' for Inactive)
REMARK    1  A    between atoms: C_1  and  C_2
REMARK    2  A    between atoms: C_2  and  N_3
REMARK    3  A    between atoms: C_2  and  C_16
REMARK    4  A    between atoms: C_4  and  C_6
REMARK    5  A    between atoms: C_19  and  C_20
REMARK    6  A    between atoms: C_20  and  N_21
REMARK    7  A    between atoms: C_22  and  C_24
REMARK                            x       y       z     vdW  Elec       q    Type
REMARK                         _______ _______ _______ _____ _____    ______ ____
ROOT
ATOM      1  C   UNL     1      47.804   2.927  17.820  0.00  0.00    +0.000 C 
ATOM      2  C   UNL     1      48.656   4.165  17.513  0.00  0.00    +0.000 C 
ENDROOT
BRANCH   2   3
ATOM      3  C   UNL     1      48.173   4.780  16.196  0.00  0.00    +0.000 A 
ATOM      4  C   UNL     1      47.138   4.180  15.475  0.00  0.00    +0.000 A 
ATOM      5  C   UNL     1      46.642   4.810  14.336  0.00  0.00    +0.000 A 
ATOM      6  C   UNL     1      47.187   6.026  13.927  0.00  0.00    +0.000 A 
ATOM      7  C   UNL     1      48.251   6.525  14.671  0.00  0.00    +0.000 A 
ATOM      8  N   UNL     1      48.751   5.936  15.786  0.00  0.00    +0.000 NA
BRANCH   6   9
ATOM      9  C   UNL     1      46.652   6.770  12.740  0.00  0.00    +0.000 C 
BRANCH   9  10
ATOM     10  N   UNL     1      46.531   5.920  11.579  0.00  0.00    +0.000 N 
ATOM     11  C   UNL     1      45.286   5.494  11.160  0.00  0.00    +0.000 C 
ATOM     12  O   UNL     1      44.246   5.776  11.742  0.00  0.00    +0.000 OA
ATOM     13  H   UNL     1      47.319   5.852  10.951  0.00  0.00    +0.000 HD
BRANCH  11  14
ATOM     14  C   UNL     1      45.250   4.687   9.919  0.00  0.00    +0.000 A 
ATOM     15  C   UNL     1      44.481   3.527   9.795  0.00  0.00    +0.000 A 
ATOM     16  C   UNL     1      44.499   2.822   8.592  0.00  0.00    +0.000 A 
ATOM     17  C   UNL     1      45.281   3.306   7.555  0.00  0.00    +0.000 A 
ATOM     18  N   UNL     1      46.022   4.432   7.638  0.00  0.00    +0.000 NA
ATOM     19  C   UNL     1      45.982   5.106   8.816  0.00  0.00    +0.000 A 
ENDBRANCH  11  14
ENDBRANCH   9  10
ENDBRANCH   6   9
ENDBRANCH   2   3
BRANCH   2  20
ATOM     20  N   UNL     1      50.081   3.861  17.436  0.00  0.00    +0.000 N 
ATOM     21  C   UNL     1      50.969   4.112  18.452  0.00  0.00    +0.000 C 
ATOM     22  O   UNL     1      50.635   4.564  19.539  0.00  0.00    +0.000 OA
ATOM     23  H   UNL     1      50.459   3.862  16.493  0.00  0.00    +0.000 HD
BRANCH  21  24
ATOM     24  C   UNL     1      52.358   3.710  18.192  0.00  0.00    +0.000 A 
ATOM     25  C   UNL     1      53.385   4.635  18.323  0.00  0.00    +0.000 A 
ATOM     26  S   UNL     1      54.936   3.977  18.051  0.00  0.00    +0.000 S 
ATOM     27  C   UNL     1      54.283   2.446  17.695  0.00  0.00    +0.000 A 
ATOM     28  N   UNL     1      55.085   1.403  17.350  0.00  0.00    +0.000 NA
ATOM     29  C   UNL     1      54.452   0.314  17.068  0.00  0.00    +0.000 A 
ATOM     30  N   UNL     1      53.089   0.168  17.110  0.00  0.00    +0.000 N 
ATOM     31  C   UNL     1      52.246   1.178  17.501  0.00  0.00    +0.000 A 
ATOM     32  O   UNL     1      51.037   0.996  17.607  0.00  0.00    +0.000 OA
ATOM     33  C   UNL     1      52.905   2.432  17.801  0.00  0.00    +0.000 A 
ATOM     34  H   UNL     1      52.654  -0.715  16.890  0.00  0.00    +0.000 HD
ENDBRANCH  21  24
ENDBRANCH   2  20
TORSDOF 6
ENDMDL
MODEL 6
REMARK VINA RESULT:    -7.409      4.024      9.023
REMARK INTER + INTRA:         -10.906
REMARK INTER:                  -9.783
REMARK INTRA:                  -1.123
REMARK UNBOUND:                -0.898
REMARK  Name = 
REMARK  7 active torsions:
REMARK  status: ('A' for Active; 'I' for Inactive)
REMARK    1  A    between atoms: C_1  and  C_2
REMARK    2  A    between atoms: C_2  and  N_3
REMARK    3  A    between atoms: C_2  and  C_16
REMARK    4  A    between atoms: C_4  and  C_6
REMARK    5  A    between atoms: C_19  and  C_20
REMARK    6  A    between atoms: C_20  and  N_21
REMARK    7  A    between atoms: C_22  and  C_24
REMARK                            x       y       z     vdW  Elec       q    Type
REMARK                         _______ _______ _______ _____ _____    ______ ____
ROOT
ATOM      1  C   UNL     1      49.063   7.587  12.887  0.00  0.00    +0.000 C 
ATOM      2  C   UNL     1      47.843   6.926  13.541  0.00  0.00    +0.000 C 
ENDROOT
BRANCH   2   3
ATOM      3  C   UNL     1      48.307   6.151  14.779  0.00  0.00    +0.000 A 
ATOM      4  C   UNL     1      49.346   6.646  15.571  0.00  0.00    +0.000 A 
ATOM      5  C   UNL     1      49.685   5.983  16.749  0.00  0.00    +0.000 A 
ATOM      6  C   UNL     1      48.987   4.833  17.119  0.00  0.00    +0.000 A 
ATOM      7  C   UNL     1      48.004   4.380  16.245  0.00  0.00    +0.000 A 
ATOM      8  N   UNL     1      47.652   5.007  15.095  0.00  0.00    +0.000 NA
BRANCH   6   9
ATOM      9  C   UNL     1      49.276   4.116  18.403  0.00  0.00    +0.000 C 
BRANCH   9  10
ATOM     10  N   UNL     1      50.617   3.581  18.434  0.00  0.00    +0.000 N 
ATOM     11  C   UNL     1      50.932   2.460  17.692  0.00  0.00    +0.000 C 
ATOM     12  O   UNL     1      50.117   1.854  17.008  0.00  0.00    +0.000 OA
ATOM     13  H   UNL     1      51.357   4.167  18.794  0.00  0.00    +0.000 HD
BRANCH  11  14
ATOM     14  C   UNL     1      52.348   2.026  17.727  0.00  0.00    +0.000 A 
ATOM     15  C   UNL     1      53.396   2.895  18.033  0.00  0.00    +0.000 A 
ATOM     16  C   UNL     1      54.704   2.409  18.048  0.00  0.00    +0.000 A 
ATOM     17  C   UNL     1      54.913   1.069  17.759  0.00  0.00    +0.000 A 
ATOM     18  N   UNL     1      53.919   0.200  17.475  0.00  0.00    +0.000 NA
ATOM     19  C   UNL     1      52.654   0.694  17.476  0.00  0.00    +0.000 A 
ENDBRANCH  11  14
ENDBRANCH   9  10
ENDBRANCH   6   9
ENDBRANCH   2   3
BRANCH   2  20
ATOM     20  N   UNL     1      47.127   6.040  12.630  0.00  0.00    +0.000 N 
ATOM     21  C   UNL     1      46.162   6.467  11.753  0.00  0.00    +0.000 C 
ATOM     22  O   UNL     1      45.852   7.644  11.617  0.00  0.00    +0.000 OA
ATOM     23  H   UNL     1      47.054   5.079  12.951  0.00  0.00    +0.000 HD
BRANCH  21  24
ATOM     24  C   UNL     1      45.576   5.426  10.899  0.00  0.00    +0.000 A 
ATOM     25  C   UNL     1      45.704   5.505   9.519  0.00  0.00    +0.000 A 
ATOM     26  S   UNL     1      45.025   4.177   8.692  0.00  0.00    +0.000 S 
ATOM     27  C   UNL     1      44.488   3.476  10.147  0.00  0.00    +0.000 A 
ATOM     28  N   UNL     1      43.796   2.305  10.150  0.00  0.00    +0.000 NA
ATOM     29  C   UNL     1      43.417   1.912  11.320  0.00  0.00    +0.000 A 
ATOM     30  N   UNL     1      43.677   2.577  12.491  0.00  0.00    +0.000 N 
ATOM     31  C   UNL     1      44.413   3.734  12.540  0.00  0.00    +0.000 A 
ATOM     32  O   UNL     1      44.699   4.266  13.608  0.00  0.00    +0.000 OA
ATOM     33  C   UNL     1      44.839   4.234  11.249  0.00  0.00    +0.000 A 
ATOM     34  H   UNL     1      43.363   2.211  13.376  0.00  0.00    +0.000 HD
ENDBRANCH  21  24
ENDBRANCH   2  20
TORSDOF 6
ENDMDL
MODEL 7
REMARK VINA RESULT:    -6.658      4.727      7.849
REMARK INTER + INTRA:          -9.891
REMARK INTER:                  -8.907
REMARK INTRA:                  -0.984
REMARK UNBOUND:                -0.898
REMARK  Name = 
REMARK  7 active torsions:
REMARK  status: ('A' for Active; 'I' for Inactive)
REMARK    1  A    between atoms: C_1  and  C_2
REMARK    2  A    between atoms: C_2  and  N_3
REMARK    3  A    between atoms: C_2  and  C_16
REMARK    4  A    between atoms: C_4  and  C_6
REMARK    5  A    between atoms: C_19  and  C_20
REMARK    6  A    between atoms: C_20  and  N_21
REMARK    7  A    between atoms: C_22  and  C_24
REMARK                            x       y       z     vdW  Elec       q    Type
REMARK                         _______ _______ _______ _____ _____    ______ ____
ROOT
ATOM      1  C   UNL     1      45.291   9.388  12.472  0.00  0.00    +0.000 C 
ATOM      2  C   UNL     1      46.106   8.132  12.805  0.00  0.00    +0.000 C 
ENDROOT
BRANCH   2   3
ATOM      3  C   UNL     1      47.548   8.341  12.332  0.00  0.00    +0.000 A 
ATOM      4  C   UNL     1      48.040   9.631  12.118  0.00  0.00    +0.000 A 
ATOM      5  C   UNL     1      49.382   9.807  11.789  0.00  0.00    +0.000 A 
ATOM      6  C   UNL     1      50.216   8.695  11.673  0.00  0.00    +0.000 A 
ATOM      7  C   UNL     1      49.631   7.445  11.848  0.00  0.00    +0.000 A 
ATOM      8  N   UNL     1      48.330   7.245  12.172  0.00  0.00    +0.000 NA
BRANCH   6   9
ATOM      9  C   UNL     1      51.678   8.835  11.375  0.00  0.00    +0.000 C 
BRANCH   9  10
ATOM     10  N   UNL     1      52.169   7.754  10.554  0.00  0.00    +0.000 N 
ATOM     11  C   UNL     1      52.645   8.011   9.283  0.00  0.00    +0.000 C 
ATOM     12  O   UNL     1      52.654   9.128   8.780  0.00  0.00    +0.000 OA
ATOM     13  H   UNL     1      52.388   6.874  11.000  0.00  0.00    +0.000 HD
BRANCH  11  14
ATOM     14  C   UNL     1      53.196   6.854   8.540  0.00  0.00    +0.000 A 
ATOM     15  C   UNL     1      54.148   5.991   9.087  0.00  0.00    +0.000 A 
ATOM     16  C   UNL     1      54.617   4.921   8.324  0.00  0.00    +0.000 A 
ATOM     17  C   UNL     1      54.111   4.752   7.044  0.00  0.00    +0.000 A 
ATOM     18  N   UNL     1      53.180   5.560   6.494  0.00  0.00    +0.000 NA
ATOM     19  C   UNL     1      52.731   6.588   7.259  0.00  0.00    +0.000 A 
ENDBRANCH  11  14
ENDBRANCH   9  10
ENDBRANCH   6   9
ENDBRANCH   2   3
BRANCH   2  20
ATOM     20  N   UNL     1      45.549   6.925  12.205  0.00  0.00    +0.000 N 
ATOM     21  C   UNL     1      45.580   5.691  12.807  0.00  0.00    +0.000 C 
ATOM     22  O   UNL     1      46.031   5.503  13.929  0.00  0.00    +0.000 OA
ATOM     23  H   UNL     1      45.526   6.933  11.190  0.00  0.00    +0.000 HD
BRANCH  21  24
ATOM     24  C   UNL     1      44.941   4.603  12.054  0.00  0.00    +0.000 A 
ATOM     25  C   UNL     1      44.146   3.676  12.714  0.00  0.00    +0.000 A 
ATOM     26  S   UNL     1      43.430   2.528  11.675  0.00  0.00    +0.000 S 
ATOM     27  C   UNL     1      44.203   3.197  10.314  0.00  0.00    +0.000 A 
ATOM     28  N   UNL     1      44.034   2.662   9.075  0.00  0.00    +0.000 NA
ATOM     29  C   UNL     1      44.711   3.246   8.144  0.00  0.00    +0.000 A 
ATOM     30  N   UNL     1      45.535   4.325   8.337  0.00  0.00    +0.000 N 
ATOM     31  C   UNL     1      45.697   4.928   9.559  0.00  0.00    +0.000 A 
ATOM     32  O   UNL     1      46.377   5.940   9.688  0.00  0.00    +0.000 OA
ATOM     33  C   UNL     1      44.980   4.292  10.645  0.00  0.00    +0.000 A 
ATOM     34  H   UNL     1      46.029   4.745   7.564  0.00  0.00    +0.000 HD
ENDBRANCH  21  24
ENDBRANCH   2  20
TORSDOF 6
ENDMDL
MODEL 8
REMARK VINA RESULT:    -6.252      2.734     10.263
REMARK INTER + INTRA:          -9.343
REMARK INTER:                  -9.335
REMARK INTRA:                  -0.008
REMARK UNBOUND:                -0.898
REMARK  Name = 
REMARK  7 active torsions:
REMARK  status: ('A' for Active; 'I' for Inactive)
REMARK    1  A    between atoms: C_1  and  C_2
REMARK    2  A    between atoms: C_2  and  N_3
REMARK    3  A    between atoms: C_2  and  C_16
REMARK    4  A    between atoms: C_4  and  C_6
REMARK    5  A    between atoms: C_19  and  C_20
REMARK    6  A    between atoms: C_20  and  N_21
REMARK    7  A    between atoms: C_22  and  C_24
REMARK                            x       y       z     vdW  Elec       q    Type
REMARK                         _______ _______ _______ _____ _____    ______ ____
ROOT
ATOM      1  C   UNL     1      43.013   4.475  11.383  0.00  0.00    +0.000 C 
ATOM      2  C   UNL     1      44.204   3.678  11.933  0.00  0.00    +0.000 C 
ENDROOT
BRANCH   2   3
ATOM      3  C   UNL     1      45.199   4.655  12.567  0.00  0.00    +0.000 A 
ATOM      4  C   UNL     1      46.211   4.185  13.408  0.00  0.00    +0.000 A 
ATOM      5  C   UNL     1      47.169   5.074  13.891  0.00  0.00    +0.000 A 
ATOM      6  C   UNL     1      47.103   6.420  13.534  0.00  0.00    +0.000 A 
ATOM      7  C   UNL     1      46.032   6.813  12.738  0.00  0.00    +0.000 A 
ATOM      8  N   UNL     1      45.089   5.969  12.250  0.00  0.00    +0.000 NA
BRANCH   6   9
ATOM      9  C   UNL     1      48.141   7.405  13.982  0.00  0.00    +0.000 C 
BRANCH   9  10
ATOM     10  N   UNL     1      48.106   7.615  15.411  0.00  0.00    +0.000 N 
ATOM     11  C   UNL     1      49.053   7.020  16.221  0.00  0.00    +0.000 C 
ATOM     12  O   UNL     1      49.933   6.280  15.798  0.00  0.00    +0.000 OA
ATOM     13  H   UNL     1      47.552   8.380  15.769  0.00  0.00    +0.000 HD
BRANCH  11  14
ATOM     14  C   UNL     1      48.984   7.348  17.663  0.00  0.00    +0.000 A 
ATOM     15  C   UNL     1      48.023   8.210  18.196  0.00  0.00    +0.000 A 
ATOM     16  C   UNL     1      48.022   8.468  19.566  0.00  0.00    +0.000 A 
ATOM     17  C   UNL     1      48.981   7.851  20.355  0.00  0.00    +0.000 A 
ATOM     18  N   UNL     1      49.913   7.001  19.872  0.00  0.00    +0.000 NA
ATOM     19  C   UNL     1      49.888   6.758  18.537  0.00  0.00    +0.000 A 
ENDBRANCH  11  14
ENDBRANCH   9  10
ENDBRANCH   6   9
ENDBRANCH   2   3
BRANCH   2  20
ATOM     20  N   UNL     1      44.866   2.877  10.910  0.00  0.00    +0.000 N 
ATOM     21  C   UNL     1      44.740   3.108   9.562  0.00  0.00    +0.000 C 
ATOM     22  O   UNL     1      44.102   4.044   9.099  0.00  0.00    +0.000 OA
ATOM     23  H   UNL     1      45.064   1.921  11.189  0.00  0.00    +0.000 HD
BRANCH  21  24
ATOM     24  C   UNL     1      45.507   2.208   8.692  0.00  0.00    +0.000 A 
ATOM     25  C   UNL     1      45.344   0.833   8.796  0.00  0.00    +0.000 A 
ATOM     26  S   UNL     1      46.260  -0.052   7.662  0.00  0.00    +0.000 S 
ATOM     27  C   UNL     1      46.951   1.369   7.029  0.00  0.00    +0.000 A 
ATOM     28  N   UNL     1      47.863   1.319   6.021  0.00  0.00    +0.000 NA
ATOM     29  C   UNL     1      48.331   2.469   5.668  0.00  0.00    +0.000 A 
ATOM     30  N   UNL     1      47.963   3.668   6.224  0.00  0.00    +0.000 N 
ATOM     31  C   UNL     1      47.011   3.769   7.207  0.00  0.00    +0.000 A 
ATOM     32  O   UNL     1      46.643   4.860   7.630  0.00  0.00    +0.000 OA
ATOM     33  C   UNL     1      46.474   2.503   7.660  0.00  0.00    +0.000 A 
ATOM     34  H   UNL     1      48.358   4.535   5.895  0.00  0.00    +0.000 HD
ENDBRANCH  21  24
ENDBRANCH   2  20
TORSDOF 6
ENDMDL
MODEL 9
REMARK VINA RESULT:    -5.809      4.131      8.879
REMARK INTER + INTRA:          -8.744
REMARK INTER:                  -8.246
REMARK INTRA:                  -0.498
REMARK UNBOUND:                -0.898
REMARK  Name = 
REMARK  7 active torsions:
REMARK  status: ('A' for Active; 'I' for Inactive)
REMARK    1  A    between atoms: C_1  and  C_2
REMARK    2  A    between atoms: C_2  and  N_3
REMARK    3  A    between atoms: C_2  and  C_16
REMARK    4  A    between atoms: C_4  and  C_6
REMARK    5  A    between atoms: C_19  and  C_20
REMARK    6  A    between atoms: C_20  and  N_21
REMARK    7  A    between atoms: C_22  and  C_24
REMARK                            x       y       z     vdW  Elec       q    Type
REMARK                         _______ _______ _______ _____ _____    ______ ____
ROOT
ATOM      1  C   UNL     1      49.713   7.431  12.887  0.00  0.00    +0.000 C 
ATOM      2  C   UNL     1      48.615   7.609  13.945  0.00  0.00    +0.000 C 
ENDROOT
BRANCH   2   3
ATOM      3  C   UNL     1      48.841   6.588  15.065  0.00  0.00    +0.000 A 
ATOM      4  C   UNL     1      49.861   6.783  16.000  0.00  0.00    +0.000 A 
ATOM      5  C   UNL     1      49.985   5.901  17.072  0.00  0.00    +0.000 A 
ATOM      6  C   UNL     1      49.095   4.834  17.194  0.00  0.00    +0.000 A 
ATOM      7  C   UNL     1      48.146   4.683  16.189  0.00  0.00    +0.000 A 
ATOM      8  N   UNL     1      48.000   5.528  15.138  0.00  0.00    +0.000 NA
BRANCH   6   9
ATOM      9  C   UNL     1      49.153   3.890  18.358  0.00  0.00    +0.000 C 
BRANCH   9  10
ATOM     10  N   UNL     1      50.465   3.309  18.519  0.00  0.00    +0.000 N 
ATOM     11  C   UNL     1      50.934   2.393  17.598  0.00  0.00    +0.000 C 
ATOM     12  O   UNL     1      50.279   2.007  16.638  0.00  0.00    +0.000 OA
ATOM     13  H   UNL     1      51.112   3.757  19.152  0.00  0.00    +0.000 HD
BRANCH  11  14
ATOM     14  C   UNL     1      52.317   1.905  17.802  0.00  0.00    +0.000 A 
ATOM     15  C   UNL     1      52.738   0.638  17.392  0.00  0.00    +0.000 A 
ATOM     16  C   UNL     1      54.059   0.251  17.617  0.00  0.00    +0.000 A 
ATOM     17  C   UNL     1      54.912   1.149  18.240  0.00  0.00    +0.000 A 
ATOM     18  N   UNL     1      54.540   2.386  18.634  0.00  0.00    +0.000 NA
ATOM     19  C   UNL     1      53.252   2.743  18.395  0.00  0.00    +0.000 A 
ENDBRANCH  11  14
ENDBRANCH   9  10
ENDBRANCH   6   9
ENDBRANCH   2   3
BRANCH   2  20
ATOM     20  N   UNL     1      47.273   7.462  13.392  0.00  0.00    +0.000 N 
ATOM     21  C   UNL     1      46.788   8.224  12.358  0.00  0.00    +0.000 C 
ATOM     22  O   UNL     1      47.459   9.060  11.768  0.00  0.00    +0.000 OA
ATOM     23  H   UNL     1      46.588   7.098  14.047  0.00  0.00    +0.000 HD
BRANCH  21  24
ATOM     24  C   UNL     1      45.421   7.906  11.926  0.00  0.00    +0.000 A 
ATOM     25  C   UNL     1      44.555   8.926  11.553  0.00  0.00    +0.000 A 
ATOM     26  S   UNL     1      43.036   8.369  11.013  0.00  0.00    +0.000 S 
ATOM     27  C   UNL     1      43.462   6.749  11.312  0.00  0.00    +0.000 A 
ATOM     28  N   UNL     1      42.584   5.736  11.080  0.00  0.00    +0.000 NA
ATOM     29  C   UNL     1      43.028   4.564  11.389  0.00  0.00    +0.000 A 
ATOM     30  N   UNL     1      44.275   4.309  11.899  0.00  0.00    +0.000 N 
ATOM     31  C   UNL     1      45.210   5.293  12.102  0.00  0.00    +0.000 A 
ATOM     32  O   UNL     1      46.345   5.027  12.483  0.00  0.00    +0.000 OA
ATOM     33  C   UNL     1      44.752   6.633  11.797  0.00  0.00    +0.000 A 
ATOM     34  H   UNL     1      44.567   3.367  12.109  0.00  0.00    +0.000 HD
ENDBRANCH  21  24
ENDBRANCH   2  20
TORSDOF 6
ENDMDL
