MODEL 1
REMARK VINA RESULT:    -7.170      0.000      0.000
REMARK INTER + INTRA:          -8.841
REMARK INTER:                  -8.847
REMARK INTRA:                   0.006
REMARK UNBOUND:                 0.006
REMARK  Name = 
REMARK  7 active torsions:
REMARK  status: ('A' for Active; 'I' for Inactive)
REMARK    1  A    between atoms: C_1  and  S_2
REMARK    2  A    between atoms: C_4  and  C_5
REMARK    3  A    between atoms: C_9  and  C_10
REMARK    4  A    between atoms: C_10  and  C_11
REMARK    5  A    between atoms: C_11  and  C_12
REMARK    6  A    between atoms: C_11  and  C_13
REMARK    7  A    between atoms: C_11  and  C_14
REMARK                            x       y       z     vdW  Elec       q    Type
REMARK                         _______ _______ _______ _____ _____    ______ ____
ROOT
ATOM      1  C   UNL     1      47.544   5.811  14.199  0.00  0.00    +0.000 A 
ATOM      2  C   UNL     1      48.498   6.630  13.615  0.00  0.00    +0.000 A 
ATOM      3  N   UNL     1      48.358   7.167  12.370  0.00  0.00    +0.000 NA
ATOM      4  C   UNL     1      47.211   6.835  11.728  0.00  0.00    +0.000 A 
ATOM      5  C   UNL     1      46.239   6.009  12.284  0.00  0.00    +0.000 A 
ATOM      6  N   UNL     1      46.407   5.509  13.523  0.00  0.00    +0.000 NA
ENDROOT
BRANCH   1  10
ATOM      7  C   UNL     1      49.815   3.684  18.059  0.00  0.00    +0.000 C 
ATOM      8  S   UNL     1      48.230   4.549  17.997  0.00  0.00    +0.000 S 
ATOM      9  C   UNL     1      48.567   5.571  16.564  0.00  0.00    +0.000 C 
ATOM     10  C   UNL     1      47.712   5.156  15.497  0.00  0.00    +0.000 C 
ATOM     11  C   UNL     1      47.161   4.020  15.959  0.00  0.00    +0.000 C 
ATOM     12  N   UNL     1      47.421   3.534  17.199  0.00  0.00    +0.000 NA
ENDBRANCH   1  10
BRANCH   5  13
ATOM     13  C   UNL     1      44.946   5.707  11.560  0.00  0.00    +0.000 C 
BRANCH  13  14
ATOM     14  C   UNL     1      44.566   4.200  11.307  0.00  0.00    +0.000 C 
ATOM     15  C   UNL     1      45.273   3.298  12.340  0.00  0.00    +0.000 C 
ATOM     16  C   UNL     1      43.034   3.987  11.385  0.00  0.00    +0.000 C 
BRANCH  14  17
ATOM     17  C   UNL     1      45.089   3.772   9.911  0.00  0.00    +0.000 A 
ATOM     18  C   UNL     1      45.156   2.429   9.520  0.00  0.00    +0.000 A 
ATOM     19  C   UNL     1      45.671   2.088   8.269  0.00  0.00    +0.000 A 
ATOM     20  C   UNL     1      46.131   3.091   7.434  0.00  0.00    +0.000 A 
ATOM     21 CL   UNL     1      46.788   2.715   5.895  0.00  0.00    +0.000 Cl
ATOM     22  C   UNL     1      46.055   4.396   7.885  0.00  0.00    +0.000 A 
ATOM     23  N   UNL     1      45.549   4.754   9.093  0.00  0.00    +0.000 NA
ENDBRANCH  14  17
ENDBRANCH  13  14
ENDBRANCH   5  13
TORSDOF 4
ENDMDL
MODEL 2
REMARK VINA RESULT:    -7.141      3.133      4.968
REMARK INTER + INTRA:          -8.804
REMARK INTER:                  -8.847
REMARK INTRA:                   0.043
REMARK UNBOUND:                 0.006
REMARK  Name = 
REMARK  7 active torsions:
REMARK  status: ('A' for Active; 'I' for Inactive)
REMARK    1  A    between atoms: C_1  and  S_2
REMARK    2  A    between atoms: C_4  and  C_5
REMARK    3  A    between atoms: C_9  and  C_10
REMARK    4  A    between atoms: C_10  and  C_11
REMARK    5  A    between atoms: C_11  and  C_12
REMARK    6  A    between atoms: C_11  and  C_13
REMARK    7  A    between atoms: C_11  and  C_14
REMARK                            x       y       z     vdW  Elec       q    Type
REMARK                         _______ _______ _______ _____ _____    ______ ____
ROOT
ATOM      1  C   UNL     1      46.011   7.616  12.231  0.00  0.00    +0.000 A 
ATOM      2  C   UNL     1      47.341   7.629  12.626  0.00  0.00    +0.000 A 
ATOM      3  N   UNL     1      48.014   6.508  13.012  0.00  0.00    +0.000 NA
ATOM      4  C   UNL     1      47.285   5.365  12.990  0.00  0.00    +0.000 A 
ATOM      5  C   UNL     1      45.949   5.321  12.607  0.00  0.00    +0.000 A 
ATOM      6  N   UNL     1      45.320   6.448  12.218  0.00  0.00    +0.000 NA
ENDROOT
BRANCH   1  10
ATOM      7  C   UNL     1      43.726  11.034   9.459  0.00  0.00    +0.000 C 
ATOM      8  S   UNL     1      43.414  10.552  11.173  0.00  0.00    +0.000 S 
ATOM      9  C   UNL     1      44.072   8.888  11.082  0.00  0.00    +0.000 C 
ATOM     10  C   UNL     1      45.245   8.817  11.896  0.00  0.00    +0.000 C 
ATOM     11  C   UNL     1      45.482  10.100  12.219  0.00  0.00    +0.000 C 
ATOM     12  N   UNL     1      44.671  11.115  11.825  0.00  0.00    +0.000 NA
ENDBRANCH   1  10
BRANCH   5  13
ATOM     13  C   UNL     1      45.184   4.018  12.541  0.00  0.00    +0.000 C 
BRANCH  13  14
ATOM     14  C   UNL     1      44.134   3.827  11.383  0.00  0.00    +0.000 C 
ATOM     15  C   UNL     1      43.278   2.571  11.650  0.00  0.00    +0.000 C 
ATOM     16  C   UNL     1      43.217   5.068  11.248  0.00  0.00    +0.000 C 
BRANCH  14  17
ATOM     17  C   UNL     1      44.886   3.577  10.050  0.00  0.00    +0.000 A 
ATOM     18  C   UNL     1      45.297   4.626   9.219  0.00  0.00    +0.000 A 
ATOM     19  C   UNL     1      45.936   4.353   8.009  0.00  0.00    +0.000 A 
ATOM     20  C   UNL     1      46.138   3.036   7.636  0.00  0.00    +0.000 A 
ATOM     21 CL   UNL     1      46.903   2.654   6.150  0.00  0.00    +0.000 Cl
ATOM     22  C   UNL     1      45.693   2.045   8.492  0.00  0.00    +0.000 A 
ATOM     23  N   UNL     1      45.078   2.285   9.679  0.00  0.00    +0.000 NA
ENDBRANCH  14  17
ENDBRANCH  13  14
ENDBRANCH   5  13
TORSDOF 4
ENDMDL
MODEL 3
REMARK VINA RESULT:    -6.836      3.258      4.066
REMARK INTER + INTRA:          -8.428
REMARK INTER:                  -8.376
REMARK INTRA:                  -0.052
REMARK UNBOUND:                 0.006
REMARK  Name = 
REMARK  7 active torsions:
REMARK  status: ('A' for Active; 'I' for Inactive)
REMARK    1  A    between atoms: C_1  and  S_2
REMARK    2  A    between atoms: C_4  and  C_5
REMARK    3  A    between atoms: C_9  and  C_10
REMARK    4  A    between atoms: C_10  and  C_11
REMARK    5  A    between atoms: C_11  and  C_12
REMARK    6  A    between atoms: C_11  and  C_13
REMARK    7  A    between atoms: C_11  and  C_14
REMARK                            x       y       z     vdW  Elec       q    Type
REMARK                         _______ _______ _______ _____ _____    ______ ____
ROOT
ATOM      1  C   UNL     1      47.286   7.762  12.198  0.00  0.00    +0.000 A 
ATOM      2  C   UNL     1      46.291   8.659  12.558  0.00  0.00    +0.000 A 
ATOM      3  N   UNL     1      44.999   8.287  12.784  0.00  0.00    +0.000 NA
ATOM      4  C   UNL     1      44.747   6.964  12.623  0.00  0.00    +0.000 A 
ATOM      5  C   UNL     1      45.720   6.042  12.255  0.00  0.00    +0.000 A 
ATOM      6  N   UNL     1      46.990   6.445  12.054  0.00  0.00    +0.000 NA
ENDROOT
BRANCH   1  10
ATOM      7  C   UNL     1      52.149   8.541  12.769  0.00  0.00    +0.000 C 
ATOM      8  S   UNL     1      51.209   8.222  11.258  0.00  0.00    +0.000 S 
ATOM      9  C   UNL     1      49.834   7.350  12.007  0.00  0.00    +0.000 C 
ATOM     10  C   UNL     1      48.657   8.150  11.867  0.00  0.00    +0.000 C 
ATOM     11  C   UNL     1      49.128   9.326  11.417  0.00  0.00    +0.000 C 
ATOM     12  N   UNL     1      50.444   9.535  11.157  0.00  0.00    +0.000 NA
ENDBRANCH   1  10
BRANCH   5  13
ATOM     13  C   UNL     1      45.413   4.566  12.142  0.00  0.00    +0.000 C 
BRANCH  13  14
ATOM     14  C   UNL     1      44.357   4.103  11.070  0.00  0.00    +0.000 C 
ATOM     15  C   UNL     1      43.577   2.879  11.592  0.00  0.00    +0.000 C 
ATOM     16  C   UNL     1      43.370   5.246  10.726  0.00  0.00    +0.000 C 
BRANCH  14  17
ATOM     17  C   UNL     1      45.101   3.644   9.788  0.00  0.00    +0.000 A 
ATOM     18  C   UNL     1      45.582   4.554   8.840  0.00  0.00    +0.000 A 
ATOM     19  C   UNL     1      46.210   4.094   7.682  0.00  0.00    +0.000 A 
ATOM     20  C   UNL     1      46.331   2.731   7.478  0.00  0.00    +0.000 A 
ATOM     21 CL   UNL     1      47.081   2.121   6.061  0.00  0.00    +0.000 Cl
ATOM     22  C   UNL     1      45.820   1.883   8.443  0.00  0.00    +0.000 A 
ATOM     23  N   UNL     1      45.213   2.307   9.582  0.00  0.00    +0.000 NA
ENDBRANCH  14  17
ENDBRANCH  13  14
ENDBRANCH   5  13
TORSDOF 4
ENDMDL
MODEL 4
REMARK VINA RESULT:    -6.812      1.392      1.885
REMARK INTER + INTRA:          -8.398
REMARK INTER:                  -8.596
REMARK INTRA:                   0.197
REMARK UNBOUND:                 0.006
REMARK  Name = 
REMARK  7 active torsions:
REMARK  status: ('A' for Active; 'I' for Inactive)
REMARK    1  A    between atoms: C_1  and  S_2
REMARK    2  A    between atoms: C_4  and  C_5
REMARK    3  A    between atoms: C_9  and  C_10
REMARK    4  A    between atoms: C_10  and  C_11
REMARK    5  A    between atoms: C_11  and  C_12
REMARK    6  A    between atoms: C_11  and  C_13
REMARK    7  A    between atoms: C_11  and  C_14
REMARK                            x       y       z     vdW  Elec       q    Type
REMARK                         _______ _______ _______ _____ _____    ______ ____
ROOT
ATOM      1  C   UNL     1      47.649   5.412  15.077  0.00  0.00    +0.000 A 
ATOM      2  C   UNL     1      47.967   6.527  14.316  0.00  0.00    +0.000 A 
ATOM      3  N   UNL     1      47.563   6.687  13.024  0.00  0.00    +0.000 NA
ATOM      4  C   UNL     1      46.826   5.665  12.523  0.00  0.00    +0.000 A 
ATOM      5  C   UNL     1      46.498   4.531  13.257  0.00  0.00    +0.000 A 
ATOM      6  N   UNL     1      46.904   4.415  14.537  0.00  0.00    +0.000 NA
ENDROOT
BRANCH   1  10
ATOM      7  C   UNL     1      47.884   5.634  20.024  0.00  0.00    +0.000 C 
ATOM      8  S   UNL     1      48.530   4.374  18.902  0.00  0.00    +0.000 S 
ATOM      9  C   UNL     1      47.400   4.658  17.541  0.00  0.00    +0.000 C 
ATOM     10  C   UNL     1      48.142   5.180  16.435  0.00  0.00    +0.000 C 
ATOM     11  C   UNL     1      49.351   5.440  16.961  0.00  0.00    +0.000 C 
ATOM     12  N   UNL     1      49.658   5.167  18.255  0.00  0.00    +0.000 NA
ENDBRANCH   1  10
BRANCH   5  13
ATOM     13  C   UNL     1      45.626   3.437  12.682  0.00  0.00    +0.000 C 
BRANCH  13  14
ATOM     14  C   UNL     1      44.521   3.837  11.635  0.00  0.00    +0.000 C 
ATOM     15  C   UNL     1      43.302   2.900  11.771  0.00  0.00    +0.000 C 
ATOM     16  C   UNL     1      44.075   5.308  11.824  0.00  0.00    +0.000 C 
BRANCH  14  17
ATOM     17  C   UNL     1      45.080   3.634  10.203  0.00  0.00    +0.000 A 
ATOM     18  C   UNL     1      45.428   4.711   9.379  0.00  0.00    +0.000 A 
ATOM     19  C   UNL     1      45.890   4.482   8.082  0.00  0.00    +0.000 A 
ATOM     20  C   UNL     1      45.979   3.181   7.620  0.00  0.00    +0.000 A 
ATOM     21 CL   UNL     1      46.526   2.855   6.027  0.00  0.00    +0.000 Cl
ATOM     22  C   UNL     1      45.604   2.162   8.475  0.00  0.00    +0.000 A 
ATOM     23  N   UNL     1      45.161   2.359   9.743  0.00  0.00    +0.000 NA
ENDBRANCH  14  17
ENDBRANCH  13  14
ENDBRANCH   5  13
TORSDOF 4
ENDMDL
MODEL 5
REMARK VINA RESULT:    -6.745      2.475      4.031
REMARK INTER + INTRA:          -8.316
REMARK INTER:                  -8.494
REMARK INTRA:                   0.178
REMARK UNBOUND:                 0.006
REMARK  Name = 
REMARK  7 active torsions:
REMARK  status: ('A' for Active; 'I' for Inactive)
REMARK    1  A    between atoms: C_1  and  S_2
REMARK    2  A    between atoms: C_4  and  C_5
REMARK    3  A    between atoms: C_9  and  C_10
REMARK    4  A    between atoms: C_10  and  C_11
REMARK    5  A    between atoms: C_11  and  C_12
REMARK    6  A    between atoms: C_11  and  C_13
REMARK    7  A    between atoms: C_11  and  C_14
REMARK                            x       y       z     vdW  Elec       q    Type
REMARK                         _______ _______ _______ _____ _____    ______ ____
ROOT
ATOM      1  C   UNL     1      47.305   6.519  13.494  0.00  0.00    +0.000 A 
ATOM      2  C   UNL     1      47.948   6.187  14.677  0.00  0.00    +0.000 A 
ATOM      3  N   UNL     1      47.863   4.952  15.250  0.00  0.00    +0.000 NA
ATOM      4  C   UNL     1      47.093   4.061  14.579  0.00  0.00    +0.000 A 
ATOM      5  C   UNL     1      46.430   4.365  13.395  0.00  0.00    +0.000 A 
ATOM      6  N   UNL     1      46.548   5.593  12.852  0.00  0.00    +0.000 NA
ENDROOT
BRANCH   1  10
ATOM      7  C   UNL     1      48.468  11.297  12.864  0.00  0.00    +0.000 C 
ATOM      8  S   UNL     1      47.894  10.087  11.649  0.00  0.00    +0.000 S 
ATOM      9  C   UNL     1      48.456   8.610  12.494  0.00  0.00    +0.000 C 
ATOM     10  C   UNL     1      47.312   7.859  12.907  0.00  0.00    +0.000 C 
ATOM     11  C   UNL     1      46.286   8.695  12.673  0.00  0.00    +0.000 C 
ATOM     12  N   UNL     1      46.455   9.923  12.120  0.00  0.00    +0.000 NA
ENDBRANCH   1  10
BRANCH   5  13
ATOM     13  C   UNL     1      45.626   3.327  12.646  0.00  0.00    +0.000 C 
BRANCH  13  14
ATOM     14  C   UNL     1      44.550   3.823  11.608  0.00  0.00    +0.000 C 
ATOM     15  C   UNL     1      43.289   2.938  11.692  0.00  0.00    +0.000 C 
ATOM     16  C   UNL     1      44.171   5.303  11.857  0.00  0.00    +0.000 C 
BRANCH  14  17
ATOM     17  C   UNL     1      45.115   3.656  10.173  0.00  0.00    +0.000 A 
ATOM     18  C   UNL     1      45.489   4.754   9.387  0.00  0.00    +0.000 A 
ATOM     19  C   UNL     1      45.955   4.559   8.086  0.00  0.00    +0.000 A 
ATOM     20  C   UNL     1      46.022   3.272   7.581  0.00  0.00    +0.000 A 
ATOM     21 CL   UNL     1      46.572   2.989   5.982  0.00  0.00    +0.000 Cl
ATOM     22  C   UNL     1      45.621   2.232   8.400  0.00  0.00    +0.000 A 
ATOM     23  N   UNL     1      45.174   2.396   9.672  0.00  0.00    +0.000 NA
ENDBRANCH  14  17
ENDBRANCH  13  14
ENDBRANCH   5  13
TORSDOF 4
ENDMDL
MODEL 6
REMARK VINA RESULT:    -6.579      4.221      7.871
REMARK INTER + INTRA:          -8.111
REMARK INTER:                  -7.808
REMARK INTRA:                  -0.303
REMARK UNBOUND:                 0.006
REMARK  Name = 
REMARK  7 active torsions:
REMARK  status: ('A' for Active; 'I' for Inactive)
REMARK    1  A    between atoms: C_1  and  S_2
REMARK    2  A    between atoms: C_4  and  C_5
REMARK    3  A    between atoms: C_9  and  C_10
REMARK    4  A    between atoms: C_10  and  C_11
REMARK    5  A    between atoms: C_11  and  C_12
REMARK    6  A    between atoms: C_11  and  C_13
REMARK    7  A    between atoms: C_11  and  C_14
REMARK                            x       y       z     vdW  Elec       q    Type
REMARK                         _______ _______ _______ _____ _____    ______ ____
ROOT
ATOM      1  C   UNL     1      44.780   4.697  10.462  0.00  0.00    +0.000 A 
ATOM      2  C   UNL     1      43.438   4.719  10.813  0.00  0.00    +0.000 A 
ATOM      3  N   UNL     1      42.994   5.130  12.034  0.00  0.00    +0.000 NA
ATOM      4  C   UNL     1      43.966   5.514  12.898  0.00  0.00    +0.000 A 
ATOM      5  C   UNL     1      45.319   5.496  12.580  0.00  0.00    +0.000 A 
ATOM      6  N   UNL     1      45.719   5.096  11.357  0.00  0.00    +0.000 NA
ENDROOT
BRANCH   1  10
ATOM      7  C   UNL     1      47.144   1.720   7.280  0.00  0.00    +0.000 C 
ATOM      8  S   UNL     1      45.738   2.819   6.993  0.00  0.00    +0.000 S 
ATOM      9  C   UNL     1      45.114   2.858   8.672  0.00  0.00    +0.000 C 
ATOM     10  C   UNL     1      45.285   4.180   9.190  0.00  0.00    +0.000 C 
ATOM     11  C   UNL     1      46.046   4.786   8.263  0.00  0.00    +0.000 C 
ATOM     12  N   UNL     1      46.441   4.164   7.122  0.00  0.00    +0.000 NA
ENDBRANCH   1  10
BRANCH   5  13
ATOM     13  C   UNL     1      46.370   5.986  13.550  0.00  0.00    +0.000 C 
BRANCH  13  14
ATOM     14  C   UNL     1      47.091   7.352  13.243  0.00  0.00    +0.000 C 
ATOM     15  C   UNL     1      47.898   7.238  11.933  0.00  0.00    +0.000 C 
ATOM     16  C   UNL     1      46.072   8.512  13.132  0.00  0.00    +0.000 C 
BRANCH  14  17
ATOM     17  C   UNL     1      48.114   7.652  14.370  0.00  0.00    +0.000 A 
ATOM     18  C   UNL     1      48.140   8.878  15.045  0.00  0.00    +0.000 A 
ATOM     19  C   UNL     1      49.103   9.119  16.025  0.00  0.00    +0.000 A 
ATOM     20  C   UNL     1      50.039   8.139  16.304  0.00  0.00    +0.000 A 
ATOM     21 CL   UNL     1      51.252   8.399  17.489  0.00  0.00    +0.000 Cl
ATOM     22  C   UNL     1      49.972   6.956  15.591  0.00  0.00    +0.000 A 
ATOM     23  N   UNL     1      49.038   6.695  14.639  0.00  0.00    +0.000 NA
ENDBRANCH  14  17
ENDBRANCH  13  14
ENDBRANCH   5  13
TORSDOF 4
ENDMDL
MODEL 7
REMARK VINA RESULT:    -6.402      3.729      7.197
REMARK INTER + INTRA:          -7.892
REMARK INTER:                  -8.255
REMARK INTRA:                   0.363
REMARK UNBOUND:                 0.006
REMARK  Name = 
REMARK  7 active torsions:
REMARK  status: ('A' for Active; 'I' for Inactive)
REMARK    1  A    between atoms: C_1  and  S_2
REMARK    2  A    between atoms: C_4  and  C_5
REMARK    3  A    between atoms: C_9  and  C_10
REMARK    4  A    between atoms: C_10  and  C_11
REMARK    5  A    between atoms: C_11  and  C_12
REMARK    6  A    between atoms: C_11  and  C_13
REMARK    7  A    between atoms: C_11  and  C_14
REMARK                            x       y       z     vdW  Elec       q    Type
REMARK                         _______ _______ _______ _____ _____    ______ ____
ROOT
ATOM      1  C   UNL     1      44.673   4.751  10.494  0.00  0.00    +0.000 A 
ATOM      2  C   UNL     1      43.570   4.188  11.119  0.00  0.00    +0.000 A 
ATOM      3  N   UNL     1      43.107   4.605  12.332  0.00  0.00    +0.000 NA
ATOM      4  C   UNL     1      43.812   5.614  12.898  0.00  0.00    +0.000 A 
ATOM      5  C   UNL     1      44.927   6.194  12.302  0.00  0.00    +0.000 A 
ATOM      6  N   UNL     1      45.346   5.765  11.095  0.00  0.00    +0.000 NA
ENDROOT
BRANCH   1  10
ATOM      7  C   UNL     1      47.096   1.794   7.338  0.00  0.00    +0.000 C 
ATOM      8  S   UNL     1      45.771   2.979   7.010  0.00  0.00    +0.000 S 
ATOM      9  C   UNL     1      45.035   2.978   8.644  0.00  0.00    +0.000 C 
ATOM     10  C   UNL     1      45.237   4.264   9.235  0.00  0.00    +0.000 C 
ATOM     11  C   UNL     1      46.090   4.868   8.390  0.00  0.00    +0.000 C 
ATOM     12  N   UNL     1      46.530   4.277   7.250  0.00  0.00    +0.000 NA
ENDBRANCH   1  10
BRANCH   5  13
ATOM     13  C   UNL     1      45.654   7.357  12.938  0.00  0.00    +0.000 C 
BRANCH  13  14
ATOM     14  C   UNL     1      47.198   7.214  13.210  0.00  0.00    +0.000 C 
ATOM     15  C   UNL     1      47.932   6.848  11.903  0.00  0.00    +0.000 C 
ATOM     16  C   UNL     1      47.788   8.520  13.795  0.00  0.00    +0.000 C 
BRANCH  14  17
ATOM     17  C   UNL     1      47.433   6.039  14.196  0.00  0.00    +0.000 A 
ATOM     18  C   UNL     1      46.976   4.743  13.932  0.00  0.00    +0.000 A 
ATOM     19  C   UNL     1      47.175   3.725  14.867  0.00  0.00    +0.000 A 
ATOM     20  C   UNL     1      47.811   4.022  16.059  0.00  0.00    +0.000 A 
ATOM     21 CL   UNL     1      48.061   2.806  17.243  0.00  0.00    +0.000 Cl
ATOM     22  C   UNL     1      48.223   5.326  16.268  0.00  0.00    +0.000 A 
ATOM     23  N   UNL     1      48.049   6.330  15.370  0.00  0.00    +0.000 NA
ENDBRANCH  14  17
ENDBRANCH  13  14
ENDBRANCH   5  13
TORSDOF 4
ENDMDL
MODEL 8
REMARK VINA RESULT:    -6.368      1.794      2.703
REMARK INTER + INTRA:          -7.851
REMARK INTER:                  -7.453
REMARK INTRA:                  -0.398
REMARK UNBOUND:                 0.006
REMARK  Name = 
REMARK  7 active torsions:
REMARK  status: ('A' for Active; 'I' for Inactive)
REMARK    1  A    between atoms: C_1  and  S_2
REMARK    2  A    between atoms: C_4  and  C_5
REMARK    3  A    between atoms: C_9  and  C_10
REMARK    4  A    between atoms: C_10  and  C_11
REMARK    5  A    between atoms: C_11  and  C_12
REMARK    6  A    between atoms: C_11  and  C_13
REMARK    7  A    between atoms: C_11  and  C_14
REMARK                            x       y       z     vdW  Elec       q    Type
REMARK                         _______ _______ _______ _____ _____    ______ ____
ROOT
ATOM      1  C   UNL     1      47.806   4.807  16.134  0.00  0.00    +0.000 A 
ATOM      2  C   UNL     1      47.797   3.436  15.921  0.00  0.00    +0.000 A 
ATOM      3  N   UNL     1      47.474   2.870  14.724  0.00  0.00    +0.000 NA
ATOM      4  C   UNL     1      47.150   3.749  13.743  0.00  0.00    +0.000 A 
ATOM      5  C   UNL     1      47.141   5.127  13.928  0.00  0.00    +0.000 A 
ATOM      6  N   UNL     1      47.479   5.650  15.122  0.00  0.00    +0.000 NA
ENDROOT
BRANCH   1  10
ATOM      7  C   UNL     1      50.061   5.788  20.438  0.00  0.00    +0.000 C 
ATOM      8  S   UNL     1      48.990   6.846  19.439  0.00  0.00    +0.000 S 
ATOM      9  C   UNL     1      49.278   6.057  17.856  0.00  0.00    +0.000 C 
ATOM     10  C   UNL     1      48.065   5.432  17.431  0.00  0.00    +0.000 C 
ATOM     11  C   UNL     1      47.271   5.519  18.512  0.00  0.00    +0.000 C 
ATOM     12  N   UNL     1      47.661   6.135  19.657  0.00  0.00    +0.000 NA
ENDBRANCH   1  10
BRANCH   5  13
ATOM     13  C   UNL     1      46.828   6.078  12.794  0.00  0.00    +0.000 C 
BRANCH  13  14
ATOM     14  C   UNL     1      45.357   6.115  12.235  0.00  0.00    +0.000 C 
ATOM     15  C   UNL     1      44.401   5.410  13.219  0.00  0.00    +0.000 C 
ATOM     16  C   UNL     1      44.885   7.570  11.995  0.00  0.00    +0.000 C 
BRANCH  14  17
ATOM     17  C   UNL     1      45.298   5.315  10.907  0.00  0.00    +0.000 A 
ATOM     18  C   UNL     1      44.573   4.123  10.788  0.00  0.00    +0.000 A 
ATOM     19  C   UNL     1      44.580   3.415   9.585  0.00  0.00    +0.000 A 
ATOM     20  C   UNL     1      45.328   3.897   8.525  0.00  0.00    +0.000 A 
ATOM     21 CL   UNL     1      45.380   3.049   7.035  0.00  0.00    +0.000 Cl
ATOM     22  C   UNL     1      46.037   5.069   8.712  0.00  0.00    +0.000 A 
ATOM     23  N   UNL     1      46.038   5.780   9.868  0.00  0.00    +0.000 NA
ENDBRANCH  14  17
ENDBRANCH  13  14
ENDBRANCH   5  13
TORSDOF 4
ENDMDL
MODEL 9
REMARK VINA RESULT:    -5.995      4.226      7.629
REMARK INTER + INTRA:          -7.390
REMARK INTER:                  -7.480
REMARK INTRA:                   0.091
REMARK UNBOUND:                 0.006
REMARK  Name = 
REMARK  7 active torsions:
REMARK  status: ('A' for Active; 'I' for Inactive)
REMARK    1  A    between atoms: C_1  and  S_2
REMARK    2  A    between atoms: C_4  and  C_5
REMARK    3  A    between atoms: C_9  and  C_10
REMARK    4  A    between atoms: C_10  and  C_11
REMARK    5  A    between atoms: C_11  and  C_12
REMARK    6  A    between atoms: C_11  and  C_13
REMARK    7  A    between atoms: C_11  and  C_14
REMARK                            x       y       z     vdW  Elec       q    Type
REMARK                         _______ _______ _______ _____ _____    ______ ____
ROOT
ATOM      1  C   UNL     1      47.805   5.769  14.089  0.00  0.00    +0.000 A 
ATOM      2  C   UNL     1      48.715   6.590  13.441  0.00  0.00    +0.000 A 
ATOM      3  N   UNL     1      49.730   7.233  14.086  0.00  0.00    +0.000 NA
ATOM      4  C   UNL     1      49.786   7.018  15.423  0.00  0.00    +0.000 A 
ATOM      5  C   UNL     1      48.884   6.207  16.103  0.00  0.00    +0.000 A 
ATOM      6  N   UNL     1      47.902   5.577  15.429  0.00  0.00    +0.000 NA
ENDROOT
BRANCH   1  10
ATOM      7  C   UNL     1      43.083   4.794  12.935  0.00  0.00    +0.000 C 
ATOM      8  S   UNL     1      44.577   4.559  11.945  0.00  0.00    +0.000 S 
ATOM      9  C   UNL     1      45.595   5.799  12.743  0.00  0.00    +0.000 C 
ATOM     10  C   UNL     1      46.659   5.139  13.433  0.00  0.00    +0.000 C 
ATOM     11  C   UNL     1      46.319   3.840  13.367  0.00  0.00    +0.000 C 
ATOM     12  N   UNL     1      45.209   3.408  12.715  0.00  0.00    +0.000 NA
ENDBRANCH   1  10
BRANCH   5  13
ATOM     13  C   UNL     1      49.012   5.946  17.587  0.00  0.00    +0.000 C 
BRANCH  13  14
ATOM     14  C   UNL     1      48.727   4.491  18.117  0.00  0.00    +0.000 C 
ATOM     15  C   UNL     1      48.496   4.521  19.642  0.00  0.00    +0.000 C 
ATOM     16  C   UNL     1      47.496   3.870  17.412  0.00  0.00    +0.000 C 
BRANCH  14  17
ATOM     17  C   UNL     1      49.978   3.607  17.873  0.00  0.00    +0.000 A 
ATOM     18  C   UNL     1      49.889   2.331  17.304  0.00  0.00    +0.000 A 
ATOM     19  C   UNL     1      51.037   1.555  17.141  0.00  0.00    +0.000 A 
ATOM     20  C   UNL     1      52.255   2.056  17.567  0.00  0.00    +0.000 A 
ATOM     21 CL   UNL     1      53.688   1.129  17.401  0.00  0.00    +0.000 Cl
ATOM     22  C   UNL     1      52.274   3.315  18.137  0.00  0.00    +0.000 A 
ATOM     23  N   UNL     1      51.173   4.093  18.298  0.00  0.00    +0.000 NA
ENDBRANCH  14  17
ENDBRANCH  13  14
ENDBRANCH   5  13
TORSDOF 4
ENDMDL
