MODEL 1
REMARK VINA RESULT:    -7.260      0.000      0.000
REMARK INTER + INTRA:         -12.120
REMARK INTER:                 -10.656
REMARK INTRA:                  -1.464
REMARK UNBOUND:                -1.464
REMARK  Name = 
REMARK  9 active torsions:
REMARK  status: ('A' for Active; 'I' for Inactive)
REMARK    1  A    between atoms: N_1  and  C_2
REMARK    2  A    between atoms: C_2  and  C_3
REMARK    3  A    between atoms: C_2  and  C_19
REMARK    4  A    between atoms: C_3  and  C_4
REMARK    5  A    between atoms: C_7  and  C_8
REMARK    6  A    between atoms: C_8  and  O_9
REMARK    7  A    between atoms: C_8  and  C_10
REMARK    8  A    between atoms: C_10  and  N_11
REMARK    9  A    between atoms: N_11  and  C_12
REMARK                            x       y       z     vdW  Elec       q    Type
REMARK                         _______ _______ _______ _____ _____    ______ ____
ROOT
ATOM      1  C   UNL     1      46.131   6.506  12.480  0.00  0.00    +0.000 A 
ATOM      2  C   UNL     1      44.996   5.853  12.967  0.00  0.00    +0.000 A 
ATOM      3  C   UNL     1      44.251   5.021  12.131  0.00  0.00    +0.000 A 
ATOM      4  C   UNL     1      44.638   4.876  10.802  0.00  0.00    +0.000 A 
ATOM      5  N   UNL     1      45.662   5.597  10.271  0.00  0.00    +0.000 NA
ATOM      6  C   UNL     1      46.380   6.385  11.117  0.00  0.00    +0.000 A 
ENDROOT
BRANCH   1   7
ATOM      7  C   UNL     1      47.118   7.149  13.436  0.00  0.00    +0.000 C 
BRANCH   7   8
ATOM      8  C   UNL     1      48.385   6.357  13.844  0.00  0.00    +0.000 C 
BRANCH   8   9
ATOM      9  C   UNL     1      48.532   6.242  15.364  0.00  0.00    +0.000 A 
ATOM     10  C   UNL     1      49.042   7.267  16.150  0.00  0.00    +0.000 A 
ATOM     11  S   UNL     1      49.294   6.819  17.781  0.00  0.00    +0.000 S 
ATOM     12  C   UNL     1      48.590   5.290  17.533  0.00  0.00    +0.000 A 
ATOM     13  N   UNL     1      48.452   4.409  18.560  0.00  0.00    +0.000 NA
ATOM     14  C   UNL     1      47.781   3.346  18.260  0.00  0.00    +0.000 A 
ATOM     15  N   UNL     1      47.256   3.079  17.018  0.00  0.00    +0.000 N 
ATOM     16  C   UNL     1      47.439   3.909  15.929  0.00  0.00    +0.000 A 
ATOM     17  O   UNL     1      46.977   3.628  14.822  0.00  0.00    +0.000 OA
ATOM     18  C   UNL     1      48.170   5.128  16.224  0.00  0.00    +0.000 A 
ATOM     19  H   UNL     1      46.718   2.244  16.854  0.00  0.00    +0.000 HD
ENDBRANCH   8   9
BRANCH   8  20
ATOM     20  N   UNL     1      49.597   6.941  13.285  0.00  0.00    +0.000 NA
ATOM     21  H   UNL     1      49.669   6.723  12.294  0.00  0.00    +0.000 HD
ATOM     22  H   UNL     1      50.411   6.521  13.743  0.00  0.00    +0.000 HD
ENDBRANCH   8  20
ENDBRANCH   7   8
ENDBRANCH   1   7
BRANCH   4  23
ATOM     23  C   UNL     1      43.950   3.852   9.910  0.00  0.00    +0.000 C 
BRANCH  23  24
ATOM     24  O   UNL     1      43.778   4.391   8.594  0.00  0.00    +0.000 OA
ATOM     25  H   UNL     1      43.137   5.122   8.698  0.00  0.00    +0.000 HD
ENDBRANCH  23  24
BRANCH  23  26
ATOM     26  C   UNL     1      44.766   2.535   9.788  0.00  0.00    +0.000 C 
BRANCH  26  27
ATOM     27  N   UNL     1      45.238   2.130   8.452  0.00  0.00    +0.000 NA
ATOM     28  H   UNL     1      44.686   2.642   7.765  0.00  0.00    +0.000 HD
BRANCH  27  29
ATOM     29  C   UNL     1      46.639   2.398   8.207  0.00  0.00    +0.000 C 
ATOM     30  C   UNL     1      47.334   1.546   7.152  0.00  0.00    +0.000 C 
ATOM     31  C   UNL     1      46.806   2.097   5.845  0.00  0.00    +0.000 C 
ATOM     32  C   UNL     1      46.558   3.565   6.153  0.00  0.00    +0.000 C 
ATOM     33  N   UNL     1      46.659   3.723   7.612  0.00  0.00    +0.000 NA
ATOM     34  H   UNL     1      45.848   4.237   7.943  0.00  0.00    +0.000 HD
ENDBRANCH  27  29
ENDBRANCH  26  27
ENDBRANCH  23  26
ENDBRANCH   4  23
TORSDOF 9
ENDMDL
MODEL 2
REMARK VINA RESULT:    -7.221      2.282      3.001
REMARK INTER + INTRA:         -12.062
REMARK INTER:                 -11.277
REMARK INTRA:                  -0.785
REMARK UNBOUND:                -1.464
REMARK  Name = 
REMARK  9 active torsions:
REMARK  status: ('A' for Active; 'I' for Inactive)
REMARK    1  A    between atoms: N_1  and  C_2
REMARK    2  A    between atoms: C_2  and  C_3
REMARK    3  A    between atoms: C_2  and  C_19
REMARK    4  A    between atoms: C_3  and  C_4
REMARK    5  A    between atoms: C_7  and  C_8
REMARK    6  A    between atoms: C_8  and  O_9
REMARK    7  A    between atoms: C_8  and  C_10
REMARK    8  A    between atoms: C_10  and  N_11
REMARK    9  A    between atoms: N_11  and  C_12
REMARK                            x       y       z     vdW  Elec       q    Type
REMARK                         _______ _______ _______ _____ _____    ______ ____
ROOT
ATOM      1  C   UNL     1      47.083   4.888  14.115  0.00  0.00    +0.000 A 
ATOM      2  C   UNL     1      46.245   5.904  13.646  0.00  0.00    +0.000 A 
ATOM      3  C   UNL     1      45.120   5.590  12.883  0.00  0.00    +0.000 A 
ATOM      4  C   UNL     1      44.861   4.258  12.575  0.00  0.00    +0.000 A 
ATOM      5  N   UNL     1      45.727   3.264  12.912  0.00  0.00    +0.000 NA
ATOM      6  C   UNL     1      46.805   3.599  13.670  0.00  0.00    +0.000 A 
ENDROOT
BRANCH   1   7
ATOM      7  C   UNL     1      48.112   5.176  15.191  0.00  0.00    +0.000 C 
BRANCH   7   8
ATOM      8  C   UNL     1      47.779   4.811  16.659  0.00  0.00    +0.000 C 
BRANCH   8   9
ATOM      9  C   UNL     1      49.038   4.576  17.498  0.00  0.00    +0.000 A 
ATOM     10  C   UNL     1      49.444   5.441  18.505  0.00  0.00    +0.000 A 
ATOM     11  S   UNL     1      50.982   5.068  19.152  0.00  0.00    +0.000 S 
ATOM     12  C   UNL     1      51.096   3.650  18.219  0.00  0.00    +0.000 A 
ATOM     13  N   UNL     1      52.173   2.825  18.331  0.00  0.00    +0.000 NA
ATOM     14  C   UNL     1      52.065   1.721  17.666  0.00  0.00    +0.000 A 
ATOM     15  N   UNL     1      50.986   1.382  16.886  0.00  0.00    +0.000 N 
ATOM     16  C   UNL     1      49.908   2.222  16.684  0.00  0.00    +0.000 A 
ATOM     17  O   UNL     1      48.968   1.899  15.957  0.00  0.00    +0.000 OA
ATOM     18  C   UNL     1      49.975   3.468  17.428  0.00  0.00    +0.000 A 
ATOM     19  H   UNL     1      50.949   0.492  16.415  0.00  0.00    +0.000 HD
ENDBRANCH   8   9
BRANCH   8  20
ATOM     20  N   UNL     1      46.916   3.640  16.746  0.00  0.00    +0.000 NA
ATOM     21  H   UNL     1      46.864   3.311  17.707  0.00  0.00    +0.000 HD
ATOM     22  H   UNL     1      47.327   2.882  16.194  0.00  0.00    +0.000 HD
ENDBRANCH   8  20
ENDBRANCH   7   8
ENDBRANCH   1   7
BRANCH   4  23
ATOM     23  C   UNL     1      43.559   3.868  11.891  0.00  0.00    +0.000 C 
BRANCH  23  24
ATOM     24  O   UNL     1      43.125   4.929  11.031  0.00  0.00    +0.000 OA
ATOM     25  H   UNL     1      42.861   5.653  11.631  0.00  0.00    +0.000 HD
ENDBRANCH  23  24
BRANCH  23  26
ATOM     26  C   UNL     1      43.708   2.582  11.030  0.00  0.00    +0.000 C 
BRANCH  26  27
ATOM     27  N   UNL     1      44.906   2.447  10.183  0.00  0.00    +0.000 NA
ATOM     28  H   UNL     1      45.486   1.713  10.588  0.00  0.00    +0.000 HD
BRANCH  27  29
ATOM     29  C   UNL     1      44.627   2.104   8.805  0.00  0.00    +0.000 C 
ATOM     30  C   UNL     1      44.733   3.223   7.776  0.00  0.00    +0.000 C 
ATOM     31  C   UNL     1      46.225   3.423   7.622  0.00  0.00    +0.000 C 
ATOM     32  C   UNL     1      46.798   2.038   7.873  0.00  0.00    +0.000 C 
ATOM     33  N   UNL     1      45.711   1.214   8.423  0.00  0.00    +0.000 NA
ATOM     34  H   UNL     1      46.048   0.742   9.257  0.00  0.00    +0.000 HD
ENDBRANCH  27  29
ENDBRANCH  26  27
ENDBRANCH  23  26
ENDBRANCH   4  23
TORSDOF 9
ENDMDL
MODEL 3
REMARK VINA RESULT:    -7.109      2.877      8.275
REMARK INTER + INTRA:         -11.898
REMARK INTER:                 -11.024
REMARK INTRA:                  -0.873
REMARK UNBOUND:                -1.464
REMARK  Name = 
REMARK  9 active torsions:
REMARK  status: ('A' for Active; 'I' for Inactive)
REMARK    1  A    between atoms: N_1  and  C_2
REMARK    2  A    between atoms: C_2  and  C_3
REMARK    3  A    between atoms: C_2  and  C_19
REMARK    4  A    between atoms: C_3  and  C_4
REMARK    5  A    between atoms: C_7  and  C_8
REMARK    6  A    between atoms: C_8  and  O_9
REMARK    7  A    between atoms: C_8  and  C_10
REMARK    8  A    between atoms: C_10  and  N_11
REMARK    9  A    between atoms: N_11  and  C_12
REMARK                            x       y       z     vdW  Elec       q    Type
REMARK                         _______ _______ _______ _____ _____    ______ ____
ROOT
ATOM      1  C   UNL     1      47.348   5.722  13.671  0.00  0.00    +0.000 A 
ATOM      2  C   UNL     1      46.885   4.509  14.191  0.00  0.00    +0.000 A 
ATOM      3  C   UNL     1      47.110   4.187  15.530  0.00  0.00    +0.000 A 
ATOM      4  C   UNL     1      47.822   5.076  16.329  0.00  0.00    +0.000 A 
ATOM      5  N   UNL     1      48.391   6.201  15.818  0.00  0.00    +0.000 NA
ATOM      6  C   UNL     1      48.139   6.496  14.514  0.00  0.00    +0.000 A 
ENDROOT
BRANCH   1   7
ATOM      7  C   UNL     1      46.848   6.223  12.330  0.00  0.00    +0.000 C 
BRANCH   7   8
ATOM      8  C   UNL     1      45.322   6.344  12.101  0.00  0.00    +0.000 C 
BRANCH   8   9
ATOM      9  C   UNL     1      44.697   5.020  11.652  0.00  0.00    +0.000 A 
ATOM     10  C   UNL     1      43.783   4.318  12.428  0.00  0.00    +0.000 A 
ATOM     11  S   UNL     1      43.392   2.777  11.799  0.00  0.00    +0.000 S 
ATOM     12  C   UNL     1      44.308   3.052  10.392  0.00  0.00    +0.000 A 
ATOM     13  N   UNL     1      44.361   2.122   9.399  0.00  0.00    +0.000 NA
ATOM     14  C   UNL     1      44.981   2.518   8.336  0.00  0.00    +0.000 A 
ATOM     15  N   UNL     1      45.569   3.751   8.188  0.00  0.00    +0.000 N 
ATOM     16  C   UNL     1      45.605   4.694   9.197  0.00  0.00    +0.000 A 
ATOM     17  O   UNL     1      46.162   5.781   9.042  0.00  0.00    +0.000 OA
ATOM     18  C   UNL     1      44.902   4.302  10.406  0.00  0.00    +0.000 A 
ATOM     19  H   UNL     1      46.013   4.010   7.323  0.00  0.00    +0.000 HD
ENDBRANCH   8   9
BRANCH   8  20
ATOM     20  N   UNL     1      44.996   7.384  11.133  0.00  0.00    +0.000 NA
ATOM     21  H   UNL     1      44.653   6.967  10.271  0.00  0.00    +0.000 HD
ATOM     22  H   UNL     1      45.850   7.897  10.897  0.00  0.00    +0.000 HD
ENDBRANCH   8  20
ENDBRANCH   7   8
ENDBRANCH   1   7
BRANCH   4  23
ATOM     23  C   UNL     1      47.940   4.835  17.827  0.00  0.00    +0.000 C 
BRANCH  23  24
ATOM     24  O   UNL     1      46.663   5.020  18.452  0.00  0.00    +0.000 OA
ATOM     25  H   UNL     1      46.504   5.983  18.429  0.00  0.00    +0.000 HD
ENDBRANCH  23  24
BRANCH  23  26
ATOM     26  C   UNL     1      48.433   3.398  18.156  0.00  0.00    +0.000 C 
BRANCH  26  27
ATOM     27  N   UNL     1      49.852   3.212  18.507  0.00  0.00    +0.000 NA
ATOM     28  H   UNL     1      49.937   2.305  18.964  0.00  0.00    +0.000 HD
BRANCH  27  29
ATOM     29  C   UNL     1      50.756   3.244  17.377  0.00  0.00    +0.000 C 
ATOM     30  C   UNL     1      52.243   3.376  17.683  0.00  0.00    +0.000 C 
ATOM     31  C   UNL     1      52.625   2.003  18.191  0.00  0.00    +0.000 C 
ATOM     32  C   UNL     1      51.687   1.073  17.440  0.00  0.00    +0.000 C 
ATOM     33  N   UNL     1      50.665   1.914  16.799  0.00  0.00    +0.000 NA
ATOM     34  H   UNL     1      49.748   1.533  17.010  0.00  0.00    +0.000 HD
ENDBRANCH  27  29
ENDBRANCH  26  27
ENDBRANCH  23  26
ENDBRANCH   4  23
TORSDOF 9
ENDMDL
MODEL 4
REMARK VINA RESULT:    -7.042      2.139      2.843
REMARK INTER + INTRA:         -11.799
REMARK INTER:                 -10.818
REMARK INTRA:                  -0.981
REMARK UNBOUND:                -1.464
REMARK  Name = 
REMARK  9 active torsions:
REMARK  status: ('A' for Active; 'I' for Inactive)
REMARK    1  A    between atoms: N_1  and  C_2
REMARK    2  A    between atoms: C_2  and  C_3
REMARK    3  A    between atoms: C_2  and  C_19
REMARK    4  A    between atoms: C_3  and  C_4
REMARK    5  A    between atoms: C_7  and  C_8
REMARK    6  A    between atoms: C_8  and  O_9
REMARK    7  A    between atoms: C_8  and  C_10
REMARK    8  A    between atoms: C_10  and  N_11
REMARK    9  A    between atoms: N_11  and  C_12
REMARK                            x       y       z     vdW  Elec       q    Type
REMARK                         _______ _______ _______ _____ _____    ______ ____
ROOT
ATOM      1  C   UNL     1      47.477   6.727  13.416  0.00  0.00    +0.000 A 
ATOM      2  C   UNL     1      47.187   5.394  13.717  0.00  0.00    +0.000 A 
ATOM      3  C   UNL     1      45.909   4.883  13.486  0.00  0.00    +0.000 A 
ATOM      4  C   UNL     1      44.925   5.727  12.979  0.00  0.00    +0.000 A 
ATOM      5  N   UNL     1      45.146   7.057  12.797  0.00  0.00    +0.000 NA
ATOM      6  C   UNL     1      46.407   7.520  13.014  0.00  0.00    +0.000 A 
ENDROOT
BRANCH   1   7
ATOM      7  C   UNL     1      48.915   7.208  13.362  0.00  0.00    +0.000 C 
BRANCH   7   8
ATOM      8  C   UNL     1      49.785   7.102  14.639  0.00  0.00    +0.000 C 
BRANCH   8   9
ATOM      9  C   UNL     1      49.083   7.690  15.867  0.00  0.00    +0.000 A 
ATOM     10  C   UNL     1      48.754   9.034  15.975  0.00  0.00    +0.000 A 
ATOM     11  S   UNL     1      48.166   9.475  17.519  0.00  0.00    +0.000 S 
ATOM     12  C   UNL     1      48.185   7.859  18.053  0.00  0.00    +0.000 A 
ATOM     13  N   UNL     1      47.752   7.531  19.301  0.00  0.00    +0.000 NA
ATOM     14  C   UNL     1      47.696   6.259  19.523  0.00  0.00    +0.000 A 
ATOM     15  N   UNL     1      48.054   5.290  18.616  0.00  0.00    +0.000 N 
ATOM     16  C   UNL     1      48.571   5.582  17.369  0.00  0.00    +0.000 A 
ATOM     17  O   UNL     1      48.908   4.691  16.588  0.00  0.00    +0.000 OA
ATOM     18  C   UNL     1      48.634   7.000  17.065  0.00  0.00    +0.000 A 
ATOM     19  H   UNL     1      47.960   4.313  18.840  0.00  0.00    +0.000 HD
ENDBRANCH   8   9
BRANCH   8  20
ATOM     20  N   UNL     1      51.081   7.746  14.470  0.00  0.00    +0.000 NA
ATOM     21  H   UNL     1      50.966   8.666  14.052  0.00  0.00    +0.000 HD
ATOM     22  H   UNL     1      51.646   7.191  13.820  0.00  0.00    +0.000 HD
ENDBRANCH   8  20
ENDBRANCH   7   8
ENDBRANCH   1   7
BRANCH   4  23
ATOM     23  C   UNL     1      43.574   5.165  12.561  0.00  0.00    +0.000 C 
BRANCH  23  24
ATOM     24  O   UNL     1      42.587   5.483  13.550  0.00  0.00    +0.000 OA
ATOM     25  H   UNL     1      42.025   4.687  13.615  0.00  0.00    +0.000 HD
ENDBRANCH  23  24
BRANCH  23  26
ATOM     26  C   UNL     1      43.093   5.740  11.199  0.00  0.00    +0.000 C 
BRANCH  26  27
ATOM     27  N   UNL     1      43.478   5.028   9.968  0.00  0.00    +0.000 NA
ATOM     28  H   UNL     1      43.376   5.681   9.192  0.00  0.00    +0.000 HD
BRANCH  27  29
ATOM     29  C   UNL     1      44.835   4.524   9.968  0.00  0.00    +0.000 C 
ATOM     30  C   UNL     1      45.016   3.019  10.125  0.00  0.00    +0.000 C 
ATOM     31  C   UNL     1      44.611   2.469   8.774  0.00  0.00    +0.000 C 
ATOM     32  C   UNL     1      45.001   3.577   7.809  0.00  0.00    +0.000 C 
ATOM     33  N   UNL     1      45.314   4.764   8.618  0.00  0.00    +0.000 NA
ATOM     34  H   UNL     1      44.814   5.562   8.236  0.00  0.00    +0.000 HD
ENDBRANCH  27  29
ENDBRANCH  26  27
ENDBRANCH  23  26
ENDBRANCH   4  23
TORSDOF 9
ENDMDL
MODEL 5
REMARK VINA RESULT:    -6.966      1.921      2.555
REMARK INTER + INTRA:         -11.687
REMARK INTER:                 -10.507
REMARK INTRA:                  -1.180
REMARK UNBOUND:                -1.464
REMARK  Name = 
REMARK  9 active torsions:
REMARK  status: ('A' for Active; 'I' for Inactive)
REMARK    1  A    between atoms: N_1  and  C_2
REMARK    2  A    between atoms: C_2  and  C_3
REMARK    3  A    between atoms: C_2  and  C_19
REMARK    4  A    between atoms: C_3  and  C_4
REMARK    5  A    between atoms: C_7  and  C_8
REMARK    6  A    between atoms: C_8  and  O_9
REMARK    7  A    between atoms: C_8  and  C_10
REMARK    8  A    between atoms: C_10  and  N_11
REMARK    9  A    between atoms: N_11  and  C_12
REMARK                            x       y       z     vdW  Elec       q    Type
REMARK                         _______ _______ _______ _____ _____    ______ ____
ROOT
ATOM      1  C   UNL     1      47.150   6.439  13.680  0.00  0.00    +0.000 A 
ATOM      2  C   UNL     1      46.147   7.023  12.900  0.00  0.00    +0.000 A 
ATOM      3  C   UNL     1      44.985   6.311  12.603  0.00  0.00    +0.000 A 
ATOM      4  C   UNL     1      44.851   5.008  13.069  0.00  0.00    +0.000 A 
ATOM      5  N   UNL     1      45.862   4.373  13.722  0.00  0.00    +0.000 NA
ATOM      6  C   UNL     1      46.976   5.099  14.013  0.00  0.00    +0.000 A 
ENDROOT
BRANCH   1   7
ATOM      7  C   UNL     1      48.258   7.290  14.271  0.00  0.00    +0.000 C 
BRANCH   7   8
ATOM      8  C   UNL     1      49.299   6.618  15.200  0.00  0.00    +0.000 C 
BRANCH   8   9
ATOM      9  C   UNL     1      48.972   6.827  16.682  0.00  0.00    +0.000 A 
ATOM     10  C   UNL     1      48.626   8.063  17.209  0.00  0.00    +0.000 A 
ATOM     11  S   UNL     1      48.510   8.073  18.915  0.00  0.00    +0.000 S 
ATOM     12  C   UNL     1      48.767   6.393  19.002  0.00  0.00    +0.000 A 
ATOM     13  N   UNL     1      48.746   5.744  20.198  0.00  0.00    +0.000 NA
ATOM     14  C   UNL     1      48.821   4.457  20.102  0.00  0.00    +0.000 A 
ATOM     15  N   UNL     1      48.936   3.767  18.920  0.00  0.00    +0.000 N 
ATOM     16  C   UNL     1      49.039   4.390  17.691  0.00  0.00    +0.000 A 
ATOM     17  O   UNL     1      49.167   3.744  16.651  0.00  0.00    +0.000 OA
ATOM     18  C   UNL     1      48.938   5.838  17.746  0.00  0.00    +0.000 A 
ATOM     19  H   UNL     1      48.961   2.760  18.910  0.00  0.00    +0.000 HD
ENDBRANCH   8   9
BRANCH   8  20
ATOM     20  N   UNL     1      50.652   7.089  14.933  0.00  0.00    +0.000 NA
ATOM     21  H   UNL     1      50.818   7.133  13.931  0.00  0.00    +0.000 HD
ATOM     22  H   UNL     1      51.320   6.414  15.317  0.00  0.00    +0.000 HD
ENDBRANCH   8  20
ENDBRANCH   7   8
ENDBRANCH   1   7
BRANCH   4  23
ATOM     23  C   UNL     1      43.532   4.265  12.905  0.00  0.00    +0.000 C 
BRANCH  23  24
ATOM     24  O   UNL     1      42.620   5.059  12.136  0.00  0.00    +0.000 OA
ATOM     25  H   UNL     1      41.959   5.383  12.778  0.00  0.00    +0.000 HD
ENDBRANCH  23  24
BRANCH  23  26
ATOM     26  C   UNL     1      43.711   2.900  12.183  0.00  0.00    +0.000 C 
BRANCH  26  27
ATOM     27  N   UNL     1      44.691   2.817  11.086  0.00  0.00    +0.000 NA
ATOM     28  H   UNL     1      45.228   1.961  11.220  0.00  0.00    +0.000 HD
BRANCH  27  29
ATOM     29  C   UNL     1      44.106   2.789   9.762  0.00  0.00    +0.000 C 
ATOM     30  C   UNL     1      44.488   3.918   8.812  0.00  0.00    +0.000 C 
ATOM     31  C   UNL     1      45.902   3.572   8.400  0.00  0.00    +0.000 C 
ATOM     32  C   UNL     1      45.924   2.053   8.444  0.00  0.00    +0.000 C 
ATOM     33  N   UNL     1      44.694   1.623   9.127  0.00  0.00    +0.000 NA
ATOM     34  H   UNL     1      44.938   0.952   9.849  0.00  0.00    +0.000 HD
ENDBRANCH  27  29
ENDBRANCH  26  27
ENDBRANCH  23  26
ENDBRANCH   4  23
TORSDOF 9
ENDMDL
MODEL 6
REMARK VINA RESULT:    -6.651      2.460      3.239
REMARK INTER + INTRA:         -11.225
REMARK INTER:                 -10.073
REMARK INTRA:                  -1.152
REMARK UNBOUND:                -1.464
REMARK  Name = 
REMARK  9 active torsions:
REMARK  status: ('A' for Active; 'I' for Inactive)
REMARK    1  A    between atoms: N_1  and  C_2
REMARK    2  A    between atoms: C_2  and  C_3
REMARK    3  A    between atoms: C_2  and  C_19
REMARK    4  A    between atoms: C_3  and  C_4
REMARK    5  A    between atoms: C_7  and  C_8
REMARK    6  A    between atoms: C_8  and  O_9
REMARK    7  A    between atoms: C_8  and  C_10
REMARK    8  A    between atoms: C_10  and  N_11
REMARK    9  A    between atoms: N_11  and  C_12
REMARK                            x       y       z     vdW  Elec       q    Type
REMARK                         _______ _______ _______ _____ _____    ______ ____
ROOT
ATOM      1  C   UNL     1      47.711   6.330  12.910  0.00  0.00    +0.000 A 
ATOM      2  C   UNL     1      47.138   6.836  11.740  0.00  0.00    +0.000 A 
ATOM      3  C   UNL     1      45.916   6.340  11.285  0.00  0.00    +0.000 A 
ATOM      4  C   UNL     1      45.294   5.319  11.997  0.00  0.00    +0.000 A 
ATOM      5  N   UNL     1      45.889   4.724  13.065  0.00  0.00    +0.000 NA
ATOM      6  C   UNL     1      47.072   5.242  13.495  0.00  0.00    +0.000 A 
ENDROOT
BRANCH   1   7
ATOM      7  C   UNL     1      48.858   7.062  13.582  0.00  0.00    +0.000 C 
BRANCH   7   8
ATOM      8  C   UNL     1      48.541   8.044  14.736  0.00  0.00    +0.000 C 
BRANCH   8   9
ATOM      9  C   UNL     1      48.692   7.389  16.112  0.00  0.00    +0.000 A 
ATOM     10  C   UNL     1      49.149   6.089  16.281  0.00  0.00    +0.000 A 
ATOM     11  S   UNL     1      49.033   5.525  17.891  0.00  0.00    +0.000 S 
ATOM     12  C   UNL     1      48.512   7.046  18.450  0.00  0.00    +0.000 A 
ATOM     13  N   UNL     1      48.271   7.260  19.772  0.00  0.00    +0.000 NA
ATOM     14  C   UNL     1      48.013   8.491  20.070  0.00  0.00    +0.000 A 
ATOM     15  N   UNL     1      47.955   9.519  19.161  0.00  0.00    +0.000 N 
ATOM     16  C   UNL     1      48.117   9.332  17.801  0.00  0.00    +0.000 A 
ATOM     17  O   UNL     1      48.033  10.271  17.009  0.00  0.00    +0.000 OA
ATOM     18  C   UNL     1      48.429   7.967  17.419  0.00  0.00    +0.000 A 
ATOM     19  H   UNL     1      47.778  10.464  19.460  0.00  0.00    +0.000 HD
ENDBRANCH   8   9
BRANCH   8  20
ATOM     20  N   UNL     1      47.205   8.613  14.616  0.00  0.00    +0.000 NA
ATOM     21  H   UNL     1      46.505   7.932  14.902  0.00  0.00    +0.000 HD
ATOM     22  H   UNL     1      47.023   8.831  13.632  0.00  0.00    +0.000 HD
ENDBRANCH   8  20
ENDBRANCH   7   8
ENDBRANCH   1   7
BRANCH   4  23
ATOM     23  C   UNL     1      43.887   4.871  11.625  0.00  0.00    +0.000 C 
BRANCH  23  24
ATOM     24  O   UNL     1      43.440   5.586  10.466  0.00  0.00    +0.000 OA
ATOM     25  H   UNL     1      44.248   5.972  10.076  0.00  0.00    +0.000 HD
ENDBRANCH  23  24
BRANCH  23  26
ATOM     26  C   UNL     1      43.817   3.351  11.309  0.00  0.00    +0.000 C 
BRANCH  26  27
ATOM     27  N   UNL     1      44.892   2.759  10.494  0.00  0.00    +0.000 NA
ATOM     28  H   UNL     1      45.251   1.951  11.001  0.00  0.00    +0.000 HD
BRANCH  27  29
ATOM     29  C   UNL     1      44.473   2.326   9.177  0.00  0.00    +0.000 C 
ATOM     30  C   UNL     1      44.588   3.338   8.045  0.00  0.00    +0.000 C 
ATOM     31  C   UNL     1      46.074   3.389   7.763  0.00  0.00    +0.000 C 
ATOM     32  C   UNL     1      46.547   1.984   8.097  0.00  0.00    +0.000 C 
ATOM     33  N   UNL     1      45.443   1.313   8.801  0.00  0.00    +0.000 NA
ATOM     34  H   UNL     1      45.807   0.884   9.647  0.00  0.00    +0.000 HD
ENDBRANCH  27  29
ENDBRANCH  26  27
ENDBRANCH  23  26
ENDBRANCH   4  23
TORSDOF 9
ENDMDL
MODEL 7
REMARK VINA RESULT:    -6.026      2.711      8.943
REMARK INTER + INTRA:         -10.308
REMARK INTER:                  -9.205
REMARK INTRA:                  -1.102
REMARK UNBOUND:                -1.464
REMARK  Name = 
REMARK  9 active torsions:
REMARK  status: ('A' for Active; 'I' for Inactive)
REMARK    1  A    between atoms: N_1  and  C_2
REMARK    2  A    between atoms: C_2  and  C_3
REMARK    3  A    between atoms: C_2  and  C_19
REMARK    4  A    between atoms: C_3  and  C_4
REMARK    5  A    between atoms: C_7  and  C_8
REMARK    6  A    between atoms: C_8  and  O_9
REMARK    7  A    between atoms: C_8  and  C_10
REMARK    8  A    between atoms: C_10  and  N_11
REMARK    9  A    between atoms: N_11  and  C_12
REMARK                            x       y       z     vdW  Elec       q    Type
REMARK                         _______ _______ _______ _____ _____    ______ ____
ROOT
ATOM      1  C   UNL     1      47.322   6.694  13.186  0.00  0.00    +0.000 A 
ATOM      2  C   UNL     1      48.081   7.812  13.544  0.00  0.00    +0.000 A 
ATOM      3  C   UNL     1      48.948   7.753  14.635  0.00  0.00    +0.000 A 
ATOM      4  C   UNL     1      49.025   6.577  15.375  0.00  0.00    +0.000 A 
ATOM      5  N   UNL     1      48.207   5.519  15.125  0.00  0.00    +0.000 NA
ATOM      6  C   UNL     1      47.386   5.601  14.044  0.00  0.00    +0.000 A 
ENDROOT
BRANCH   1   7
ATOM      7  C   UNL     1      46.625   6.637  11.840  0.00  0.00    +0.000 C 
BRANCH   7   8
ATOM      8  C   UNL     1      45.079   6.569  11.803  0.00  0.00    +0.000 C 
BRANCH   8   9
ATOM      9  C   UNL     1      44.568   5.155  11.509  0.00  0.00    +0.000 A 
ATOM     10  C   UNL     1      43.703   4.476  12.356  0.00  0.00    +0.000 A 
ATOM     11  S   UNL     1      43.446   2.846  11.910  0.00  0.00    +0.000 S 
ATOM     12  C   UNL     1      44.357   3.029  10.485  0.00  0.00    +0.000 A 
ATOM     13  N   UNL     1      44.500   1.998   9.608  0.00  0.00    +0.000 NA
ATOM     14  C   UNL     1      45.101   2.316   8.510  0.00  0.00    +0.000 A 
ATOM     15  N   UNL     1      45.590   3.568   8.221  0.00  0.00    +0.000 N 
ATOM     16  C   UNL     1      45.536   4.621   9.114  0.00  0.00    +0.000 A 
ATOM     17  O   UNL     1      46.006   5.725   8.835  0.00  0.00    +0.000 OA
ATOM     18  C   UNL     1      44.849   4.317  10.356  0.00  0.00    +0.000 A 
ATOM     19  H   UNL     1      46.025   3.760   7.334  0.00  0.00    +0.000 HD
ENDBRANCH   8   9
BRANCH   8  20
ATOM     20  N   UNL     1      44.515   7.497  10.832  0.00  0.00    +0.000 NA
ATOM     21  H   UNL     1      44.667   7.154   9.887  0.00  0.00    +0.000 HD
ATOM     22  H   UNL     1      45.004   8.394  10.906  0.00  0.00    +0.000 HD
ENDBRANCH   8  20
ENDBRANCH   7   8
ENDBRANCH   1   7
BRANCH   4  23
ATOM     23  C   UNL     1      50.078   6.422  16.463  0.00  0.00    +0.000 C 
BRANCH  23  24
ATOM     24  O   UNL     1      50.205   7.649  17.194  0.00  0.00    +0.000 OA
ATOM     25  H   UNL     1      51.146   7.696  17.452  0.00  0.00    +0.000 HD
ENDBRANCH  23  24
BRANCH  23  26
ATOM     26  C   UNL     1      49.720   5.296  17.473  0.00  0.00    +0.000 C 
BRANCH  26  27
ATOM     27  N   UNL     1      48.440   5.391  18.197  0.00  0.00    +0.000 NA
ATOM     28  H   UNL     1      47.741   4.890  17.650  0.00  0.00    +0.000 HD
BRANCH  27  29
ATOM     29  C   UNL     1      48.466   4.832  19.532  0.00  0.00    +0.000 C 
ATOM     30  C   UNL     1      49.552   5.335  20.474  0.00  0.00    +0.000 C 
ATOM     31  C   UNL     1      49.075   6.719  20.859  0.00  0.00    +0.000 C 
ATOM     32  C   UNL     1      47.560   6.598  20.815  0.00  0.00    +0.000 C 
ATOM     33  N   UNL     1      47.248   5.320  20.156  0.00  0.00    +0.000 NA
ATOM     34  H   UNL     1      46.558   5.487  19.430  0.00  0.00    +0.000 HD
ENDBRANCH  27  29
ENDBRANCH  26  27
ENDBRANCH  23  26
ENDBRANCH   4  23
TORSDOF 9
ENDMDL
MODEL 8
REMARK VINA RESULT:    -5.989      2.527      3.168
REMARK INTER + INTRA:         -10.254
REMARK INTER:                  -9.334
REMARK INTRA:                  -0.921
REMARK UNBOUND:                -1.464
REMARK  Name = 
REMARK  9 active torsions:
REMARK  status: ('A' for Active; 'I' for Inactive)
REMARK    1  A    between atoms: N_1  and  C_2
REMARK    2  A    between atoms: C_2  and  C_3
REMARK    3  A    between atoms: C_2  and  C_19
REMARK    4  A    between atoms: C_3  and  C_4
REMARK    5  A    between atoms: C_7  and  C_8
REMARK    6  A    between atoms: C_8  and  O_9
REMARK    7  A    between atoms: C_8  and  C_10
REMARK    8  A    between atoms: C_10  and  N_11
REMARK    9  A    between atoms: N_11  and  C_12
REMARK                            x       y       z     vdW  Elec       q    Type
REMARK                         _______ _______ _______ _____ _____    ______ ____
ROOT
ATOM      1  C   UNL     1      47.027   6.466  13.531  0.00  0.00    +0.000 A 
ATOM      2  C   UNL     1      46.558   5.180  13.811  0.00  0.00    +0.000 A 
ATOM      3  C   UNL     1      45.302   4.775  13.358  0.00  0.00    +0.000 A 
ATOM      4  C   UNL     1      44.516   5.678  12.650  0.00  0.00    +0.000 A 
ATOM      5  N   UNL     1      44.894   6.973  12.472  0.00  0.00    +0.000 NA
ATOM      6  C   UNL     1      46.131   7.331  12.910  0.00  0.00    +0.000 A 
ENDROOT
BRANCH   1   7
ATOM      7  C   UNL     1      48.489   6.813  13.735  0.00  0.00    +0.000 C 
BRANCH   7   8
ATOM      8  C   UNL     1      48.920   7.469  15.070  0.00  0.00    +0.000 C 
BRANCH   8   9
ATOM      9  C   UNL     1      49.365   6.434  16.108  0.00  0.00    +0.000 A 
ATOM     10  C   UNL     1      48.483   5.549  16.713  0.00  0.00    +0.000 A 
ATOM     11  S   UNL     1      49.186   4.638  17.978  0.00  0.00    +0.000 S 
ATOM     12  C   UNL     1      50.730   5.281  17.663  0.00  0.00    +0.000 A 
ATOM     13  N   UNL     1      51.815   4.877  18.378  0.00  0.00    +0.000 NA
ATOM     14  C   UNL     1      52.939   5.345  17.945  0.00  0.00    +0.000 A 
ATOM     15  N   UNL     1      53.070   6.196  16.874  0.00  0.00    +0.000 N 
ATOM     16  C   UNL     1      51.990   6.692  16.170  0.00  0.00    +0.000 A 
ATOM     17  O   UNL     1      52.138   7.474  15.230  0.00  0.00    +0.000 OA
ATOM     18  C   UNL     1      50.704   6.177  16.608  0.00  0.00    +0.000 A 
ATOM     19  H   UNL     1      53.978   6.503  16.567  0.00  0.00    +0.000 HD
ENDBRANCH   8   9
BRANCH   8  20
ATOM     20  N   UNL     1      47.863   8.297  15.637  0.00  0.00    +0.000 NA
ATOM     21  H   UNL     1      48.033   9.278  15.427  0.00  0.00    +0.000 HD
ATOM     22  H   UNL     1      47.878   8.204  16.657  0.00  0.00    +0.000 HD
ENDBRANCH   8  20
ENDBRANCH   7   8
ENDBRANCH   1   7
BRANCH   4  23
ATOM     23  C   UNL     1      43.218   5.219  12.000  0.00  0.00    +0.000 C 
BRANCH  23  24
ATOM     24  O   UNL     1      43.026   5.907  10.757  0.00  0.00    +0.000 OA
ATOM     25  H   UNL     1      42.639   6.771  11.000  0.00  0.00    +0.000 HD
ENDBRANCH  23  24
BRANCH  23  26
ATOM     26  C   UNL     1      43.212   3.692  11.710  0.00  0.00    +0.000 C 
BRANCH  26  27
ATOM     27  N   UNL     1      43.527   3.242  10.343  0.00  0.00    +0.000 NA
ATOM     28  H   UNL     1      43.248   3.986   9.704  0.00  0.00    +0.000 HD
BRANCH  27  29
ATOM     29  C   UNL     1      44.927   2.946  10.119  0.00  0.00    +0.000 C 
ATOM     30  C   UNL     1      45.266   2.062   8.926  0.00  0.00    +0.000 C 
ATOM     31  C   UNL     1      45.076   2.980   7.738  0.00  0.00    +0.000 C 
ATOM     32  C   UNL     1      45.433   4.352   8.288  0.00  0.00    +0.000 C 
ATOM     33  N   UNL     1      45.516   4.222   9.750  0.00  0.00    +0.000 NA
ATOM     34  H   UNL     1      44.969   4.964  10.176  0.00  0.00    +0.000 HD
ENDBRANCH  27  29
ENDBRANCH  26  27
ENDBRANCH  23  26
ENDBRANCH   4  23
TORSDOF 9
ENDMDL
