MODEL 1
REMARK VINA RESULT:    -8.458      0.000      0.000
REMARK INTER + INTRA:         -13.894
REMARK INTER:                 -12.414
REMARK INTRA:                  -1.481
REMARK UNBOUND:                -1.481
REMARK  Name = 
REMARK  9 active torsions:
REMARK  status: ('A' for Active; 'I' for Inactive)
REMARK    1  A    between atoms: C_1  and  O_2
REMARK    2  A    between atoms: O_2  and  C_3
REMARK    3  A    between atoms: C_10  and  C_11
REMARK    4  A    between atoms: N_13  and  C_14
REMARK    5  A    between atoms: C_14  and  C_15
REMARK    6  A    between atoms: C_18  and  C_19
REMARK    7  A    between atoms: C_19  and  N_20
REMARK    8  A    between atoms: N_20  and  C_21
REMARK    9  A    between atoms: C_21  and  C_22
REMARK                            x       y       z     vdW  Elec       q    Type
REMARK                         _______ _______ _______ _____ _____    ______ ____
ROOT
ATOM      1  C   UNL     1      46.680   8.001  13.069  0.00  0.00    +0.000 C 
ENDROOT
BRANCH   1   2
ATOM      2  C   UNL     1      45.904   6.938  12.318  0.00  0.00    +0.000 A 
ATOM      3  C   UNL     1      46.281   6.552  11.023  0.00  0.00    +0.000 A 
ATOM      4  C   UNL     1      45.648   5.477  10.378  0.00  0.00    +0.000 A 
ATOM      5  C   UNL     1      44.592   4.788  10.990  0.00  0.00    +0.000 A 
ATOM      6  C   UNL     1      44.151   5.239  12.242  0.00  0.00    +0.000 A 
ATOM      7  C   UNL     1      44.800   6.298  12.899  0.00  0.00    +0.000 A 
BRANCH   5   8
ATOM      8  C   UNL     1      43.923   3.609  10.306  0.00  0.00    +0.000 C 
BRANCH   8   9
ATOM      9  N   UNL     1      44.811   2.448  10.219  0.00  0.00    +0.000 NA
ATOM     10  H   UNL     1      44.605   1.812  10.989  0.00  0.00    +0.000 HD
BRANCH   9  11
ATOM     11  C   UNL     1      44.649   1.724   8.954  0.00  0.00    +0.000 C 
BRANCH  11  12
ATOM     12  C   UNL     1      45.817   1.985   8.037  0.00  0.00    +0.000 A 
ATOM     13  C   UNL     1      45.991   3.226   7.415  0.00  0.00    +0.000 A 
ATOM     14  C   UNL     1      47.093   3.444   6.592  0.00  0.00    +0.000 A 
ATOM     15  C   UNL     1      47.988   2.403   6.408  0.00  0.00    +0.000 A 
ATOM     16  N   UNL     1      47.853   1.187   6.980  0.00  0.00    +0.000 NA
ATOM     17  C   UNL     1      46.775   1.008   7.778  0.00  0.00    +0.000 A 
ENDBRANCH  11  12
ENDBRANCH   9  11
ENDBRANCH   8   9
ENDBRANCH   5   8
ENDBRANCH   1   2
BRANCH   1  20
ATOM     18  C   UNL     1      48.517   6.862  14.278  0.00  0.00    +0.000 C 
ATOM     19  O   UNL     1      49.167   6.696  13.244  0.00  0.00    +0.000 OA
ATOM     20  N   UNL     1      47.297   7.483  14.259  0.00  0.00    +0.000 N 
ATOM     21  H   UNL     1      46.794   7.615  15.125  0.00  0.00    +0.000 HD
BRANCH  18  29
ATOM     22  C   UNL     1      47.543   4.341  16.400  0.00  0.00    +0.000 A 
ATOM     23  N   UNL     1      47.399   3.410  17.363  0.00  0.00    +0.000 NA
ATOM     24  C   UNL     1      48.253   3.433  18.387  0.00  0.00    +0.000 A 
ATOM     25  N   UNL     1      49.249   4.297  18.577  0.00  0.00    +0.000 NA
ATOM     26  C   UNL     1      49.368   5.195  17.588  0.00  0.00    +0.000 A 
ATOM     27  S   UNL     1      50.585   6.374  17.658  0.00  0.00    +0.000 S 
ATOM     28  C   UNL     1      50.101   7.040  16.171  0.00  0.00    +0.000 A 
ATOM     29  C   UNL     1      49.021   6.388  15.587  0.00  0.00    +0.000 A 
ATOM     30  C   UNL     1      48.574   5.295  16.446  0.00  0.00    +0.000 A 
BRANCH  22  32
ATOM     31  C   UNL     1      47.158   3.591  14.222  0.00  0.00    +0.000 C 
ATOM     32  O   UNL     1      46.661   4.314  15.343  0.00  0.00    +0.000 OA
ENDBRANCH  22  32
ENDBRANCH  18  29
ENDBRANCH   1  20
TORSDOF 8
ENDMDL
MODEL 2
REMARK VINA RESULT:    -8.134      1.438      1.619
REMARK INTER + INTRA:         -13.419
REMARK INTER:                 -12.213
REMARK INTRA:                  -1.206
REMARK UNBOUND:                -1.481
REMARK  Name = 
REMARK  9 active torsions:
REMARK  status: ('A' for Active; 'I' for Inactive)
REMARK    1  A    between atoms: C_1  and  O_2
REMARK    2  A    between atoms: O_2  and  C_3
REMARK    3  A    between atoms: C_10  and  C_11
REMARK    4  A    between atoms: N_13  and  C_14
REMARK    5  A    between atoms: C_14  and  C_15
REMARK    6  A    between atoms: C_18  and  C_19
REMARK    7  A    between atoms: C_19  and  N_20
REMARK    8  A    between atoms: N_20  and  C_21
REMARK    9  A    between atoms: C_21  and  C_22
REMARK                            x       y       z     vdW  Elec       q    Type
REMARK                         _______ _______ _______ _____ _____    ______ ____
ROOT
ATOM      1  C   UNL     1      47.894   6.808  13.071  0.00  0.00    +0.000 C 
ENDROOT
BRANCH   1   2
ATOM      2  C   UNL     1      46.772   5.935  12.547  0.00  0.00    +0.000 A 
ATOM      3  C   UNL     1      46.136   6.233  11.333  0.00  0.00    +0.000 A 
ATOM      4  C   UNL     1      45.190   5.356  10.780  0.00  0.00    +0.000 A 
ATOM      5  C   UNL     1      44.820   4.179  11.446  0.00  0.00    +0.000 A 
ATOM      6  C   UNL     1      45.383   3.933  12.707  0.00  0.00    +0.000 A 
ATOM      7  C   UNL     1      46.349   4.798  13.249  0.00  0.00    +0.000 A 
BRANCH   5   8
ATOM      8  C   UNL     1      43.817   3.214  10.838  0.00  0.00    +0.000 C 
BRANCH   8   9
ATOM      9  N   UNL     1      44.029   3.034   9.401  0.00  0.00    +0.000 NA
ATOM     10  H   UNL     1      44.571   3.821   9.043  0.00  0.00    +0.000 HD
BRANCH   9  11
ATOM     11  C   UNL     1      44.749   1.792   9.102  0.00  0.00    +0.000 C 
BRANCH  11  12
ATOM     12  C   UNL     1      45.845   2.040   8.097  0.00  0.00    +0.000 A 
ATOM     13  C   UNL     1      45.977   3.274   7.452  0.00  0.00    +0.000 A 
ATOM     14  C   UNL     1      47.013   3.480   6.546  0.00  0.00    +0.000 A 
ATOM     15  C   UNL     1      47.889   2.434   6.305  0.00  0.00    +0.000 A 
ATOM     16  N   UNL     1      47.793   1.225   6.896  0.00  0.00    +0.000 NA
ATOM     17  C   UNL     1      46.778   1.057   7.776  0.00  0.00    +0.000 A 
ENDBRANCH  11  12
ENDBRANCH   9  11
ENDBRANCH   8   9
ENDBRANCH   5   8
ENDBRANCH   1   2
BRANCH   1  20
ATOM     18  C   UNL     1      49.006   6.990  15.278  0.00  0.00    +0.000 C 
ATOM     19  O   UNL     1      50.130   6.965  14.772  0.00  0.00    +0.000 OA
ATOM     20  N   UNL     1      47.878   6.910  14.505  0.00  0.00    +0.000 N 
ATOM     21  H   UNL     1      46.971   6.944  14.948  0.00  0.00    +0.000 HD
BRANCH  18  29
ATOM     22  C   UNL     1      48.891   4.667  17.807  0.00  0.00    +0.000 A 
ATOM     23  N   UNL     1      48.858   3.979  18.964  0.00  0.00    +0.000 NA
ATOM     24  C   UNL     1      48.705   4.668  20.096  0.00  0.00    +0.000 A 
ATOM     25  N   UNL     1      48.567   5.987  20.217  0.00  0.00    +0.000 NA
ATOM     26  C   UNL     1      48.623   6.635  19.043  0.00  0.00    +0.000 A 
ATOM     27  S   UNL     1      48.468   8.323  19.001  0.00  0.00    +0.000 S 
ATOM     28  C   UNL     1      48.641   8.352  17.310  0.00  0.00    +0.000 A 
ATOM     29  C   UNL     1      48.824   7.096  16.742  0.00  0.00    +0.000 A 
ATOM     30  C   UNL     1      48.796   6.069  17.781  0.00  0.00    +0.000 A 
BRANCH  22  32
ATOM     31  C   UNL     1      47.975   3.057  16.385  0.00  0.00    +0.000 C 
ATOM     32  O   UNL     1      49.050   3.955  16.640  0.00  0.00    +0.000 OA
ENDBRANCH  22  32
ENDBRANCH  18  29
ENDBRANCH   1  20
TORSDOF 8
ENDMDL
MODEL 3
REMARK VINA RESULT:    -7.456      2.285      2.913
REMARK INTER + INTRA:         -12.424
REMARK INTER:                 -11.255
REMARK INTRA:                  -1.169
REMARK UNBOUND:                -1.481
REMARK  Name = 
REMARK  9 active torsions:
REMARK  status: ('A' for Active; 'I' for Inactive)
REMARK    1  A    between atoms: C_1  and  O_2
REMARK    2  A    between atoms: O_2  and  C_3
REMARK    3  A    between atoms: C_10  and  C_11
REMARK    4  A    between atoms: N_13  and  C_14
REMARK    5  A    between atoms: C_14  and  C_15
REMARK    6  A    between atoms: C_18  and  C_19
REMARK    7  A    between atoms: C_19  and  N_20
REMARK    8  A    between atoms: N_20  and  C_21
REMARK    9  A    between atoms: C_21  and  C_22
REMARK                            x       y       z     vdW  Elec       q    Type
REMARK                         _______ _______ _______ _____ _____    ______ ____
ROOT
ATOM      1  C   UNL     1      47.863   7.620  13.866  0.00  0.00    +0.000 C 
ENDROOT
BRANCH   1   2
ATOM      2  C   UNL     1      47.070   6.628  13.039  0.00  0.00    +0.000 A 
ATOM      3  C   UNL     1      46.802   5.340  13.523  0.00  0.00    +0.000 A 
ATOM      4  C   UNL     1      45.958   4.467  12.820  0.00  0.00    +0.000 A 
ATOM      5  C   UNL     1      45.395   4.839  11.591  0.00  0.00    +0.000 A 
ATOM      6  C   UNL     1      45.745   6.088  11.060  0.00  0.00    +0.000 A 
ATOM      7  C   UNL     1      46.569   6.973  11.776  0.00  0.00    +0.000 A 
BRANCH   5   8
ATOM      8  C   UNL     1      44.461   3.906  10.840  0.00  0.00    +0.000 C 
BRANCH   8   9
ATOM      9  N   UNL     1      45.104   2.633  10.512  0.00  0.00    +0.000 NA
ATOM     10  H   UNL     1      44.888   1.953  11.241  0.00  0.00    +0.000 HD
BRANCH   9  11
ATOM     11  C   UNL     1      44.649   2.102   9.222  0.00  0.00    +0.000 C 
BRANCH  11  12
ATOM     12  C   UNL     1      45.748   2.185   8.194  0.00  0.00    +0.000 A 
ATOM     13  C   UNL     1      45.973   3.355   7.461  0.00  0.00    +0.000 A 
ATOM     14  C   UNL     1      47.011   3.408   6.535  0.00  0.00    +0.000 A 
ATOM     15  C   UNL     1      47.792   2.278   6.363  0.00  0.00    +0.000 A 
ATOM     16  N   UNL     1      47.604   1.125   7.040  0.00  0.00    +0.000 NA
ATOM     17  C   UNL     1      46.590   1.107   7.937  0.00  0.00    +0.000 A 
ENDBRANCH  11  12
ENDBRANCH   9  11
ENDBRANCH   8   9
ENDBRANCH   5   8
ENDBRANCH   1   2
BRANCH   1  20
ATOM     18  C   UNL     1      49.107   6.778  15.836  0.00  0.00    +0.000 C 
ATOM     19  O   UNL     1      50.155   6.674  15.196  0.00  0.00    +0.000 OA
ATOM     20  N   UNL     1      47.955   7.226  15.245  0.00  0.00    +0.000 N 
ATOM     21  H   UNL     1      47.115   7.312  15.799  0.00  0.00    +0.000 HD
BRANCH  18  29
ATOM     22  C   UNL     1      47.853   8.371  18.611  0.00  0.00    +0.000 A 
ATOM     23  N   UNL     1      47.404   8.750  19.822  0.00  0.00    +0.000 NA
ATOM     24  C   UNL     1      47.597   7.920  20.848  0.00  0.00    +0.000 A 
ATOM     25  N   UNL     1      48.205   6.735  20.814  0.00  0.00    +0.000 NA
ATOM     26  C   UNL     1      48.620   6.388  19.586  0.00  0.00    +0.000 A 
ATOM     27  S   UNL     1      49.415   4.909  19.350  0.00  0.00    +0.000 S 
ATOM     28  C   UNL     1      49.583   5.203  17.684  0.00  0.00    +0.000 A 
ATOM     29  C   UNL     1      49.041   6.415  17.269  0.00  0.00    +0.000 A 
ATOM     30  C   UNL     1      48.481   7.129  18.414  0.00  0.00    +0.000 A 
BRANCH  22  32
ATOM     31  C   UNL     1      48.218  10.517  17.766  0.00  0.00    +0.000 C 
ATOM     32  O   UNL     1      47.652   9.228  17.553  0.00  0.00    +0.000 OA
ENDBRANCH  22  32
ENDBRANCH  18  29
ENDBRANCH   1  20
TORSDOF 8
ENDMDL
MODEL 4
REMARK VINA RESULT:    -7.445      2.040      3.538
REMARK INTER + INTRA:         -12.407
REMARK INTER:                 -11.093
REMARK INTRA:                  -1.315
REMARK UNBOUND:                -1.481
REMARK  Name = 
REMARK  9 active torsions:
REMARK  status: ('A' for Active; 'I' for Inactive)
REMARK    1  A    between atoms: C_1  and  O_2
REMARK    2  A    between atoms: O_2  and  C_3
REMARK    3  A    between atoms: C_10  and  C_11
REMARK    4  A    between atoms: N_13  and  C_14
REMARK    5  A    between atoms: C_14  and  C_15
REMARK    6  A    between atoms: C_18  and  C_19
REMARK    7  A    between atoms: C_19  and  N_20
REMARK    8  A    between atoms: N_20  and  C_21
REMARK    9  A    between atoms: C_21  and  C_22
REMARK                            x       y       z     vdW  Elec       q    Type
REMARK                         _______ _______ _______ _____ _____    ______ ____
ROOT
ATOM      1  C   UNL     1      47.192   4.209  14.918  0.00  0.00    +0.000 C 
ENDROOT
BRANCH   1   2
ATOM      2  C   UNL     1      46.364   4.421  13.667  0.00  0.00    +0.000 A 
ATOM      3  C   UNL     1      45.875   3.329  12.934  0.00  0.00    +0.000 A 
ATOM      4  C   UNL     1      44.999   3.520  11.854  0.00  0.00    +0.000 A 
ATOM      5  C   UNL     1      44.622   4.808  11.448  0.00  0.00    +0.000 A 
ATOM      6  C   UNL     1      45.191   5.901  12.118  0.00  0.00    +0.000 A 
ATOM      7  C   UNL     1      46.048   5.710  13.215  0.00  0.00    +0.000 A 
BRANCH   5   8
ATOM      8  C   UNL     1      43.654   5.017  10.296  0.00  0.00    +0.000 C 
BRANCH   8   9
ATOM      9  N   UNL     1      43.979   4.172   9.146  0.00  0.00    +0.000 NA
ATOM     10  H   UNL     1      43.277   4.314   8.420  0.00  0.00    +0.000 HD
BRANCH   9  11
ATOM     11  C   UNL     1      45.301   4.480   8.591  0.00  0.00    +0.000 C 
BRANCH  11  12
ATOM     12  C   UNL     1      45.960   3.232   8.061  0.00  0.00    +0.000 A 
ATOM     13  C   UNL     1      46.882   3.285   7.011  0.00  0.00    +0.000 A 
ATOM     14  C   UNL     1      47.492   2.118   6.559  0.00  0.00    +0.000 A 
ATOM     15  C   UNL     1      47.151   0.923   7.171  0.00  0.00    +0.000 A 
ATOM     16  N   UNL     1      46.260   0.825   8.180  0.00  0.00    +0.000 NA
ATOM     17  C   UNL     1      45.688   1.978   8.600  0.00  0.00    +0.000 A 
ENDBRANCH  11  12
ENDBRANCH   9  11
ENDBRANCH   8   9
ENDBRANCH   5   8
ENDBRANCH   1   2
BRANCH   1  20
ATOM     18  C   UNL     1      48.597   5.609  16.402  0.00  0.00    +0.000 C 
ATOM     19  O   UNL     1      49.350   4.669  16.663  0.00  0.00    +0.000 OA
ATOM     20  N   UNL     1      47.525   5.449  15.565  0.00  0.00    +0.000 N 
ATOM     21  H   UNL     1      46.932   6.240  15.360  0.00  0.00    +0.000 HD
BRANCH  18  29
ATOM     22  C   UNL     1      48.780   8.763  15.049  0.00  0.00    +0.000 A 
ATOM     23  N   UNL     1      48.841  10.081  14.783  0.00  0.00    +0.000 NA
ATOM     24  C   UNL     1      49.013  10.917  15.808  0.00  0.00    +0.000 A 
ATOM     25  N   UNL     1      49.146  10.591  17.093  0.00  0.00    +0.000 NA
ATOM     26  C   UNL     1      49.062   9.270  17.315  0.00  0.00    +0.000 A 
ATOM     27  S   UNL     1      49.206   8.668  18.894  0.00  0.00    +0.000 S 
ATOM     28  C   UNL     1      48.997   7.067  18.360  0.00  0.00    +0.000 A 
ATOM     29  C   UNL     1      48.810   6.951  16.987  0.00  0.00    +0.000 A 
ATOM     30  C   UNL     1      48.866   8.271  16.363  0.00  0.00    +0.000 A 
BRANCH  22  32
ATOM     31  C   UNL     1      49.792   7.684  13.242  0.00  0.00    +0.000 C 
ATOM     32  O   UNL     1      48.600   7.901  13.990  0.00  0.00    +0.000 OA
ENDBRANCH  22  32
ENDBRANCH  18  29
ENDBRANCH   1  20
TORSDOF 8
ENDMDL
MODEL 5
REMARK VINA RESULT:    -7.315      2.528      3.202
REMARK INTER + INTRA:         -12.216
REMARK INTER:                 -10.991
REMARK INTRA:                  -1.225
REMARK UNBOUND:                -1.481
REMARK  Name = 
REMARK  9 active torsions:
REMARK  status: ('A' for Active; 'I' for Inactive)
REMARK    1  A    between atoms: C_1  and  O_2
REMARK    2  A    between atoms: O_2  and  C_3
REMARK    3  A    between atoms: C_10  and  C_11
REMARK    4  A    between atoms: N_13  and  C_14
REMARK    5  A    between atoms: C_14  and  C_15
REMARK    6  A    between atoms: C_18  and  C_19
REMARK    7  A    between atoms: C_19  and  N_20
REMARK    8  A    between atoms: N_20  and  C_21
REMARK    9  A    between atoms: C_21  and  C_22
REMARK                            x       y       z     vdW  Elec       q    Type
REMARK                         _______ _______ _______ _____ _____    ______ ____
ROOT
ATOM      1  C   UNL     1      47.520   4.270  15.231  0.00  0.00    +0.000 C 
ENDROOT
BRANCH   1   2
ATOM      2  C   UNL     1      46.630   4.404  14.012  0.00  0.00    +0.000 A 
ATOM      3  C   UNL     1      46.278   3.280  13.251  0.00  0.00    +0.000 A 
ATOM      4  C   UNL     1      45.349   3.380  12.204  0.00  0.00    +0.000 A 
ATOM      5  C   UNL     1      44.781   4.614  11.857  0.00  0.00    +0.000 A 
ATOM      6  C   UNL     1      45.210   5.753  12.553  0.00  0.00    +0.000 A 
ATOM      7  C   UNL     1      46.120   5.650  13.619  0.00  0.00    +0.000 A 
BRANCH   5   8
ATOM      8  C   UNL     1      43.756   4.722  10.741  0.00  0.00    +0.000 C 
BRANCH   8   9
ATOM      9  N   UNL     1      43.932   3.676   9.733  0.00  0.00    +0.000 NA
ATOM     10  H   UNL     1      43.015   3.338   9.440  0.00  0.00    +0.000 HD
BRANCH   9  11
ATOM     11  C   UNL     1      44.653   4.163   8.552  0.00  0.00    +0.000 C 
BRANCH  11  12
ATOM     12  C   UNL     1      45.603   3.112   8.037  0.00  0.00    +0.000 A 
ATOM     13  C   UNL     1      46.530   3.399   7.029  0.00  0.00    +0.000 A 
ATOM     14  C   UNL     1      47.409   2.413   6.590  0.00  0.00    +0.000 A 
ATOM     15  C   UNL     1      47.328   1.159   7.171  0.00  0.00    +0.000 A 
ATOM     16  N   UNL     1      46.443   0.835   8.137  0.00  0.00    +0.000 NA
ATOM     17  C   UNL     1      45.605   1.817   8.547  0.00  0.00    +0.000 A 
ENDBRANCH  11  12
ENDBRANCH   9  11
ENDBRANCH   8   9
ENDBRANCH   5   8
ENDBRANCH   1   2
BRANCH   1  20
ATOM     18  C   UNL     1      48.643   6.201  16.302  0.00  0.00    +0.000 C 
ATOM     19  O   UNL     1      49.747   5.869  15.865  0.00  0.00    +0.000 OA
ATOM     20  N   UNL     1      47.522   5.462  16.036  0.00  0.00    +0.000 N 
ATOM     21  H   UNL     1      46.629   5.766  16.398  0.00  0.00    +0.000 HD
BRANCH  18  29
ATOM     22  C   UNL     1      47.696   6.679  19.571  0.00  0.00    +0.000 A 
ATOM     23  N   UNL     1      47.409   7.126  20.808  0.00  0.00    +0.000 NA
ATOM     24  C   UNL     1      47.478   8.440  21.028  0.00  0.00    +0.000 A 
ATOM     25  N   UNL     1      47.796   9.383  20.143  0.00  0.00    +0.000 NA
ATOM     26  C   UNL     1      48.091   8.893  18.929  0.00  0.00    +0.000 A 
ATOM     27  S   UNL     1      48.521   9.948  17.673  0.00  0.00    +0.000 S 
ATOM     28  C   UNL     1      48.725   8.658  16.586  0.00  0.00    +0.000 A 
ATOM     29  C   UNL     1      48.480   7.407  17.143  0.00  0.00    +0.000 A 
ATOM     30  C   UNL     1      48.085   7.554  18.542  0.00  0.00    +0.000 A 
BRANCH  22  32
ATOM     31  C   UNL     1      48.810   4.632  19.726  0.00  0.00    +0.000 C 
ATOM     32  O   UNL     1      47.625   5.322  19.345  0.00  0.00    +0.000 OA
ENDBRANCH  22  32
ENDBRANCH  18  29
ENDBRANCH   1  20
TORSDOF 8
ENDMDL
MODEL 6
REMARK VINA RESULT:    -6.884      1.873      2.390
REMARK INTER + INTRA:         -11.585
REMARK INTER:                 -10.383
REMARK INTRA:                  -1.202
REMARK UNBOUND:                -1.481
REMARK  Name = 
REMARK  9 active torsions:
REMARK  status: ('A' for Active; 'I' for Inactive)
REMARK    1  A    between atoms: C_1  and  O_2
REMARK    2  A    between atoms: O_2  and  C_3
REMARK    3  A    between atoms: C_10  and  C_11
REMARK    4  A    between atoms: N_13  and  C_14
REMARK    5  A    between atoms: C_14  and  C_15
REMARK    6  A    between atoms: C_18  and  C_19
REMARK    7  A    between atoms: C_19  and  N_20
REMARK    8  A    between atoms: N_20  and  C_21
REMARK    9  A    between atoms: C_21  and  C_22
REMARK                            x       y       z     vdW  Elec       q    Type
REMARK                         _______ _______ _______ _____ _____    ______ ____
ROOT
ATOM      1  C   UNL     1      48.115   7.584  13.652  0.00  0.00    +0.000 C 
ENDROOT
BRANCH   1   2
ATOM      2  C   UNL     1      47.150   6.507  13.198  0.00  0.00    +0.000 A 
ATOM      3  C   UNL     1      46.398   6.663  12.025  0.00  0.00    +0.000 A 
ATOM      4  C   UNL     1      45.605   5.615  11.532  0.00  0.00    +0.000 A 
ATOM      5  C   UNL     1      45.506   4.398  12.221  0.00  0.00    +0.000 A 
ATOM      6  C   UNL     1      46.178   4.280  13.446  0.00  0.00    +0.000 A 
ATOM      7  C   UNL     1      46.993   5.319  13.927  0.00  0.00    +0.000 A 
BRANCH   5   8
ATOM      8  C   UNL     1      44.669   3.253  11.677  0.00  0.00    +0.000 C 
BRANCH   8   9
ATOM      9  N   UNL     1      44.323   3.447  10.268  0.00  0.00    +0.000 NA
ATOM     10  H   UNL     1      44.923   4.171   9.875  0.00  0.00    +0.000 HD
BRANCH   9  11
ATOM     11  C   UNL     1      44.491   2.218   9.485  0.00  0.00    +0.000 C 
BRANCH  11  12
ATOM     12  C   UNL     1      45.549   2.401   8.427  0.00  0.00    +0.000 A 
ATOM     13  C   UNL     1      46.394   1.351   8.051  0.00  0.00    +0.000 A 
ATOM     14  C   UNL     1      47.346   1.545   7.054  0.00  0.00    +0.000 A 
ATOM     15  C   UNL     1      47.430   2.796   6.465  0.00  0.00    +0.000 A 
ATOM     16  N   UNL     1      46.644   3.839   6.804  0.00  0.00    +0.000 NA
ATOM     17  C   UNL     1      45.725   3.618   7.773  0.00  0.00    +0.000 A 
ENDBRANCH  11  12
ENDBRANCH   9  11
ENDBRANCH   8   9
ENDBRANCH   5   8
ENDBRANCH   1   2
BRANCH   1  20
ATOM     18  C   UNL     1      49.970   7.766  15.283  0.00  0.00    +0.000 C 
ATOM     19  O   UNL     1      49.736   8.957  15.497  0.00  0.00    +0.000 OA
ATOM     20  N   UNL     1      49.222   7.043  14.392  0.00  0.00    +0.000 N 
ATOM     21  H   UNL     1      49.431   6.066  14.247  0.00  0.00    +0.000 HD
BRANCH  18  29
ATOM     22  C   UNL     1      50.129   4.874  17.134  0.00  0.00    +0.000 A 
ATOM     23  N   UNL     1      50.466   3.777  17.838  0.00  0.00    +0.000 NA
ATOM     24  C   UNL     1      51.746   3.623  18.179  0.00  0.00    +0.000 A 
ATOM     25  N   UNL     1      52.752   4.452  17.906  0.00  0.00    +0.000 NA
ATOM     26  C   UNL     1      52.376   5.522  17.188  0.00  0.00    +0.000 A 
ATOM     27  S   UNL     1      53.525   6.688  16.745  0.00  0.00    +0.000 S 
ATOM     28  C   UNL     1      52.353   7.613  15.932  0.00  0.00    +0.000 A 
ATOM     29  C   UNL     1      51.076   7.064  15.972  0.00  0.00    +0.000 A 
ATOM     30  C   UNL     1      51.091   5.821  16.739  0.00  0.00    +0.000 A 
BRANCH  22  32
ATOM     31  C   UNL     1      47.908   4.690  17.830  0.00  0.00    +0.000 C 
ATOM     32  O   UNL     1      48.808   5.032  16.782  0.00  0.00    +0.000 OA
ENDBRANCH  22  32
ENDBRANCH  18  29
ENDBRANCH   1  20
TORSDOF 8
ENDMDL
MODEL 7
REMARK VINA RESULT:    -6.801      2.699      3.810
REMARK INTER + INTRA:         -11.463
REMARK INTER:                 -10.218
REMARK INTRA:                  -1.245
REMARK UNBOUND:                -1.481
REMARK  Name = 
REMARK  9 active torsions:
REMARK  status: ('A' for Active; 'I' for Inactive)
REMARK    1  A    between atoms: C_1  and  O_2
REMARK    2  A    between atoms: O_2  and  C_3
REMARK    3  A    between atoms: C_10  and  C_11
REMARK    4  A    between atoms: N_13  and  C_14
REMARK    5  A    between atoms: C_14  and  C_15
REMARK    6  A    between atoms: C_18  and  C_19
REMARK    7  A    between atoms: C_19  and  N_20
REMARK    8  A    between atoms: N_20  and  C_21
REMARK    9  A    between atoms: C_21  and  C_22
REMARK                            x       y       z     vdW  Elec       q    Type
REMARK                         _______ _______ _______ _____ _____    ______ ____
ROOT
ATOM      1  C   UNL     1      46.445   7.791  13.186  0.00  0.00    +0.000 C 
ENDROOT
BRANCH   1   2
ATOM      2  C   UNL     1      45.874   6.541  12.547  0.00  0.00    +0.000 A 
ATOM      3  C   UNL     1      45.872   5.318  13.235  0.00  0.00    +0.000 A 
ATOM      4  C   UNL     1      45.226   4.192  12.701  0.00  0.00    +0.000 A 
ATOM      5  C   UNL     1      44.604   4.242  11.446  0.00  0.00    +0.000 A 
ATOM      6  C   UNL     1      44.695   5.436  10.716  0.00  0.00    +0.000 A 
ATOM      7  C   UNL     1      45.318   6.572  11.260  0.00  0.00    +0.000 A 
BRANCH   5   8
ATOM      8  C   UNL     1      43.883   3.033  10.877  0.00  0.00    +0.000 C 
BRANCH   8   9
ATOM      9  N   UNL     1      44.115   2.881   9.440  0.00  0.00    +0.000 NA
ATOM     10  H   UNL     1      44.607   3.704   9.093  0.00  0.00    +0.000 HD
BRANCH   9  11
ATOM     11  C   UNL     1      44.914   1.690   9.133  0.00  0.00    +0.000 C 
BRANCH  11  12
ATOM     12  C   UNL     1      45.926   1.990   8.057  0.00  0.00    +0.000 A 
ATOM     13  C   UNL     1      45.968   3.236   7.423  0.00  0.00    +0.000 A 
ATOM     14  C   UNL     1      46.930   3.490   6.449  0.00  0.00    +0.000 A 
ATOM     15  C   UNL     1      47.820   2.479   6.129  0.00  0.00    +0.000 A 
ATOM     16  N   UNL     1      47.808   1.259   6.706  0.00  0.00    +0.000 NA
ATOM     17  C   UNL     1      46.865   1.044   7.654  0.00  0.00    +0.000 A 
ENDBRANCH  11  12
ENDBRANCH   9  11
ENDBRANCH   8   9
ENDBRANCH   5   8
ENDBRANCH   1   2
BRANCH   1  20
ATOM     18  C   UNL     1      48.540   8.871  12.425  0.00  0.00    +0.000 C 
ATOM     19  O   UNL     1      47.930   9.801  11.894  0.00  0.00    +0.000 OA
ATOM     20  N   UNL     1      47.875   7.858  13.063  0.00  0.00    +0.000 N 
ATOM     21  H   UNL     1      48.403   7.116  13.500  0.00  0.00    +0.000 HD
BRANCH  18  29
ATOM     22  C   UNL     1      50.910   7.996  14.754  0.00  0.00    +0.000 A 
ATOM     23  N   UNL     1      52.012   7.659  15.451  0.00  0.00    +0.000 NA
ATOM     24  C   UNL     1      53.192   7.752  14.836  0.00  0.00    +0.000 A 
ATOM     25  N   UNL     1      53.412   8.159  13.587  0.00  0.00    +0.000 NA
ATOM     26  C   UNL     1      52.287   8.466  12.924  0.00  0.00    +0.000 A 
ATOM     27  S   UNL     1      52.373   9.002  11.316  0.00  0.00    +0.000 S 
ATOM     28  C   UNL     1      50.682   9.153  11.220  0.00  0.00    +0.000 A 
ATOM     29  C   UNL     1      50.018   8.801  12.389  0.00  0.00    +0.000 A 
ATOM     30  C   UNL     1      50.983   8.406  13.412  0.00  0.00    +0.000 A 
BRANCH  22  32
ATOM     31  C   UNL     1      49.701   6.969  16.469  0.00  0.00    +0.000 C 
ATOM     32  O   UNL     1      49.692   7.898  15.390  0.00  0.00    +0.000 OA
ENDBRANCH  22  32
ENDBRANCH  18  29
ENDBRANCH   1  20
TORSDOF 8
ENDMDL
MODEL 8
REMARK VINA RESULT:    -6.628      2.262      3.029
REMARK INTER + INTRA:         -11.209
REMARK INTER:                 -10.142
REMARK INTRA:                  -1.067
REMARK UNBOUND:                -1.481
REMARK  Name = 
REMARK  9 active torsions:
REMARK  status: ('A' for Active; 'I' for Inactive)
REMARK    1  A    between atoms: C_1  and  O_2
REMARK    2  A    between atoms: O_2  and  C_3
REMARK    3  A    between atoms: C_10  and  C_11
REMARK    4  A    between atoms: N_13  and  C_14
REMARK    5  A    between atoms: C_14  and  C_15
REMARK    6  A    between atoms: C_18  and  C_19
REMARK    7  A    between atoms: C_19  and  N_20
REMARK    8  A    between atoms: N_20  and  C_21
REMARK    9  A    between atoms: C_21  and  C_22
REMARK                            x       y       z     vdW  Elec       q    Type
REMARK                         _______ _______ _______ _____ _____    ______ ____
ROOT
ATOM      1  C   UNL     1      48.937   7.597  15.240  0.00  0.00    +0.000 C 
ENDROOT
BRANCH   1   2
ATOM      2  C   UNL     1      48.153   7.115  14.036  0.00  0.00    +0.000 A 
ATOM      3  C   UNL     1      47.456   5.898  14.072  0.00  0.00    +0.000 A 
ATOM      4  C   UNL     1      46.623   5.513  13.011  0.00  0.00    +0.000 A 
ATOM      5  C   UNL     1      46.496   6.311  11.865  0.00  0.00    +0.000 A 
ATOM      6  C   UNL     1      47.270   7.477  11.788  0.00  0.00    +0.000 A 
ATOM      7  C   UNL     1      48.085   7.877  12.861  0.00  0.00    +0.000 A 
BRANCH   5   8
ATOM      8  C   UNL     1      45.575   5.910  10.726  0.00  0.00    +0.000 C 
BRANCH   8   9
ATOM      9  N   UNL     1      45.365   4.462  10.673  0.00  0.00    +0.000 NA
ATOM     10  H   UNL     1      44.815   4.176  11.483  0.00  0.00    +0.000 HD
BRANCH   9  11
ATOM     11  C   UNL     1      44.660   4.051   9.454  0.00  0.00    +0.000 C 
BRANCH  11  12
ATOM     12  C   UNL     1      45.539   3.172   8.601  0.00  0.00    +0.000 A 
ATOM     13  C   UNL     1      45.573   1.785   8.776  0.00  0.00    +0.000 A 
ATOM     14  C   UNL     1      46.377   0.998   7.957  0.00  0.00    +0.000 A 
ATOM     15  C   UNL     1      47.137   1.629   6.986  0.00  0.00    +0.000 A 
ATOM     16  N   UNL     1      47.144   2.965   6.789  0.00  0.00    +0.000 NA
ATOM     17  C   UNL     1      46.347   3.702   7.598  0.00  0.00    +0.000 A 
ENDBRANCH  11  12
ENDBRANCH   9  11
ENDBRANCH   8   9
ENDBRANCH   5   8
ENDBRANCH   1   2
BRANCH   1  20
ATOM     18  C   UNL     1      50.367   6.604  17.002  0.00  0.00    +0.000 C 
ATOM     19  O   UNL     1      50.108   7.510  17.797  0.00  0.00    +0.000 OA
ATOM     20  N   UNL     1      49.836   6.593  15.740  0.00  0.00    +0.000 N 
ATOM     21  H   UNL     1      50.058   5.831  15.115  0.00  0.00    +0.000 HD
BRANCH  18  29
ATOM     22  C   UNL     1      49.999   3.188  17.059  0.00  0.00    +0.000 A 
ATOM     23  N   UNL     1      50.129   1.850  17.121  0.00  0.00    +0.000 NA
ATOM     24  C   UNL     1      51.304   1.354  17.510  0.00  0.00    +0.000 A 
ATOM     25  N   UNL     1      52.387   2.046  17.862  0.00  0.00    +0.000 NA
ATOM     26  C   UNL     1      52.220   3.374  17.768  0.00  0.00    +0.000 A 
ATOM     27  S   UNL     1      53.495   4.417  18.173  0.00  0.00    +0.000 S 
ATOM     28  C   UNL     1      52.560   5.789  17.809  0.00  0.00    +0.000 A 
ATOM     29  C   UNL     1      51.274   5.494  17.370  0.00  0.00    +0.000 A 
ATOM     30  C   UNL     1      51.069   4.048  17.363  0.00  0.00    +0.000 A 
BRANCH  22  32
ATOM     31  C   UNL     1      47.680   2.908  17.081  0.00  0.00    +0.000 C 
ATOM     32  O   UNL     1      48.785   3.699  16.656  0.00  0.00    +0.000 OA
ENDBRANCH  22  32
ENDBRANCH  18  29
ENDBRANCH   1  20
TORSDOF 8
ENDMDL
MODEL 9
REMARK VINA RESULT:    -6.478      2.467      3.335
REMARK INTER + INTRA:         -10.989
REMARK INTER:                  -9.535
REMARK INTRA:                  -1.454
REMARK UNBOUND:                -1.481
REMARK  Name = 
REMARK  9 active torsions:
REMARK  status: ('A' for Active; 'I' for Inactive)
REMARK    1  A    between atoms: C_1  and  O_2
REMARK    2  A    between atoms: O_2  and  C_3
REMARK    3  A    between atoms: C_10  and  C_11
REMARK    4  A    between atoms: N_13  and  C_14
REMARK    5  A    between atoms: C_14  and  C_15
REMARK    6  A    between atoms: C_18  and  C_19
REMARK    7  A    between atoms: C_19  and  N_20
REMARK    8  A    between atoms: N_20  and  C_21
REMARK    9  A    between atoms: C_21  and  C_22
REMARK                            x       y       z     vdW  Elec       q    Type
REMARK                         _______ _______ _______ _____ _____    ______ ____
ROOT
ATOM      1  C   UNL     1      47.632   8.749  12.219  0.00  0.00    +0.000 C 
ENDROOT
BRANCH   1   2
ATOM      2  C   UNL     1      46.772   7.503  12.275  0.00  0.00    +0.000 A 
ATOM      3  C   UNL     1      47.313   6.273  12.675  0.00  0.00    +0.000 A 
ATOM      4  C   UNL     1      46.492   5.149  12.856  0.00  0.00    +0.000 A 
ATOM      5  C   UNL     1      45.115   5.210  12.599  0.00  0.00    +0.000 A 
ATOM      6  C   UNL     1      44.593   6.414  12.103  0.00  0.00    +0.000 A 
ATOM      7  C   UNL     1      45.410   7.546  11.946  0.00  0.00    +0.000 A 
BRANCH   5   8
ATOM      8  C   UNL     1      44.220   4.003  12.819  0.00  0.00    +0.000 C 
BRANCH   8   9
ATOM      9  N   UNL     1      44.602   2.875  11.969  0.00  0.00    +0.000 NA
ATOM     10  H   UNL     1      44.389   2.004  12.455  0.00  0.00    +0.000 HD
BRANCH   9  11
ATOM     11  C   UNL     1      43.890   2.884  10.686  0.00  0.00    +0.000 C 
BRANCH  11  12
ATOM     12  C   UNL     1      44.856   3.067   9.542  0.00  0.00    +0.000 A 
ATOM     13  C   UNL     1      45.475   1.972   8.930  0.00  0.00    +0.000 A 
ATOM     14  C   UNL     1      46.344   2.171   7.861  0.00  0.00    +0.000 A 
ATOM     15  C   UNL     1      46.576   3.470   7.440  0.00  0.00    +0.000 A 
ATOM     16  N   UNL     1      46.009   4.555   8.008  0.00  0.00    +0.000 NA
ATOM     17  C   UNL     1      45.164   4.329   9.042  0.00  0.00    +0.000 A 
ENDBRANCH  11  12
ENDBRANCH   9  11
ENDBRANCH   8   9
ENDBRANCH   5   8
ENDBRANCH   1   2
BRANCH   1  20
ATOM     18  C   UNL     1      49.513   9.491  13.651  0.00  0.00    +0.000 C 
ATOM     19  O   UNL     1      48.987  10.584  13.866  0.00  0.00    +0.000 OA
ATOM     20  N   UNL     1      48.908   8.556  12.852  0.00  0.00    +0.000 N 
ATOM     21  H   UNL     1      49.358   7.665  12.704  0.00  0.00    +0.000 HD
BRANCH  18  29
ATOM     22  C   UNL     1      50.576   6.924  15.673  0.00  0.00    +0.000 A 
ATOM     23  N   UNL     1      51.246   6.014  16.405  0.00  0.00    +0.000 NA
ATOM     24  C   UNL     1      52.555   6.197  16.583  0.00  0.00    +0.000 A 
ATOM     25  N   UNL     1      53.292   7.204  16.118  0.00  0.00    +0.000 NA
ATOM     26  C   UNL     1      52.590   8.077  15.380  0.00  0.00    +0.000 A 
ATOM     27  S   UNL     1      53.364   9.425  14.701  0.00  0.00    +0.000 S 
ATOM     28  C   UNL     1      51.918   9.963  13.986  0.00  0.00    +0.000 A 
ATOM     29  C   UNL     1      50.826   9.140  14.236  0.00  0.00    +0.000 A 
ATOM     30  C   UNL     1      51.228   8.021  15.084  0.00  0.00    +0.000 A 
BRANCH  22  32
ATOM     31  C   UNL     1      48.604   6.064  16.581  0.00  0.00    +0.000 C 
ATOM     32  O   UNL     1      49.225   6.733  15.489  0.00  0.00    +0.000 OA
ENDBRANCH  22  32
ENDBRANCH  18  29
ENDBRANCH   1  20
TORSDOF 8
ENDMDL
