MODEL 1
REMARK VINA RESULT:    -6.987      0.000      0.000
REMARK INTER + INTRA:          -9.143
REMARK INTER:                  -8.825
REMARK INTRA:                  -0.318
REMARK UNBOUND:                -0.318
REMARK  Name = 
REMARK  5 active torsions:
REMARK  status: ('A' for Active; 'I' for Inactive)
REMARK    1  A    between atoms: N_1  and  C_2
REMARK    2  A    between atoms: C_2  and  C_3
REMARK    3  A    between atoms: C_6  and  S_7
REMARK    4  A    between atoms: S_7  and  C_8
REMARK    5  A    between atoms: C_8  and  C_9
REMARK                            x       y       z     vdW  Elec       q    Type
REMARK                         _______ _______ _______ _____ _____    ______ ____
ROOT
ATOM      1  C   UNL     1      46.630   2.356   7.499  0.00  0.00    +0.000 A 
ATOM      2  C   UNL     1      45.909   1.615   8.442  0.00  0.00    +0.000 A 
ATOM      3  C   UNL     1      45.004   2.263   9.287  0.00  0.00    +0.000 A 
ATOM      4  C   UNL     1      44.824   3.636   9.162  0.00  0.00    +0.000 A 
ATOM      5  N   UNL     1      45.508   4.377   8.264  0.00  0.00    +0.000 NA
ATOM      6  C   UNL     1      46.393   3.725   7.472  0.00  0.00    +0.000 A 
ENDROOT
BRANCH   1   7
ATOM      7  C   UNL     1      47.626   1.723   6.568  0.00  0.00    +0.000 C 
BRANCH   7   8
ATOM      8  N   UNL     1      48.713   2.637   6.239  0.00  0.00    +0.000 NA
ATOM      9  H   UNL     1      49.480   2.110   5.824  0.00  0.00    +0.000 HD
ATOM     10  H   UNL     1      49.079   3.043   7.099  0.00  0.00    +0.000 HD
ENDBRANCH   7   8
ENDBRANCH   1   7
BRANCH   4  11
ATOM     11  S   UNL     1      43.765   4.515  10.297  0.00  0.00    +0.000 S 
BRANCH  11  12
ATOM     12  C   UNL     1      44.230   3.737  11.900  0.00  0.00    +0.000 C 
BRANCH  12  13
ATOM     13  C   UNL     1      45.061   4.692  12.813  0.00  0.00    +0.000 C 
ATOM     14  C   UNL     1      45.754   5.819  12.016  0.00  0.00    +0.000 C 
ATOM     15  C   UNL     1      46.619   6.710  12.905  0.00  0.00    +0.000 C 
ATOM     16  C   UNL     1      47.601   5.866  13.704  0.00  0.00    +0.000 C 
ATOM     17  C   UNL     1      46.863   4.772  14.469  0.00  0.00    +0.000 C 
ATOM     18  N   UNL     1      46.076   3.921  13.570  0.00  0.00    +0.000 NA
ATOM     19  H   UNL     1      45.608   3.205  14.128  0.00  0.00    +0.000 HD
ENDBRANCH  12  13
ENDBRANCH  11  12
ENDBRANCH   4  11
TORSDOF 5
ENDMDL
MODEL 2
REMARK VINA RESULT:    -6.665      1.706      2.309
REMARK INTER + INTRA:          -8.736
REMARK INTER:                  -8.506
REMARK INTRA:                  -0.230
REMARK UNBOUND:                -0.318
REMARK  Name = 
REMARK  5 active torsions:
REMARK  status: ('A' for Active; 'I' for Inactive)
REMARK    1  A    between atoms: N_1  and  C_2
REMARK    2  A    between atoms: C_2  and  C_3
REMARK    3  A    between atoms: C_6  and  S_7
REMARK    4  A    between atoms: S_7  and  C_8
REMARK    5  A    between atoms: C_8  and  C_9
REMARK                            x       y       z     vdW  Elec       q    Type
REMARK                         _______ _______ _______ _____ _____    ______ ____
ROOT
ATOM      1  C   UNL     1      46.520   2.390   7.469  0.00  0.00    +0.000 A 
ATOM      2  C   UNL     1      45.809   1.660   8.428  0.00  0.00    +0.000 A 
ATOM      3  C   UNL     1      44.943   2.323   9.301  0.00  0.00    +0.000 A 
ATOM      4  C   UNL     1      44.789   3.700   9.186  0.00  0.00    +0.000 A 
ATOM      5  N   UNL     1      45.463   4.431   8.273  0.00  0.00    +0.000 NA
ATOM      6  C   UNL     1      46.312   3.764   7.454  0.00  0.00    +0.000 A 
ENDROOT
BRANCH   1   7
ATOM      7  C   UNL     1      47.475   1.740   6.508  0.00  0.00    +0.000 C 
BRANCH   7   8
ATOM      8  N   UNL     1      48.707   2.507   6.370  0.00  0.00    +0.000 NA
ATOM      9  H   UNL     1      49.501   1.910   6.597  0.00  0.00    +0.000 HD
ATOM     10  H   UNL     1      48.710   3.258   7.059  0.00  0.00    +0.000 HD
ENDBRANCH   7   8
ENDBRANCH   1   7
BRANCH   4  11
ATOM     11  S   UNL     1      43.782   4.596  10.354  0.00  0.00    +0.000 S 
BRANCH  11  12
ATOM     12  C   UNL     1      45.032   5.069  11.621  0.00  0.00    +0.000 C 
BRANCH  12  13
ATOM     13  C   UNL     1      45.418   6.579  11.550  0.00  0.00    +0.000 C 
ATOM     14  C   UNL     1      46.205   7.048  12.794  0.00  0.00    +0.000 C 
ATOM     15  C   UNL     1      46.521   8.543  12.751  0.00  0.00    +0.000 C 
ATOM     16  C   UNL     1      45.249   9.346  12.523  0.00  0.00    +0.000 C 
ATOM     17  C   UNL     1      44.516   8.840  11.285  0.00  0.00    +0.000 C 
ATOM     18  N   UNL     1      44.202   7.411  11.388  0.00  0.00    +0.000 NA
ATOM     19  H   UNL     1      43.708   7.126  10.541  0.00  0.00    +0.000 HD
ENDBRANCH  12  13
ENDBRANCH  11  12
ENDBRANCH   4  11
TORSDOF 5
ENDMDL
MODEL 3
REMARK VINA RESULT:    -6.642      1.347      6.071
REMARK INTER + INTRA:          -8.707
REMARK INTER:                  -8.343
REMARK INTRA:                  -0.364
REMARK UNBOUND:                -0.318
REMARK  Name = 
REMARK  5 active torsions:
REMARK  status: ('A' for Active; 'I' for Inactive)
REMARK    1  A    between atoms: N_1  and  C_2
REMARK    2  A    between atoms: C_2  and  C_3
REMARK    3  A    between atoms: C_6  and  S_7
REMARK    4  A    between atoms: S_7  and  C_8
REMARK    5  A    between atoms: C_8  and  C_9
REMARK                            x       y       z     vdW  Elec       q    Type
REMARK                         _______ _______ _______ _____ _____    ______ ____
ROOT
ATOM      1  C   UNL     1      47.155   5.706  13.506  0.00  0.00    +0.000 A 
ATOM      2  C   UNL     1      46.671   6.221  12.299  0.00  0.00    +0.000 A 
ATOM      3  C   UNL     1      45.708   5.511  11.578  0.00  0.00    +0.000 A 
ATOM      4  C   UNL     1      45.233   4.307  12.087  0.00  0.00    +0.000 A 
ATOM      5  N   UNL     1      45.683   3.783  13.248  0.00  0.00    +0.000 NA
ATOM      6  C   UNL     1      46.632   4.485  13.914  0.00  0.00    +0.000 A 
ENDROOT
BRANCH   1   7
ATOM      7  C   UNL     1      48.198   6.414  14.324  0.00  0.00    +0.000 C 
BRANCH   7   8
ATOM      8  N   UNL     1      49.372   6.749  13.528  0.00  0.00    +0.000 NA
ATOM      9  H   UNL     1      49.617   5.952  12.941  0.00  0.00    +0.000 HD
ATOM     10  H   UNL     1      50.166   6.897  14.150  0.00  0.00    +0.000 HD
ENDBRANCH   7   8
ENDBRANCH   1   7
BRANCH   4  11
ATOM     11  S   UNL     1      44.090   3.316  11.142  0.00  0.00    +0.000 S 
BRANCH  11  12
ATOM     12  C   UNL     1      44.138   4.167   9.510  0.00  0.00    +0.000 C 
BRANCH  12  13
ATOM     13  C   UNL     1      44.871   3.329   8.417  0.00  0.00    +0.000 C 
ATOM     14  C   UNL     1      45.542   2.063   8.991  0.00  0.00    +0.000 C 
ATOM     15  C   UNL     1      46.315   1.283   7.929  0.00  0.00    +0.000 C 
ATOM     16  C   UNL     1      47.299   2.197   7.213  0.00  0.00    +0.000 C 
ATOM     17  C   UNL     1      46.581   3.427   6.668  0.00  0.00    +0.000 C 
ATOM     18  N   UNL     1      45.886   4.162   7.729  0.00  0.00    +0.000 NA
ATOM     19  H   UNL     1      45.429   4.976   7.314  0.00  0.00    +0.000 HD
ENDBRANCH  12  13
ENDBRANCH  11  12
ENDBRANCH   4  11
TORSDOF 5
ENDMDL
MODEL 4
REMARK VINA RESULT:    -6.086      2.148      6.397
REMARK INTER + INTRA:          -8.005
REMARK INTER:                  -7.721
REMARK INTRA:                  -0.284
REMARK UNBOUND:                -0.318
REMARK  Name = 
REMARK  5 active torsions:
REMARK  status: ('A' for Active; 'I' for Inactive)
REMARK    1  A    between atoms: N_1  and  C_2
REMARK    2  A    between atoms: C_2  and  C_3
REMARK    3  A    between atoms: C_6  and  S_7
REMARK    4  A    between atoms: S_7  and  C_8
REMARK    5  A    between atoms: C_8  and  C_9
REMARK                            x       y       z     vdW  Elec       q    Type
REMARK                         _______ _______ _______ _____ _____    ______ ____
ROOT
ATOM      1  C   UNL     1      45.675   7.797  12.321  0.00  0.00    +0.000 A 
ATOM      2  C   UNL     1      46.432   6.784  12.918  0.00  0.00    +0.000 A 
ATOM      3  C   UNL     1      46.243   5.456  12.528  0.00  0.00    +0.000 A 
ATOM      4  C   UNL     1      45.314   5.168  11.534  0.00  0.00    +0.000 A 
ATOM      5  N   UNL     1      44.568   6.124  10.941  0.00  0.00    +0.000 NA
ATOM      6  C   UNL     1      44.758   7.400  11.355  0.00  0.00    +0.000 A 
ENDROOT
BRANCH   1   7
ATOM      7  C   UNL     1      45.822   9.243  12.702  0.00  0.00    +0.000 C 
BRANCH   7   8
ATOM      8  N   UNL     1      44.549   9.951  12.634  0.00  0.00    +0.000 NA
ATOM      9  H   UNL     1      44.091   9.734  11.750  0.00  0.00    +0.000 HD
ATOM     10  H   UNL     1      44.726  10.955  12.624  0.00  0.00    +0.000 HD
ENDBRANCH   7   8
ENDBRANCH   1   7
BRANCH   4  11
ATOM     11  S   UNL     1      44.962   3.477  11.089  0.00  0.00    +0.000 S 
BRANCH  11  12
ATOM     12  C   UNL     1      44.157   3.695   9.448  0.00  0.00    +0.000 C 
BRANCH  12  13
ATOM     13  C   UNL     1      44.986   3.070   8.283  0.00  0.00    +0.000 C 
ATOM     14  C   UNL     1      45.814   1.847   8.736  0.00  0.00    +0.000 C 
ATOM     15  C   UNL     1      46.676   1.281   7.609  0.00  0.00    +0.000 C 
ATOM     16  C   UNL     1      47.534   2.378   6.997  0.00  0.00    +0.000 C 
ATOM     17  C   UNL     1      46.666   3.556   6.569  0.00  0.00    +0.000 C 
ATOM     18  N   UNL     1      45.886   4.089   7.691  0.00  0.00    +0.000 NA
ATOM     19  H   UNL     1      45.329   4.875   7.355  0.00  0.00    +0.000 HD
ENDBRANCH  12  13
ENDBRANCH  11  12
ENDBRANCH   4  11
TORSDOF 5
ENDMDL
MODEL 5
REMARK VINA RESULT:    -5.648      2.121      6.092
REMARK INTER + INTRA:          -7.451
REMARK INTER:                  -7.104
REMARK INTRA:                  -0.347
REMARK UNBOUND:                -0.318
REMARK  Name = 
REMARK  5 active torsions:
REMARK  status: ('A' for Active; 'I' for Inactive)
REMARK    1  A    between atoms: N_1  and  C_2
REMARK    2  A    between atoms: C_2  and  C_3
REMARK    3  A    between atoms: C_6  and  S_7
REMARK    4  A    between atoms: S_7  and  C_8
REMARK    5  A    between atoms: C_8  and  C_9
REMARK                            x       y       z     vdW  Elec       q    Type
REMARK                         _______ _______ _______ _____ _____    ______ ____
ROOT
ATOM      1  C   UNL     1      45.098   7.432  12.225  0.00  0.00    +0.000 A 
ATOM      2  C   UNL     1      44.095   6.941  11.383  0.00  0.00    +0.000 A 
ATOM      3  C   UNL     1      43.899   5.562  11.268  0.00  0.00    +0.000 A 
ATOM      4  C   UNL     1      44.697   4.701  12.012  0.00  0.00    +0.000 A 
ATOM      5  N   UNL     1      45.675   5.145  12.831  0.00  0.00    +0.000 NA
ATOM      6  C   UNL     1      45.855   6.485  12.906  0.00  0.00    +0.000 A 
ENDROOT
BRANCH   1   7
ATOM      7  C   UNL     1      45.367   8.901  12.386  0.00  0.00    +0.000 C 
BRANCH   7   8
ATOM      8  N   UNL     1      46.785   9.209  12.242  0.00  0.00    +0.000 NA
ATOM      9  H   UNL     1      47.007  10.033  12.798  0.00  0.00    +0.000 HD
ATOM     10  H   UNL     1      46.975   9.460  11.273  0.00  0.00    +0.000 HD
ENDBRANCH   7   8
ENDBRANCH   1   7
BRANCH   4  11
ATOM     11  S   UNL     1      44.555   2.935  11.806  0.00  0.00    +0.000 S 
BRANCH  11  12
ATOM     12  C   UNL     1      44.175   2.810  10.008  0.00  0.00    +0.000 C 
BRANCH  12  13
ATOM     13  C   UNL     1      45.460   2.738   9.126  0.00  0.00    +0.000 C 
ATOM     14  C   UNL     1      45.440   3.758   7.966  0.00  0.00    +0.000 C 
ATOM     15  C   UNL     1      46.668   3.636   7.065  0.00  0.00    +0.000 C 
ATOM     16  C   UNL     1      46.830   2.202   6.584  0.00  0.00    +0.000 C 
ATOM     17  C   UNL     1      46.844   1.242   7.769  0.00  0.00    +0.000 C 
ATOM     18  N   UNL     1      45.630   1.369   8.582  0.00  0.00    +0.000 NA
ATOM     19  H   UNL     1      45.686   0.704   9.354  0.00  0.00    +0.000 HD
ENDBRANCH  12  13
ENDBRANCH  11  12
ENDBRANCH   4  11
TORSDOF 5
ENDMDL
MODEL 6
REMARK VINA RESULT:    -5.351      3.581      5.678
REMARK INTER + INTRA:          -7.076
REMARK INTER:                  -6.875
REMARK INTRA:                  -0.201
REMARK UNBOUND:                -0.318
REMARK  Name = 
REMARK  5 active torsions:
REMARK  status: ('A' for Active; 'I' for Inactive)
REMARK    1  A    between atoms: N_1  and  C_2
REMARK    2  A    between atoms: C_2  and  C_3
REMARK    3  A    between atoms: C_6  and  S_7
REMARK    4  A    between atoms: S_7  and  C_8
REMARK    5  A    between atoms: C_8  and  C_9
REMARK                            x       y       z     vdW  Elec       q    Type
REMARK                         _______ _______ _______ _____ _____    ______ ____
ROOT
ATOM      1  C   UNL     1      45.362   4.708  11.424  0.00  0.00    +0.000 A 
ATOM      2  C   UNL     1      46.095   5.854  11.749  0.00  0.00    +0.000 A 
ATOM      3  C   UNL     1      46.765   5.925  12.973  0.00  0.00    +0.000 A 
ATOM      4  C   UNL     1      46.705   4.841  13.841  0.00  0.00    +0.000 A 
ATOM      5  N   UNL     1      46.003   3.722  13.556  0.00  0.00    +0.000 NA
ATOM      6  C   UNL     1      45.348   3.691  12.371  0.00  0.00    +0.000 A 
ENDROOT
BRANCH   1   7
ATOM      7  C   UNL     1      44.611   4.572  10.129  0.00  0.00    +0.000 C 
BRANCH   7   8
ATOM      8  N   UNL     1      45.331   5.190   9.021  0.00  0.00    +0.000 NA
ATOM      9  H   UNL     1      46.167   4.643   8.819  0.00  0.00    +0.000 HD
ATOM     10  H   UNL     1      45.658   6.112   9.309  0.00  0.00    +0.000 HD
ENDBRANCH   7   8
ENDBRANCH   1   7
BRANCH   4  11
ATOM     11  S   UNL     1      47.449   4.937  15.459  0.00  0.00    +0.000 S 
BRANCH  11  12
ATOM     12  C   UNL     1      47.601   3.154  15.893  0.00  0.00    +0.000 C 
BRANCH  12  13
ATOM     13  C   UNL     1      48.766   2.876  16.893  0.00  0.00    +0.000 C 
ATOM     14  C   UNL     1      49.454   4.171  17.377  0.00  0.00    +0.000 C 
ATOM     15  C   UNL     1      50.637   3.889  18.301  0.00  0.00    +0.000 C 
ATOM     16  C   UNL     1      51.606   2.921  17.640  0.00  0.00    +0.000 C 
ATOM     17  C   UNL     1      50.874   1.664  17.184  0.00  0.00    +0.000 C 
ATOM     18  N   UNL     1      49.771   1.981  16.270  0.00  0.00    +0.000 NA
ATOM     19  H   UNL     1      49.320   1.109  15.991  0.00  0.00    +0.000 HD
ENDBRANCH  12  13
ENDBRANCH  11  12
ENDBRANCH   4  11
TORSDOF 5
ENDMDL
MODEL 7
REMARK VINA RESULT:    -5.122      2.124      6.806
REMARK INTER + INTRA:          -6.787
REMARK INTER:                  -6.553
REMARK INTRA:                  -0.235
REMARK UNBOUND:                -0.318
REMARK  Name = 
REMARK  5 active torsions:
REMARK  status: ('A' for Active; 'I' for Inactive)
REMARK    1  A    between atoms: N_1  and  C_2
REMARK    2  A    between atoms: C_2  and  C_3
REMARK    3  A    between atoms: C_6  and  S_7
REMARK    4  A    between atoms: S_7  and  C_8
REMARK    5  A    between atoms: C_8  and  C_9
REMARK                            x       y       z     vdW  Elec       q    Type
REMARK                         _______ _______ _______ _____ _____    ______ ____
ROOT
ATOM      1  C   UNL     1      47.680   4.811  15.799  0.00  0.00    +0.000 A 
ATOM      2  C   UNL     1      48.275   6.006  15.380  0.00  0.00    +0.000 A 
ATOM      3  C   UNL     1      47.964   6.530  14.123  0.00  0.00    +0.000 A 
ATOM      4  C   UNL     1      47.051   5.860  13.316  0.00  0.00    +0.000 A 
ATOM      5  N   UNL     1      46.464   4.704  13.693  0.00  0.00    +0.000 NA
ATOM      6  C   UNL     1      46.800   4.209  14.908  0.00  0.00    +0.000 A 
ENDROOT
BRANCH   1   7
ATOM      7  C   UNL     1      47.979   4.189  17.134  0.00  0.00    +0.000 C 
BRANCH   7   8
ATOM      8  N   UNL     1      46.856   4.325  18.055  0.00  0.00    +0.000 NA
ATOM      9  H   UNL     1      46.244   5.072  17.730  0.00  0.00    +0.000 HD
ATOM     10  H   UNL     1      47.206   4.620  18.966  0.00  0.00    +0.000 HD
ENDBRANCH   7   8
ENDBRANCH   1   7
BRANCH   4  11
ATOM     11  S   UNL     1      46.716   6.435  11.661  0.00  0.00    +0.000 S 
BRANCH  11  12
ATOM     12  C   UNL     1      44.903   6.141  11.537  0.00  0.00    +0.000 C 
BRANCH  12  13
ATOM     13  C   UNL     1      44.542   5.042  10.490  0.00  0.00    +0.000 C 
ATOM     14  C   UNL     1      44.564   3.620  11.092  0.00  0.00    +0.000 C 
ATOM     15  C   UNL     1      44.277   2.544  10.047  0.00  0.00    +0.000 C 
ATOM     16  C   UNL     1      45.217   2.693   8.861  0.00  0.00    +0.000 C 
ATOM     17  C   UNL     1      45.154   4.114   8.308  0.00  0.00    +0.000 C 
ATOM     18  N   UNL     1      45.472   5.109   9.337  0.00  0.00    +0.000 NA
ATOM     19  H   UNL     1      45.422   6.038   8.917  0.00  0.00    +0.000 HD
ENDBRANCH  12  13
ENDBRANCH  11  12
ENDBRANCH   4  11
TORSDOF 5
ENDMDL
MODEL 8
REMARK VINA RESULT:    -5.069      3.700      5.133
REMARK INTER + INTRA:          -6.720
REMARK INTER:                  -6.206
REMARK INTRA:                  -0.514
REMARK UNBOUND:                -0.318
REMARK  Name = 
REMARK  5 active torsions:
REMARK  status: ('A' for Active; 'I' for Inactive)
REMARK    1  A    between atoms: N_1  and  C_2
REMARK    2  A    between atoms: C_2  and  C_3
REMARK    3  A    between atoms: C_6  and  S_7
REMARK    4  A    between atoms: S_7  and  C_8
REMARK    5  A    between atoms: C_8  and  C_9
REMARK                            x       y       z     vdW  Elec       q    Type
REMARK                         _______ _______ _______ _____ _____    ______ ____
ROOT
ATOM      1  C   UNL     1      44.704   4.192  11.500  0.00  0.00    +0.000 A 
ATOM      2  C   UNL     1      45.176   5.181  10.630  0.00  0.00    +0.000 A 
ATOM      3  C   UNL     1      45.897   6.264  11.139  0.00  0.00    +0.000 A 
ATOM      4  C   UNL     1      46.149   6.328  12.505  0.00  0.00    +0.000 A 
ATOM      5  N   UNL     1      45.704   5.390  13.368  0.00  0.00    +0.000 NA
ATOM      6  C   UNL     1      44.990   4.363  12.849  0.00  0.00    +0.000 A 
ENDROOT
BRANCH   1   7
ATOM      7  C   UNL     1      43.913   3.008  11.019  0.00  0.00    +0.000 C 
BRANCH   7   8
ATOM      8  N   UNL     1      43.405   2.212  12.130  0.00  0.00    +0.000 NA
ATOM      9  H   UNL     1      42.391   2.307  12.174  0.00  0.00    +0.000 HD
ATOM     10  H   UNL     1      43.765   2.592  13.004  0.00  0.00    +0.000 HD
ENDBRANCH   7   8
ENDBRANCH   1   7
BRANCH   4  11
ATOM     11  S   UNL     1      46.966   7.750  13.206  0.00  0.00    +0.000 S 
BRANCH  11  12
ATOM     12  C   UNL     1      48.568   7.018  13.744  0.00  0.00    +0.000 C 
BRANCH  12  13
ATOM     13  C   UNL     1      48.577   6.636  15.257  0.00  0.00    +0.000 C 
ATOM     14  C   UNL     1      49.995   6.669  15.867  0.00  0.00    +0.000 C 
ATOM     15  C   UNL     1      50.007   6.229  17.331  0.00  0.00    +0.000 C 
ATOM     16  C   UNL     1      49.333   4.873  17.481  0.00  0.00    +0.000 C 
ATOM     17  C   UNL     1      47.939   4.901  16.862  0.00  0.00    +0.000 C 
ATOM     18  N   UNL     1      47.982   5.292  15.449  0.00  0.00    +0.000 NA
ATOM     19  H   UNL     1      47.029   5.289  15.083  0.00  0.00    +0.000 HD
ENDBRANCH  12  13
ENDBRANCH  11  12
ENDBRANCH   4  11
TORSDOF 5
ENDMDL
MODEL 9
REMARK VINA RESULT:    -4.901      3.173      7.559
REMARK INTER + INTRA:          -6.508
REMARK INTER:                  -6.305
REMARK INTRA:                  -0.203
REMARK UNBOUND:                -0.318
REMARK  Name = 
REMARK  5 active torsions:
REMARK  status: ('A' for Active; 'I' for Inactive)
REMARK    1  A    between atoms: N_1  and  C_2
REMARK    2  A    between atoms: C_2  and  C_3
REMARK    3  A    between atoms: C_6  and  S_7
REMARK    4  A    between atoms: S_7  and  C_8
REMARK    5  A    between atoms: C_8  and  C_9
REMARK                            x       y       z     vdW  Elec       q    Type
REMARK                         _______ _______ _______ _____ _____    ______ ____
ROOT
ATOM      1  C   UNL     1      48.686   4.501  17.578  0.00  0.00    +0.000 A 
ATOM      2  C   UNL     1      47.625   3.826  16.963  0.00  0.00    +0.000 A 
ATOM      3  C   UNL     1      47.152   4.263  15.723  0.00  0.00    +0.000 A 
ATOM      4  C   UNL     1      47.760   5.354  15.113  0.00  0.00    +0.000 A 
ATOM      5  N   UNL     1      48.783   6.026  15.683  0.00  0.00    +0.000 NA
ATOM      6  C   UNL     1      49.207   5.593  16.894  0.00  0.00    +0.000 A 
ENDROOT
BRANCH   1   7
ATOM      7  C   UNL     1      49.234   4.088  18.915  0.00  0.00    +0.000 C 
BRANCH   7   8
ATOM      8  N   UNL     1      48.323   3.195  19.619  0.00  0.00    +0.000 NA
ATOM      9  H   UNL     1      47.798   2.647  18.939  0.00  0.00    +0.000 HD
ATOM     10  H   UNL     1      47.636   3.752  20.126  0.00  0.00    +0.000 HD
ENDBRANCH   7   8
ENDBRANCH   1   7
BRANCH   4  11
ATOM     11  S   UNL     1      47.112   6.012  13.586  0.00  0.00    +0.000 S 
BRANCH  11  12
ATOM     12  C   UNL     1      45.632   4.946  13.334  0.00  0.00    +0.000 C 
BRANCH  12  13
ATOM     13  C   UNL     1      45.536   4.385  11.881  0.00  0.00    +0.000 C 
ATOM     14  C   UNL     1      45.573   5.500  10.812  0.00  0.00    +0.000 C 
ATOM     15  C   UNL     1      45.409   4.951   9.396  0.00  0.00    +0.000 C 
ATOM     16  C   UNL     1      44.159   4.090   9.303  0.00  0.00    +0.000 C 
ATOM     17  C   UNL     1      44.177   3.009  10.379  0.00  0.00    +0.000 C 
ATOM     18  N   UNL     1      44.298   3.585  11.723  0.00  0.00    +0.000 NA
ATOM     19  H   UNL     1      44.299   2.824  12.403  0.00  0.00    +0.000 HD
ENDBRANCH  12  13
ENDBRANCH  11  12
ENDBRANCH   4  11
TORSDOF 5
ENDMDL
