MODEL 1
REMARK VINA RESULT:    -7.604      0.000      0.000
REMARK INTER + INTRA:          -9.955
REMARK INTER:                  -9.382
REMARK INTRA:                  -0.572
REMARK UNBOUND:                -0.572
REMARK  Name = 
REMARK  5 active torsions:
REMARK  status: ('A' for Active; 'I' for Inactive)
REMARK    1  A    between atoms: C_1  and  C_2
REMARK    2  A    between atoms: C_2  and  C_3
REMARK    3  A    between atoms: C_2  and  C_14
REMARK    4  A    between atoms: C_3  and  N_4
REMARK    5  A    between atoms: C_8  and  C_9
REMARK                            x       y       z     vdW  Elec       q    Type
REMARK                         _______ _______ _______ _____ _____    ______ ____
ROOT
ATOM      1  N   UNL     1      43.930   3.244  10.376  0.00  0.00    +0.000 N 
ATOM      2  C   UNL     1      44.843   3.053   9.327  0.00  0.00    +0.000 A 
ATOM      3  C   UNL     1      45.246   1.753   8.985  0.00  0.00    +0.000 A 
ATOM      4  N   UNL     1      46.125   1.458   7.988  0.00  0.00    +0.000 NA
ATOM      5  C   UNL     1      46.610   2.550   7.339  0.00  0.00    +0.000 A 
ATOM      6  C   UNL     1      46.236   3.843   7.671  0.00  0.00    +0.000 A 
ATOM      7  N   UNL     1      45.358   4.113   8.669  0.00  0.00    +0.000 NA
ATOM      8  H   UNL     1      43.093   2.698  10.188  0.00  0.00    +0.000 HD
ENDROOT
BRANCH   5   9
ATOM      9  C   UNL     1      47.575   2.334   6.227  0.00  0.00    +0.000 C 
ATOM     10  N   UNL     1      47.478   3.203   5.175  0.00  0.00    +0.000 N 
ATOM     11  O   UNL     1      48.405   1.433   6.246  0.00  0.00    +0.000 OA
ATOM     12  H   UNL     1      46.776   3.934   5.185  0.00  0.00    +0.000 HD
ATOM     13  H   UNL     1      48.104   3.100   4.389  0.00  0.00    +0.000 HD
ENDBRANCH   5   9
BRANCH   1  14
ATOM     14  C   UNL     1      43.589   4.643  10.618  0.00  0.00    +0.000 C 
BRANCH  14  16
ATOM     15  C   UNL     1      42.873   5.225  13.020  0.00  0.00    +0.000 C 
ATOM     16  C   UNL     1      43.966   4.943  12.040  0.00  0.00    +0.000 C 
BRANCH  16  17
ATOM     17  C   UNL     1      45.329   5.430  12.298  0.00  0.00    +0.000 A 
ATOM     18  C   UNL     1      45.954   6.312  11.406  0.00  0.00    +0.000 A 
ATOM     19  C   UNL     1      47.208   6.849  11.705  0.00  0.00    +0.000 A 
ATOM     20  C   UNL     1      47.844   6.515  12.898  0.00  0.00    +0.000 A 
ATOM     21  C   UNL     1      47.240   5.622  13.780  0.00  0.00    +0.000 A 
ATOM     22  C   UNL     1      45.994   5.074  13.476  0.00  0.00    +0.000 A 
ENDBRANCH  16  17
ENDBRANCH  14  16
ENDBRANCH   1  14
TORSDOF 4
ENDMDL
MODEL 2
REMARK VINA RESULT:    -7.052      1.270      1.855
REMARK INTER + INTRA:          -9.273
REMARK INTER:                  -9.039
REMARK INTRA:                  -0.234
REMARK UNBOUND:                -0.572
REMARK  Name = 
REMARK  5 active torsions:
REMARK  status: ('A' for Active; 'I' for Inactive)
REMARK    1  A    between atoms: C_1  and  C_2
REMARK    2  A    between atoms: C_2  and  C_3
REMARK    3  A    between atoms: C_2  and  C_14
REMARK    4  A    between atoms: C_3  and  N_4
REMARK    5  A    between atoms: C_8  and  C_9
REMARK                            x       y       z     vdW  Elec       q    Type
REMARK                         _______ _______ _______ _____ _____    ______ ____
ROOT
ATOM      1  N   UNL     1      44.342   5.161   9.699  0.00  0.00    +0.000 N 
ATOM      2  C   UNL     1      45.023   4.090   9.098  0.00  0.00    +0.000 A 
ATOM      3  C   UNL     1      45.978   4.346   8.102  0.00  0.00    +0.000 A 
ATOM      4  N   UNL     1      46.691   3.383   7.457  0.00  0.00    +0.000 NA
ATOM      5  C   UNL     1      46.391   2.116   7.849  0.00  0.00    +0.000 A 
ATOM      6  C   UNL     1      45.440   1.842   8.819  0.00  0.00    +0.000 A 
ATOM      7  N   UNL     1      44.741   2.818   9.450  0.00  0.00    +0.000 NA
ATOM      8  H   UNL     1      45.022   5.811  10.081  0.00  0.00    +0.000 HD
ENDROOT
BRANCH   5   9
ATOM      9  C   UNL     1      47.122   0.991   7.206  0.00  0.00    +0.000 C 
ATOM     10  N   UNL     1      46.781  -0.263   7.631  0.00  0.00    +0.000 N 
ATOM     11  O   UNL     1      47.979   1.172   6.350  0.00  0.00    +0.000 OA
ATOM     12  H   UNL     1      46.072  -0.380   8.347  0.00  0.00    +0.000 HD
ATOM     13  H   UNL     1      47.249  -1.065   7.234  0.00  0.00    +0.000 HD
ENDBRANCH   5   9
BRANCH   1  14
ATOM     14  C   UNL     1      43.386   4.753  10.725  0.00  0.00    +0.000 C 
BRANCH  14  16
ATOM     15  C   UNL     1      43.397   4.376  13.271  0.00  0.00    +0.000 C 
ATOM     16  C   UNL     1      44.077   4.906  12.049  0.00  0.00    +0.000 C 
BRANCH  16  17
ATOM     17  C   UNL     1      45.094   5.961  12.172  0.00  0.00    +0.000 A 
ATOM     18  C   UNL     1      44.723   7.312  12.197  0.00  0.00    +0.000 A 
ATOM     19  C   UNL     1      45.681   8.304  12.413  0.00  0.00    +0.000 A 
ATOM     20  C   UNL     1      47.014   7.955  12.613  0.00  0.00    +0.000 A 
ATOM     21  C   UNL     1      47.396   6.616  12.568  0.00  0.00    +0.000 A 
ATOM     22  C   UNL     1      46.441   5.625  12.338  0.00  0.00    +0.000 A 
ENDBRANCH  16  17
ENDBRANCH  14  16
ENDBRANCH   1  14
TORSDOF 4
ENDMDL
MODEL 3
REMARK VINA RESULT:    -6.857      3.509      6.002
REMARK INTER + INTRA:          -9.033
REMARK INTER:                  -8.473
REMARK INTRA:                  -0.560
REMARK UNBOUND:                -0.572
REMARK  Name = 
REMARK  5 active torsions:
REMARK  status: ('A' for Active; 'I' for Inactive)
REMARK    1  A    between atoms: C_1  and  C_2
REMARK    2  A    between atoms: C_2  and  C_3
REMARK    3  A    between atoms: C_2  and  C_14
REMARK    4  A    between atoms: C_3  and  N_4
REMARK    5  A    between atoms: C_8  and  C_9
REMARK                            x       y       z     vdW  Elec       q    Type
REMARK                         _______ _______ _______ _____ _____    ______ ____
ROOT
ATOM      1  N   UNL     1      45.048   4.761  12.505  0.00  0.00    +0.000 N 
ATOM      2  C   UNL     1      46.235   5.507  12.589  0.00  0.00    +0.000 A 
ATOM      3  C   UNL     1      47.081   5.345  13.697  0.00  0.00    +0.000 A 
ATOM      4  N   UNL     1      48.250   6.017  13.877  0.00  0.00    +0.000 NA
ATOM      5  C   UNL     1      48.540   6.896  12.880  0.00  0.00    +0.000 A 
ATOM      6  C   UNL     1      47.711   7.082  11.785  0.00  0.00    +0.000 A 
ATOM      7  N   UNL     1      46.550   6.399  11.627  0.00  0.00    +0.000 NA
ATOM      8  H   UNL     1      45.274   3.773  12.582  0.00  0.00    +0.000 HD
ENDROOT
BRANCH   5   9
ATOM      9  C   UNL     1      49.803   7.678  12.980  0.00  0.00    +0.000 C 
ATOM     10  N   UNL     1      50.535   7.485  14.119  0.00  0.00    +0.000 N 
ATOM     11  O   UNL     1      50.166   8.449  12.101  0.00  0.00    +0.000 OA
ATOM     12  H   UNL     1      50.204   6.846  14.832  0.00  0.00    +0.000 HD
ATOM     13  H   UNL     1      51.398   7.994  14.244  0.00  0.00    +0.000 HD
ENDBRANCH   5   9
BRANCH   1  14
ATOM     14  C   UNL     1      44.271   5.020  11.297  0.00  0.00    +0.000 C 
BRANCH  14  16
ATOM     15  C   UNL     1      43.393   2.604  11.434  0.00  0.00    +0.000 C 
ATOM     16  C   UNL     1      44.038   3.691  10.636  0.00  0.00    +0.000 C 
BRANCH  16  17
ATOM     17  C   UNL     1      44.866   3.355   9.467  0.00  0.00    +0.000 A 
ATOM     18  C   UNL     1      45.447   4.364   8.689  0.00  0.00    +0.000 A 
ATOM     19  C   UNL     1      46.312   4.039   7.642  0.00  0.00    +0.000 A 
ATOM     20  C   UNL     1      46.607   2.705   7.369  0.00  0.00    +0.000 A 
ATOM     21  C   UNL     1      46.016   1.695   8.124  0.00  0.00    +0.000 A 
ATOM     22  C   UNL     1      45.141   2.018   9.161  0.00  0.00    +0.000 A 
ENDBRANCH  16  17
ENDBRANCH  14  16
ENDBRANCH   1  14
TORSDOF 4
ENDMDL
MODEL 4
REMARK VINA RESULT:    -6.801      1.523      2.019
REMARK INTER + INTRA:          -8.964
REMARK INTER:                  -8.619
REMARK INTRA:                  -0.345
REMARK UNBOUND:                -0.572
REMARK  Name = 
REMARK  5 active torsions:
REMARK  status: ('A' for Active; 'I' for Inactive)
REMARK    1  A    between atoms: C_1  and  C_2
REMARK    2  A    between atoms: C_2  and  C_3
REMARK    3  A    between atoms: C_2  and  C_14
REMARK    4  A    between atoms: C_3  and  N_4
REMARK    5  A    between atoms: C_8  and  C_9
REMARK                            x       y       z     vdW  Elec       q    Type
REMARK                         _______ _______ _______ _____ _____    ______ ____
ROOT
ATOM      1  N   UNL     1      43.827   3.739  10.643  0.00  0.00    +0.000 N 
ATOM      2  C   UNL     1      44.712   3.446   9.592  0.00  0.00    +0.000 A 
ATOM      3  C   UNL     1      44.995   2.108   9.276  0.00  0.00    +0.000 A 
ATOM      4  N   UNL     1      45.837   1.715   8.281  0.00  0.00    +0.000 NA
ATOM      5  C   UNL     1      46.412   2.746   7.605  0.00  0.00    +0.000 A 
ATOM      6  C   UNL     1      46.156   4.073   7.911  0.00  0.00    +0.000 A 
ATOM      7  N   UNL     1      45.313   4.442   8.908  0.00  0.00    +0.000 NA
ATOM      8  H   UNL     1      42.944   3.267  10.472  0.00  0.00    +0.000 HD
ENDROOT
BRANCH   5   9
ATOM      9  C   UNL     1      47.344   2.421   6.492  0.00  0.00    +0.000 C 
ATOM     10  N   UNL     1      47.307   3.264   5.416  0.00  0.00    +0.000 N 
ATOM     11  O   UNL     1      48.099   1.457   6.531  0.00  0.00    +0.000 OA
ATOM     12  H   UNL     1      46.666   4.050   5.410  0.00  0.00    +0.000 HD
ATOM     13  H   UNL     1      47.914   3.089   4.628  0.00  0.00    +0.000 HD
ENDBRANCH   5   9
BRANCH   1  14
ATOM     14  C   UNL     1      43.614   5.168  10.855  0.00  0.00    +0.000 C 
BRANCH  14  16
ATOM     15  C   UNL     1      44.644   4.689  13.165  0.00  0.00    +0.000 C 
ATOM     16  C   UNL     1      44.528   5.583  11.972  0.00  0.00    +0.000 C 
BRANCH  16  17
ATOM     17  C   UNL     1      44.863   7.011  12.087  0.00  0.00    +0.000 A 
ATOM     18  C   UNL     1      45.895   7.438  12.932  0.00  0.00    +0.000 A 
ATOM     19  C   UNL     1      46.274   8.782  12.961  0.00  0.00    +0.000 A 
ATOM     20  C   UNL     1      45.630   9.706  12.144  0.00  0.00    +0.000 A 
ATOM     21  C   UNL     1      44.587   9.295  11.317  0.00  0.00    +0.000 A 
ATOM     22  C   UNL     1      44.199   7.955  11.297  0.00  0.00    +0.000 A 
ENDBRANCH  16  17
ENDBRANCH  14  16
ENDBRANCH   1  14
TORSDOF 4
ENDMDL
MODEL 5
REMARK VINA RESULT:    -6.610      4.403      7.260
REMARK INTER + INTRA:          -8.729
REMARK INTER:                  -8.365
REMARK INTRA:                  -0.364
REMARK UNBOUND:                -0.572
REMARK  Name = 
REMARK  5 active torsions:
REMARK  status: ('A' for Active; 'I' for Inactive)
REMARK    1  A    between atoms: C_1  and  C_2
REMARK    2  A    between atoms: C_2  and  C_3
REMARK    3  A    between atoms: C_2  and  C_14
REMARK    4  A    between atoms: C_3  and  N_4
REMARK    5  A    between atoms: C_8  and  C_9
REMARK                            x       y       z     vdW  Elec       q    Type
REMARK                         _______ _______ _______ _____ _____    ______ ____
ROOT
ATOM      1  N   UNL     1      46.176   5.207  12.622  0.00  0.00    +0.000 N 
ATOM      2  C   UNL     1      46.802   5.095  13.874  0.00  0.00    +0.000 A 
ATOM      3  C   UNL     1      47.805   6.009  14.234  0.00  0.00    +0.000 A 
ATOM      4  N   UNL     1      48.474   5.989  15.418  0.00  0.00    +0.000 NA
ATOM      5  C   UNL     1      48.099   4.978  16.247  0.00  0.00    +0.000 A 
ATOM      6  C   UNL     1      47.122   4.056  15.904  0.00  0.00    +0.000 A 
ATOM      7  N   UNL     1      46.468   4.096  14.717  0.00  0.00    +0.000 NA
ATOM      8  H   UNL     1      45.791   6.143  12.528  0.00  0.00    +0.000 HD
ENDROOT
BRANCH   5   9
ATOM      9  C   UNL     1      48.768   4.872  17.572  0.00  0.00    +0.000 C 
ATOM     10  N   UNL     1      48.013   4.343  18.582  0.00  0.00    +0.000 N 
ATOM     11  O   UNL     1      49.923   5.237  17.753  0.00  0.00    +0.000 OA
ATOM     12  H   UNL     1      47.057   4.057  18.403  0.00  0.00    +0.000 HD
ATOM     13  H   UNL     1      48.413   4.253  19.505  0.00  0.00    +0.000 HD
ENDBRANCH   5   9
BRANCH   1  14
ATOM     14  C   UNL     1      45.146   4.200  12.383  0.00  0.00    +0.000 C 
BRANCH  14  16
ATOM     15  C   UNL     1      43.104   5.109  11.107  0.00  0.00    +0.000 C 
ATOM     16  C   UNL     1      44.490   4.550  11.077  0.00  0.00    +0.000 C 
BRANCH  16  17
ATOM     17  C   UNL     1      44.995   3.894   9.862  0.00  0.00    +0.000 A 
ATOM     18  C   UNL     1      45.566   4.646   8.828  0.00  0.00    +0.000 A 
ATOM     19  C   UNL     1      46.133   4.011   7.721  0.00  0.00    +0.000 A 
ATOM     20  C   UNL     1      46.139   2.620   7.643  0.00  0.00    +0.000 A 
ATOM     21  C   UNL     1      45.554   1.865   8.656  0.00  0.00    +0.000 A 
ATOM     22  C   UNL     1      44.975   2.499   9.755  0.00  0.00    +0.000 A 
ENDBRANCH  16  17
ENDBRANCH  14  16
ENDBRANCH   1  14
TORSDOF 4
ENDMDL
MODEL 6
REMARK VINA RESULT:    -6.561      4.008      6.703
REMARK INTER + INTRA:          -8.668
REMARK INTER:                  -8.287
REMARK INTRA:                  -0.381
REMARK UNBOUND:                -0.572
REMARK  Name = 
REMARK  5 active torsions:
REMARK  status: ('A' for Active; 'I' for Inactive)
REMARK    1  A    between atoms: C_1  and  C_2
REMARK    2  A    between atoms: C_2  and  C_3
REMARK    3  A    between atoms: C_2  and  C_14
REMARK    4  A    between atoms: C_3  and  N_4
REMARK    5  A    between atoms: C_8  and  C_9
REMARK                            x       y       z     vdW  Elec       q    Type
REMARK                         _______ _______ _______ _____ _____    ______ ____
ROOT
ATOM      1  N   UNL     1      45.393   4.221  12.770  0.00  0.00    +0.000 N 
ATOM      2  C   UNL     1      46.397   4.947  13.430  0.00  0.00    +0.000 A 
ATOM      3  C   UNL     1      46.945   4.449  14.622  0.00  0.00    +0.000 A 
ATOM      4  N   UNL     1      47.919   5.073  15.340  0.00  0.00    +0.000 NA
ATOM      5  C   UNL     1      48.325   6.257  14.808  0.00  0.00    +0.000 A 
ATOM      6  C   UNL     1      47.786   6.772  13.640  0.00  0.00    +0.000 A 
ATOM      7  N   UNL     1      46.815   6.133  12.940  0.00  0.00    +0.000 NA
ATOM      8  H   UNL     1      45.731   3.280  12.588  0.00  0.00    +0.000 HD
ENDROOT
BRANCH   5   9
ATOM      9  C   UNL     1      49.392   7.014  15.515  0.00  0.00    +0.000 C 
ATOM     10  N   UNL     1      49.139   8.341  15.732  0.00  0.00    +0.000 N 
ATOM     11  O   UNL     1      50.435   6.488  15.881  0.00  0.00    +0.000 OA
ATOM     12  H   UNL     1      48.269   8.750  15.410  0.00  0.00    +0.000 HD
ATOM     13  H   UNL     1      49.831   8.906  16.202  0.00  0.00    +0.000 HD
ENDBRANCH   5   9
BRANCH   1  14
ATOM     14  C   UNL     1      44.922   4.847  11.538  0.00  0.00    +0.000 C 
BRANCH  14  16
ATOM     15  C   UNL     1      43.390   2.789  11.333  0.00  0.00    +0.000 C 
ATOM     16  C   UNL     1      44.334   3.754  10.691  0.00  0.00    +0.000 C 
BRANCH  16  17
ATOM     17  C   UNL     1      45.056   3.376   9.467  0.00  0.00    +0.000 A 
ATOM     18  C   UNL     1      45.553   4.356   8.599  0.00  0.00    +0.000 A 
ATOM     19  C   UNL     1      46.323   3.994   7.491  0.00  0.00    +0.000 A 
ATOM     20  C   UNL     1      46.607   2.653   7.247  0.00  0.00    +0.000 A 
ATOM     21  C   UNL     1      46.098   1.670   8.093  0.00  0.00    +0.000 A 
ATOM     22  C   UNL     1      45.317   2.030   9.191  0.00  0.00    +0.000 A 
ENDBRANCH  16  17
ENDBRANCH  14  16
ENDBRANCH   1  14
TORSDOF 4
ENDMDL
MODEL 7
REMARK VINA RESULT:    -6.238      4.474      6.379
REMARK INTER + INTRA:          -8.269
REMARK INTER:                  -7.916
REMARK INTRA:                  -0.353
REMARK UNBOUND:                -0.572
REMARK  Name = 
REMARK  5 active torsions:
REMARK  status: ('A' for Active; 'I' for Inactive)
REMARK    1  A    between atoms: C_1  and  C_2
REMARK    2  A    between atoms: C_2  and  C_3
REMARK    3  A    between atoms: C_2  and  C_14
REMARK    4  A    between atoms: C_3  and  N_4
REMARK    5  A    between atoms: C_8  and  C_9
REMARK                            x       y       z     vdW  Elec       q    Type
REMARK                         _______ _______ _______ _____ _____    ______ ____
ROOT
ATOM      1  N   UNL     1      47.198   4.931  15.218  0.00  0.00    +0.000 N 
ATOM      2  C   UNL     1      46.521   4.883  13.988  0.00  0.00    +0.000 A 
ATOM      3  C   UNL     1      46.338   6.063  13.250  0.00  0.00    +0.000 A 
ATOM      4  N   UNL     1      45.697   6.126  12.051  0.00  0.00    +0.000 NA
ATOM      5  C   UNL     1      45.220   4.930  11.615  0.00  0.00    +0.000 A 
ATOM      6  C   UNL     1      45.378   3.757  12.336  0.00  0.00    +0.000 A 
ATOM      7  N   UNL     1      46.021   3.717  13.530  0.00  0.00    +0.000 NA
ATOM      8  H   UNL     1      48.112   5.354  15.075  0.00  0.00    +0.000 HD
ENDROOT
BRANCH   5   9
ATOM      9  C   UNL     1      44.507   4.892  10.309  0.00  0.00    +0.000 C 
ATOM     10  N   UNL     1      45.301   4.931   9.196  0.00  0.00    +0.000 N 
ATOM     11  O   UNL     1      43.287   4.833  10.231  0.00  0.00    +0.000 OA
ATOM     12  H   UNL     1      46.308   4.988   9.293  0.00  0.00    +0.000 HD
ATOM     13  H   UNL     1      44.871   4.916   8.282  0.00  0.00    +0.000 HD
ENDBRANCH   5   9
BRANCH   1  14
ATOM     14  C   UNL     1      47.329   3.633  15.873  0.00  0.00    +0.000 C 
BRANCH  14  16
ATOM     15  C   UNL     1      47.490   4.953  18.077  0.00  0.00    +0.000 C 
ATOM     16  C   UNL     1      48.018   3.875  17.185  0.00  0.00    +0.000 C 
BRANCH  16  17
ATOM     17  C   UNL     1      49.413   3.427  17.317  0.00  0.00    +0.000 A 
ATOM     18  C   UNL     1      50.392   4.282  17.839  0.00  0.00    +0.000 A 
ATOM     19  C   UNL     1      51.692   3.820  18.055  0.00  0.00    +0.000 A 
ATOM     20  C   UNL     1      52.021   2.500  17.757  0.00  0.00    +0.000 A 
ATOM     21  C   UNL     1      51.060   1.649  17.217  0.00  0.00    +0.000 A 
ATOM     22  C   UNL     1      49.765   2.114  16.988  0.00  0.00    +0.000 A 
ENDBRANCH  16  17
ENDBRANCH  14  16
ENDBRANCH   1  14
TORSDOF 4
ENDMDL
MODEL 8
REMARK VINA RESULT:    -5.711      4.490      6.527
REMARK INTER + INTRA:          -7.619
REMARK INTER:                  -7.381
REMARK INTRA:                  -0.238
REMARK UNBOUND:                -0.572
REMARK  Name = 
REMARK  5 active torsions:
REMARK  status: ('A' for Active; 'I' for Inactive)
REMARK    1  A    between atoms: C_1  and  C_2
REMARK    2  A    between atoms: C_2  and  C_3
REMARK    3  A    between atoms: C_2  and  C_14
REMARK    4  A    between atoms: C_3  and  N_4
REMARK    5  A    between atoms: C_8  and  C_9
REMARK                            x       y       z     vdW  Elec       q    Type
REMARK                         _______ _______ _______ _____ _____    ______ ____
ROOT
ATOM      1  N   UNL     1      47.451   5.141  15.308  0.00  0.00    +0.000 N 
ATOM      2  C   UNL     1      46.824   5.106  14.052  0.00  0.00    +0.000 A 
ATOM      3  C   UNL     1      47.072   6.128  13.123  0.00  0.00    +0.000 A 
ATOM      4  N   UNL     1      46.515   6.189  11.882  0.00  0.00    +0.000 NA
ATOM      5  C   UNL     1      45.664   5.165  11.607  0.00  0.00    +0.000 A 
ATOM      6  C   UNL     1      45.395   4.155  12.516  0.00  0.00    +0.000 A 
ATOM      7  N   UNL     1      45.962   4.113  13.748  0.00  0.00    +0.000 NA
ATOM      8  H   UNL     1      48.457   5.200  15.172  0.00  0.00    +0.000 HD
ENDROOT
BRANCH   5   9
ATOM      9  C   UNL     1      45.008   5.138  10.271  0.00  0.00    +0.000 C 
ATOM     10  N   UNL     1      43.641   5.142  10.278  0.00  0.00    +0.000 N 
ATOM     11  O   UNL     1      45.649   5.111   9.228  0.00  0.00    +0.000 OA
ATOM     12  H   UNL     1      43.138   5.157  11.159  0.00  0.00    +0.000 HD
ATOM     13  H   UNL     1      43.141   5.118   9.401  0.00  0.00    +0.000 HD
ENDBRANCH   5   9
BRANCH   1  14
ATOM     14  C   UNL     1      47.114   4.012  16.170  0.00  0.00    +0.000 C 
BRANCH  14  16
ATOM     15  C   UNL     1      49.110   2.614  17.000  0.00  0.00    +0.000 C 
ATOM     16  C   UNL     1      48.259   3.838  17.127  0.00  0.00    +0.000 C 
BRANCH  16  17
ATOM     17  C   UNL     1      48.200   4.565  18.403  0.00  0.00    +0.000 A 
ATOM     18  C   UNL     1      47.269   5.593  18.598  0.00  0.00    +0.000 A 
ATOM     19  C   UNL     1      47.150   6.213  19.844  0.00  0.00    +0.000 A 
ATOM     20  C   UNL     1      47.954   5.805  20.905  0.00  0.00    +0.000 A 
ATOM     21  C   UNL     1      48.898   4.799  20.715  0.00  0.00    +0.000 A 
ATOM     22  C   UNL     1      49.027   4.189  19.467  0.00  0.00    +0.000 A 
ENDBRANCH  16  17
ENDBRANCH  14  16
ENDBRANCH   1  14
TORSDOF 4
ENDMDL
MODEL 9
REMARK VINA RESULT:    -5.608      4.052      6.301
REMARK INTER + INTRA:          -7.491
REMARK INTER:                  -7.045
REMARK INTRA:                  -0.447
REMARK UNBOUND:                -0.572
REMARK  Name = 
REMARK  5 active torsions:
REMARK  status: ('A' for Active; 'I' for Inactive)
REMARK    1  A    between atoms: C_1  and  C_2
REMARK    2  A    between atoms: C_2  and  C_3
REMARK    3  A    between atoms: C_2  and  C_14
REMARK    4  A    between atoms: C_3  and  N_4
REMARK    5  A    between atoms: C_8  and  C_9
REMARK                            x       y       z     vdW  Elec       q    Type
REMARK                         _______ _______ _______ _____ _____    ______ ____
ROOT
ATOM      1  N   UNL     1      47.393   7.255  13.905  0.00  0.00    +0.000 N 
ATOM      2  C   UNL     1      46.501   6.305  13.382  0.00  0.00    +0.000 A 
ATOM      3  C   UNL     1      45.275   6.726  12.844  0.00  0.00    +0.000 A 
ATOM      4  N   UNL     1      44.341   5.890  12.315  0.00  0.00    +0.000 NA
ATOM      5  C   UNL     1      44.687   4.576  12.360  0.00  0.00    +0.000 A 
ATOM      6  C   UNL     1      45.886   4.139  12.900  0.00  0.00    +0.000 A 
ATOM      7  N   UNL     1      46.803   4.991  13.423  0.00  0.00    +0.000 NA
ATOM      8  H   UNL     1      47.590   7.951  13.191  0.00  0.00    +0.000 HD
ENDROOT
BRANCH   5   9
ATOM      9  C   UNL     1      43.733   3.580  11.800  0.00  0.00    +0.000 C 
ATOM     10  N   UNL     1      43.748   2.344  12.386  0.00  0.00    +0.000 N 
ATOM     11  O   UNL     1      42.981   3.845  10.870  0.00  0.00    +0.000 OA
ATOM     12  H   UNL     1      44.388   2.153  13.148  0.00  0.00    +0.000 HD
ATOM     13  H   UNL     1      43.127   1.626  12.042  0.00  0.00    +0.000 HD
ENDBRANCH   5   9
BRANCH   1  14
ATOM     14  C   UNL     1      48.633   6.682  14.420  0.00  0.00    +0.000 C 
BRANCH  14  16
ATOM     15  C   UNL     1      48.815   7.943  16.657  0.00  0.00    +0.000 C 
ATOM     16  C   UNL     1      48.521   6.677  15.918  0.00  0.00    +0.000 C 
BRANCH  16  17
ATOM     17  C   UNL     1      48.624   5.382  16.606  0.00  0.00    +0.000 A 
ATOM     18  C   UNL     1      49.822   4.990  17.218  0.00  0.00    +0.000 A 
ATOM     19  C   UNL     1      49.885   3.806  17.955  0.00  0.00    +0.000 A 
ATOM     20  C   UNL     1      48.752   3.008  18.092  0.00  0.00    +0.000 A 
ATOM     21  C   UNL     1      47.563   3.378  17.468  0.00  0.00    +0.000 A 
ATOM     22  C   UNL     1      47.502   4.554  16.721  0.00  0.00    +0.000 A 
ENDBRANCH  16  17
ENDBRANCH  14  16
ENDBRANCH   1  14
TORSDOF 4
ENDMDL
