MODEL 1
REMARK VINA RESULT:    -7.128      0.000      0.000
REMARK INTER + INTRA:          -8.945
REMARK INTER:                  -8.587
REMARK INTRA:                  -0.359
REMARK UNBOUND:                -0.359
REMARK  Name = 
REMARK  4 active torsions:
REMARK  status: ('A' for Active; 'I' for Inactive)
REMARK    1  A    between atoms: N_1  and  C_2
REMARK    2  A    between atoms: C_2  and  C_3
REMARK    3  A    between atoms: N_5  and  C_6
REMARK    4  A    between atoms: C_6  and  C_7
REMARK                            x       y       z     vdW  Elec       q    Type
REMARK                         _______ _______ _______ _____ _____    ______ ____
ROOT
ATOM      1  C   UNL     1      44.185   3.242  10.240  0.00  0.00    +0.000 C 
ENDROOT
BRANCH   1   2
ATOM      2  C   UNL     1      45.106   3.439   9.088  0.00  0.00    +0.000 C 
ATOM      3  C   UNL     1      45.510   4.749   8.635  0.00  0.00    +0.000 C 
ATOM      4  N   UNL     1      46.470   4.639   7.659  0.00  0.00    +0.000 NA
ATOM      5  C   UNL     1      46.620   3.360   7.521  0.00  0.00    +0.000 A 
ATOM      6  N   UNL     1      47.511   2.755   6.683  0.00  0.00    +0.000 NA
ATOM      7  C   UNL     1      47.582   1.463   6.716  0.00  0.00    +0.000 A 
ATOM      8  C   UNL     1      46.775   0.542   7.566  0.00  0.00    +0.000 A 
ATOM      9  C   UNL     1      45.880   1.101   8.390  0.00  0.00    +0.000 A 
ATOM     10  C   UNL     1      45.781   2.519   8.397  0.00  0.00    +0.000 A 
ENDBRANCH   1   2
BRANCH   1  13
ATOM     11  C   UNL     1      45.686   4.379  13.307  0.00  0.00    +0.000 A 
ATOM     12  C   UNL     1      45.732   3.563  12.192  0.00  0.00    +0.000 A 
ATOM     13  N   UNL     1      44.635   3.898  11.456  0.00  0.00    +0.000 N 
ATOM     14  C   UNL     1      43.964   4.881  12.127  0.00  0.00    +0.000 A 
ATOM     15  N   UNL     1      44.575   5.197  13.248  0.00  0.00    +0.000 NA
BRANCH  11  16
ATOM     16  C   UNL     1      46.638   4.456  14.451  0.00  0.00    +0.000 C 
BRANCH  16  17
ATOM     17  N   UNL     1      47.429   3.228  14.486  0.00  0.00    +0.000 NA
ATOM     18  H   UNL     1      48.118   3.260  13.739  0.00  0.00    +0.000 HD
ATOM     19  H   UNL     1      46.797   2.458  14.262  0.00  0.00    +0.000 HD
ENDBRANCH  16  17
ENDBRANCH  11  16
ENDBRANCH   1  13
TORSDOF 4
ENDMDL
MODEL 2
REMARK VINA RESULT:    -7.127      1.687      5.953
REMARK INTER + INTRA:          -8.944
REMARK INTER:                  -8.623
REMARK INTRA:                  -0.321
REMARK UNBOUND:                -0.359
REMARK  Name = 
REMARK  4 active torsions:
REMARK  status: ('A' for Active; 'I' for Inactive)
REMARK    1  A    between atoms: N_1  and  C_2
REMARK    2  A    between atoms: C_2  and  C_3
REMARK    3  A    between atoms: N_5  and  C_6
REMARK    4  A    between atoms: C_6  and  C_7
REMARK                            x       y       z     vdW  Elec       q    Type
REMARK                         _______ _______ _______ _____ _____    ______ ____
ROOT
ATOM      1  C   UNL     1      44.119   3.952   9.306  0.00  0.00    +0.000 C 
ENDROOT
BRANCH   1   2
ATOM      2  C   UNL     1      44.482   4.082  10.743  0.00  0.00    +0.000 C 
ATOM      3  C   UNL     1      44.048   3.132  11.740  0.00  0.00    +0.000 C 
ATOM      4  N   UNL     1      44.641   3.406  12.948  0.00  0.00    +0.000 NA
ATOM      5  C   UNL     1      45.365   4.452  12.703  0.00  0.00    +0.000 A 
ATOM      6  N   UNL     1      46.184   5.075  13.600  0.00  0.00    +0.000 NA
ATOM      7  C   UNL     1      46.892   6.070  13.174  0.00  0.00    +0.000 A 
ATOM      8  C   UNL     1      46.904   6.637  11.794  0.00  0.00    +0.000 A 
ATOM      9  C   UNL     1      46.102   6.059  10.892  0.00  0.00    +0.000 A 
ATOM     10  C   UNL     1      45.318   4.951  11.315  0.00  0.00    +0.000 A 
ENDBRANCH   1   2
BRANCH   1  13
ATOM     11  C   UNL     1      46.481   2.675   6.910  0.00  0.00    +0.000 A 
ATOM     12  C   UNL     1      45.663   3.702   7.341  0.00  0.00    +0.000 A 
ATOM     13  N   UNL     1      45.128   3.267   8.517  0.00  0.00    +0.000 N 
ATOM     14  C   UNL     1      45.619   2.015   8.762  0.00  0.00    +0.000 A 
ATOM     15  N   UNL     1      46.442   1.629   7.812  0.00  0.00    +0.000 NA
BRANCH  11  16
ATOM     16  C   UNL     1      47.326   2.602   5.684  0.00  0.00    +0.000 C 
BRANCH  16  17
ATOM     17  N   UNL     1      48.509   1.796   5.978  0.00  0.00    +0.000 NA
ATOM     18  H   UNL     1      48.761   1.927   6.954  0.00  0.00    +0.000 HD
ATOM     19  H   UNL     1      49.278   2.181   5.427  0.00  0.00    +0.000 HD
ENDBRANCH  16  17
ENDBRANCH  11  16
ENDBRANCH   1  13
TORSDOF 4
ENDMDL
MODEL 3
REMARK VINA RESULT:    -6.514      1.449      2.125
REMARK INTER + INTRA:          -8.206
REMARK INTER:                  -7.918
REMARK INTRA:                  -0.288
REMARK UNBOUND:                -0.359
REMARK  Name = 
REMARK  4 active torsions:
REMARK  status: ('A' for Active; 'I' for Inactive)
REMARK    1  A    between atoms: N_1  and  C_2
REMARK    2  A    between atoms: C_2  and  C_3
REMARK    3  A    between atoms: N_5  and  C_6
REMARK    4  A    between atoms: C_6  and  C_7
REMARK                            x       y       z     vdW  Elec       q    Type
REMARK                         _______ _______ _______ _____ _____    ______ ____
ROOT
ATOM      1  C   UNL     1      44.382   4.121   8.865  0.00  0.00    +0.000 C 
ENDROOT
BRANCH   1   2
ATOM      2  C   UNL     1      45.265   2.995   8.459  0.00  0.00    +0.000 C 
ATOM      3  C   UNL     1      45.175   1.686   9.061  0.00  0.00    +0.000 C 
ATOM      4  N   UNL     1      45.999   0.803   8.404  0.00  0.00    +0.000 NA
ATOM      5  C   UNL     1      46.556   1.529   7.488  0.00  0.00    +0.000 A 
ATOM      6  N   UNL     1      47.432   1.077   6.545  0.00  0.00    +0.000 NA
ATOM      7  C   UNL     1      47.846   1.922   5.657  0.00  0.00    +0.000 A 
ATOM      8  C   UNL     1      47.482   3.364   5.553  0.00  0.00    +0.000 A 
ATOM      9  C   UNL     1      46.635   3.846   6.471  0.00  0.00    +0.000 A 
ATOM     10  C   UNL     1      46.144   2.947   7.456  0.00  0.00    +0.000 A 
ENDBRANCH   1   2
BRANCH   1  13
ATOM     11  C   UNL     1      44.909   4.741  12.370  0.00  0.00    +0.000 A 
ATOM     12  C   UNL     1      45.360   4.828  11.067  0.00  0.00    +0.000 A 
ATOM     13  N   UNL     1      44.345   4.337  10.301  0.00  0.00    +0.000 N 
ATOM     14  C   UNL     1      43.331   3.967  11.138  0.00  0.00    +0.000 A 
ATOM     15  N   UNL     1      43.637   4.201  12.395  0.00  0.00    +0.000 NA
BRANCH  11  16
ATOM     16  C   UNL     1      45.597   5.144  13.629  0.00  0.00    +0.000 C 
BRANCH  16  17
ATOM     17  N   UNL     1      46.341   3.997  14.144  0.00  0.00    +0.000 NA
ATOM     18  H   UNL     1      47.156   4.334  14.648  0.00  0.00    +0.000 HD
ATOM     19  H   UNL     1      46.694   3.481  13.337  0.00  0.00    +0.000 HD
ENDBRANCH  16  17
ENDBRANCH  11  16
ENDBRANCH   1  13
TORSDOF 4
ENDMDL
MODEL 4
REMARK VINA RESULT:    -6.316      1.426      5.651
REMARK INTER + INTRA:          -7.967
REMARK INTER:                  -7.566
REMARK INTRA:                  -0.401
REMARK UNBOUND:                -0.359
REMARK  Name = 
REMARK  4 active torsions:
REMARK  status: ('A' for Active; 'I' for Inactive)
REMARK    1  A    between atoms: N_1  and  C_2
REMARK    2  A    between atoms: C_2  and  C_3
REMARK    3  A    between atoms: N_5  and  C_6
REMARK    4  A    between atoms: C_6  and  C_7
REMARK                            x       y       z     vdW  Elec       q    Type
REMARK                         _______ _______ _______ _____ _____    ______ ____
ROOT
ATOM      1  C   UNL     1      44.154   3.875  10.023  0.00  0.00    +0.000 C 
ENDROOT
BRANCH   1   2
ATOM      2  C   UNL     1      44.809   4.797  10.991  0.00  0.00    +0.000 C 
ATOM      3  C   UNL     1      44.573   6.221  10.983  0.00  0.00    +0.000 C 
ATOM      4  N   UNL     1      45.182   6.809  12.065  0.00  0.00    +0.000 NA
ATOM      5  C   UNL     1      45.756   5.818  12.669  0.00  0.00    +0.000 A 
ATOM      6  N   UNL     1      46.458   5.902  13.837  0.00  0.00    +0.000 NA
ATOM      7  C   UNL     1      46.912   4.802  14.344  0.00  0.00    +0.000 A 
ATOM      8  C   UNL     1      46.769   3.429  13.781  0.00  0.00    +0.000 A 
ATOM      9  C   UNL     1      46.099   3.310  12.628  0.00  0.00    +0.000 A 
ATOM     10  C   UNL     1      45.569   4.493  12.045  0.00  0.00    +0.000 A 
ENDBRANCH   1   2
BRANCH   1  13
ATOM     11  C   UNL     1      46.414   2.165   7.805  0.00  0.00    +0.000 A 
ATOM     12  C   UNL     1      45.501   2.115   8.842  0.00  0.00    +0.000 A 
ATOM     13  N   UNL     1      45.053   3.394   8.989  0.00  0.00    +0.000 N 
ATOM     14  C   UNL     1      45.692   4.170   8.064  0.00  0.00    +0.000 A 
ATOM     15  N   UNL     1      46.519   3.457   7.330  0.00  0.00    +0.000 NA
BRANCH  11  16
ATOM     16  C   UNL     1      47.212   1.057   7.206  0.00  0.00    +0.000 C 
BRANCH  16  17
ATOM     17  N   UNL     1      48.294   1.636   6.413  0.00  0.00    +0.000 NA
ATOM     18  H   UNL     1      47.892   2.227   5.691  0.00  0.00    +0.000 HD
ATOM     19  H   UNL     1      48.757   0.865   5.930  0.00  0.00    +0.000 HD
ENDBRANCH  16  17
ENDBRANCH  11  16
ENDBRANCH   1  13
TORSDOF 4
ENDMDL
MODEL 5
REMARK VINA RESULT:    -6.255      2.177      3.752
REMARK INTER + INTRA:          -7.894
REMARK INTER:                  -7.479
REMARK INTRA:                  -0.414
REMARK UNBOUND:                -0.359
REMARK  Name = 
REMARK  4 active torsions:
REMARK  status: ('A' for Active; 'I' for Inactive)
REMARK    1  A    between atoms: N_1  and  C_2
REMARK    2  A    between atoms: C_2  and  C_3
REMARK    3  A    between atoms: N_5  and  C_6
REMARK    4  A    between atoms: C_6  and  C_7
REMARK                            x       y       z     vdW  Elec       q    Type
REMARK                         _______ _______ _______ _____ _____    ______ ____
ROOT
ATOM      1  C   UNL     1      44.550   5.849  12.588  0.00  0.00    +0.000 C 
ENDROOT
BRANCH   1   2
ATOM      2  C   UNL     1      44.352   4.632  11.754  0.00  0.00    +0.000 C 
ATOM      3  C   UNL     1      43.477   3.556  12.152  0.00  0.00    +0.000 C 
ATOM      4  N   UNL     1      43.368   2.634  11.140  0.00  0.00    +0.000 NA
ATOM      5  C   UNL     1      44.133   3.109  10.210  0.00  0.00    +0.000 A 
ATOM      6  N   UNL     1      44.316   2.555   8.976  0.00  0.00    +0.000 NA
ATOM      7  C   UNL     1      45.064   3.195   8.136  0.00  0.00    +0.000 A 
ATOM      8  C   UNL     1      45.776   4.483   8.371  0.00  0.00    +0.000 A 
ATOM      9  C   UNL     1      45.631   5.048   9.576  0.00  0.00    +0.000 A 
ATOM     10  C   UNL     1      44.804   4.386  10.523  0.00  0.00    +0.000 A 
ENDBRANCH   1   2
BRANCH   1  13
ATOM     11  C   UNL     1      47.954   6.659  13.427  0.00  0.00    +0.000 A 
ATOM     12  C   UNL     1      46.757   7.021  12.838  0.00  0.00    +0.000 A 
ATOM     13  N   UNL     1      45.905   5.988  13.093  0.00  0.00    +0.000 N 
ATOM     14  C   UNL     1      46.591   5.046  13.806  0.00  0.00    +0.000 A 
ATOM     15  N   UNL     1      47.831   5.422  14.028  0.00  0.00    +0.000 NA
BRANCH  11  16
ATOM     16  C   UNL     1      49.240   7.412  13.473  0.00  0.00    +0.000 C 
BRANCH  16  17
ATOM     17  N   UNL     1      50.005   6.961  14.633  0.00  0.00    +0.000 NA
ATOM     18  H   UNL     1      49.632   7.407  15.466  0.00  0.00    +0.000 HD
ATOM     19  H   UNL     1      50.957   7.312  14.519  0.00  0.00    +0.000 HD
ENDBRANCH  16  17
ENDBRANCH  11  16
ENDBRANCH   1  13
TORSDOF 4
ENDMDL
MODEL 6
REMARK VINA RESULT:    -6.110      2.490      5.826
REMARK INTER + INTRA:          -7.719
REMARK INTER:                  -7.330
REMARK INTRA:                  -0.389
REMARK UNBOUND:                -0.359
REMARK  Name = 
REMARK  4 active torsions:
REMARK  status: ('A' for Active; 'I' for Inactive)
REMARK    1  A    between atoms: N_1  and  C_2
REMARK    2  A    between atoms: C_2  and  C_3
REMARK    3  A    between atoms: N_5  and  C_6
REMARK    4  A    between atoms: C_6  and  C_7
REMARK                            x       y       z     vdW  Elec       q    Type
REMARK                         _______ _______ _______ _____ _____    ______ ____
ROOT
ATOM      1  C   UNL     1      44.404   5.442  12.871  0.00  0.00    +0.000 C 
ENDROOT
BRANCH   1   2
ATOM      2  C   UNL     1      45.808   5.591  13.343  0.00  0.00    +0.000 C 
ATOM      3  C   UNL     1      46.409   4.675  14.283  0.00  0.00    +0.000 C 
ATOM      4  N   UNL     1      47.745   4.957  14.432  0.00  0.00    +0.000 NA
ATOM      5  C   UNL     1      47.932   5.975  13.655  0.00  0.00    +0.000 A 
ATOM      6  N   UNL     1      49.128   6.593  13.433  0.00  0.00    +0.000 NA
ATOM      7  C   UNL     1      49.154   7.558  12.572  0.00  0.00    +0.000 A 
ATOM      8  C   UNL     1      48.003   8.095  11.792  0.00  0.00    +0.000 A 
ATOM      9  C   UNL     1      46.810   7.523  11.995  0.00  0.00    +0.000 A 
ATOM     10  C   UNL     1      46.740   6.447  12.922  0.00  0.00    +0.000 A 
ENDBRANCH   1   2
BRANCH   1  13
ATOM     11  C   UNL     1      44.225   3.041  10.196  0.00  0.00    +0.000 A 
ATOM     12  C   UNL     1      44.781   4.190  10.727  0.00  0.00    +0.000 A 
ATOM     13  N   UNL     1      44.218   4.325  11.961  0.00  0.00    +0.000 N 
ATOM     14  C   UNL     1      43.352   3.284  12.142  0.00  0.00    +0.000 A 
ATOM     15  N   UNL     1      43.335   2.488  11.096  0.00  0.00    +0.000 NA
BRANCH  11  16
ATOM     16  C   UNL     1      44.479   2.403   8.874  0.00  0.00    +0.000 C 
BRANCH  16  17
ATOM     17  N   UNL     1      45.679   1.576   8.975  0.00  0.00    +0.000 NA
ATOM     18  H   UNL     1      45.872   1.397   9.957  0.00  0.00    +0.000 HD
ATOM     19  H   UNL     1      46.459   2.134   8.625  0.00  0.00    +0.000 HD
ENDBRANCH  16  17
ENDBRANCH  11  16
ENDBRANCH   1  13
TORSDOF 4
ENDMDL
MODEL 7
REMARK VINA RESULT:    -5.474      2.956      4.605
REMARK INTER + INTRA:          -6.953
REMARK INTER:                  -6.586
REMARK INTRA:                  -0.367
REMARK UNBOUND:                -0.359
REMARK  Name = 
REMARK  4 active torsions:
REMARK  status: ('A' for Active; 'I' for Inactive)
REMARK    1  A    between atoms: N_1  and  C_2
REMARK    2  A    between atoms: C_2  and  C_3
REMARK    3  A    between atoms: N_5  and  C_6
REMARK    4  A    between atoms: C_6  and  C_7
REMARK                            x       y       z     vdW  Elec       q    Type
REMARK                         _______ _______ _______ _____ _____    ______ ____
ROOT
ATOM      1  C   UNL     1      45.356   7.227  12.355  0.00  0.00    +0.000 C 
ENDROOT
BRANCH   1   2
ATOM      2  C   UNL     1      44.736   5.927  11.977  0.00  0.00    +0.000 C 
ATOM      3  C   UNL     1      43.692   5.311  12.760  0.00  0.00    +0.000 C 
ATOM      4  N   UNL     1      43.203   4.203  12.111  0.00  0.00    +0.000 NA
ATOM      5  C   UNL     1      43.911   4.145  11.028  0.00  0.00    +0.000 A 
ATOM      6  N   UNL     1      43.759   3.225  10.032  0.00  0.00    +0.000 NA
ATOM      7  C   UNL     1      44.505   3.349   8.983  0.00  0.00    +0.000 A 
ATOM      8  C   UNL     1      45.544   4.390   8.739  0.00  0.00    +0.000 A 
ATOM      9  C   UNL     1      45.730   5.302   9.701  0.00  0.00    +0.000 A 
ATOM     10  C   UNL     1      44.919   5.212  10.865  0.00  0.00    +0.000 A 
ENDBRANCH   1   2
BRANCH   1  13
ATOM     11  C   UNL     1      48.946   7.387  12.539  0.00  0.00    +0.000 A 
ATOM     12  C   UNL     1      47.753   7.928  12.098  0.00  0.00    +0.000 A 
ATOM     13  N   UNL     1      46.780   7.130  12.621  0.00  0.00    +0.000 N 
ATOM     14  C   UNL     1      47.392   6.145  13.344  0.00  0.00    +0.000 A 
ATOM     15  N   UNL     1      48.700   6.273  13.318  0.00  0.00    +0.000 NA
BRANCH  11  16
ATOM     16  C   UNL     1      50.338   7.854  12.282  0.00  0.00    +0.000 C 
BRANCH  16  17
ATOM     17  N   UNL     1      51.098   7.769  13.527  0.00  0.00    +0.000 NA
ATOM     18  H   UNL     1      51.510   8.676  13.723  0.00  0.00    +0.000 HD
ATOM     19  H   UNL     1      51.875   7.128  13.361  0.00  0.00    +0.000 HD
ENDBRANCH  16  17
ENDBRANCH  11  16
ENDBRANCH   1  13
TORSDOF 4
ENDMDL
MODEL 8
REMARK VINA RESULT:    -5.460      3.349      5.415
REMARK INTER + INTRA:          -6.936
REMARK INTER:                  -6.734
REMARK INTRA:                  -0.202
REMARK UNBOUND:                -0.359
REMARK  Name = 
REMARK  4 active torsions:
REMARK  status: ('A' for Active; 'I' for Inactive)
REMARK    1  A    between atoms: N_1  and  C_2
REMARK    2  A    between atoms: C_2  and  C_3
REMARK    3  A    between atoms: N_5  and  C_6
REMARK    4  A    between atoms: C_6  and  C_7
REMARK                            x       y       z     vdW  Elec       q    Type
REMARK                         _______ _______ _______ _____ _____    ______ ____
ROOT
ATOM      1  C   UNL     1      46.620   7.165  12.138  0.00  0.00    +0.000 C 
ENDROOT
BRANCH   1   2
ATOM      2  C   UNL     1      45.890   5.869  12.119  0.00  0.00    +0.000 C 
ATOM      3  C   UNL     1      45.336   5.275  13.313  0.00  0.00    +0.000 C 
ATOM      4  N   UNL     1      44.594   4.165  12.991  0.00  0.00    +0.000 NA
ATOM      5  C   UNL     1      44.706   4.085  11.704  0.00  0.00    +0.000 A 
ATOM      6  N   UNL     1      44.098   3.153  10.913  0.00  0.00    +0.000 NA
ATOM      7  C   UNL     1      44.260   3.255   9.634  0.00  0.00    +0.000 A 
ATOM      8  C   UNL     1      45.065   4.280   8.910  0.00  0.00    +0.000 A 
ATOM      9  C   UNL     1      45.688   5.202   9.656  0.00  0.00    +0.000 A 
ATOM     10  C   UNL     1      45.523   5.137  11.066  0.00  0.00    +0.000 A 
ENDBRANCH   1   2
BRANCH   1  13
ATOM     11  C   UNL     1      44.142   9.637  11.300  0.00  0.00    +0.000 A 
ATOM     12  C   UNL     1      44.523   8.310  11.365  0.00  0.00    +0.000 A 
ATOM     13  N   UNL     1      45.756   8.316  11.947  0.00  0.00    +0.000 N 
ATOM     14  C   UNL     1      46.086   9.615  12.210  0.00  0.00    +0.000 A 
ATOM     15  N   UNL     1      45.132  10.438  11.835  0.00  0.00    +0.000 NA
BRANCH  11  16
ATOM     16  C   UNL     1      42.881  10.225  10.766  0.00  0.00    +0.000 C 
BRANCH  16  17
ATOM     17  N   UNL     1      41.780   9.307  11.049  0.00  0.00    +0.000 NA
ATOM     18  H   UNL     1      41.384   9.540  11.955  0.00  0.00    +0.000 HD
ATOM     19  H   UNL     1      42.183   8.374  11.142  0.00  0.00    +0.000 HD
ENDBRANCH  16  17
ENDBRANCH  11  16
ENDBRANCH   1  13
TORSDOF 4
ENDMDL
MODEL 9
REMARK VINA RESULT:    -5.202      3.900      5.100
REMARK INTER + INTRA:          -6.625
REMARK INTER:                  -6.326
REMARK INTRA:                  -0.298
REMARK UNBOUND:                -0.359
REMARK  Name = 
REMARK  4 active torsions:
REMARK  status: ('A' for Active; 'I' for Inactive)
REMARK    1  A    between atoms: N_1  and  C_2
REMARK    2  A    between atoms: C_2  and  C_3
REMARK    3  A    between atoms: N_5  and  C_6
REMARK    4  A    between atoms: C_6  and  C_7
REMARK                            x       y       z     vdW  Elec       q    Type
REMARK                         _______ _______ _______ _____ _____    ______ ____
ROOT
ATOM      1  C   UNL     1      47.672   5.907  12.979  0.00  0.00    +0.000 C 
ENDROOT
BRANCH   1   2
ATOM      2  C   UNL     1      46.230   6.080  12.655  0.00  0.00    +0.000 C 
ATOM      3  C   UNL     1      45.632   7.379  12.455  0.00  0.00    +0.000 C 
ATOM      4  N   UNL     1      44.334   7.244  12.027  0.00  0.00    +0.000 NA
ATOM      5  C   UNL     1      44.157   5.962  11.988  0.00  0.00    +0.000 A 
ATOM      6  N   UNL     1      43.019   5.333  11.575  0.00  0.00    +0.000 NA
ATOM      7  C   UNL     1      43.029   4.040  11.533  0.00  0.00    +0.000 A 
ATOM      8  C   UNL     1      44.157   3.140  11.908  0.00  0.00    +0.000 A 
ATOM      9  C   UNL     1      45.286   3.723  12.332  0.00  0.00    +0.000 A 
ATOM     10  C   UNL     1      45.322   5.143  12.379  0.00  0.00    +0.000 A 
ENDBRANCH   1   2
BRANCH   1  13
ATOM     11  C   UNL     1      47.864   4.823  16.405  0.00  0.00    +0.000 A 
ATOM     12  C   UNL     1      47.500   4.568  15.096  0.00  0.00    +0.000 A 
ATOM     13  N   UNL     1      47.919   5.655  14.387  0.00  0.00    +0.000 N 
ATOM     14  C   UNL     1      48.508   6.523  15.262  0.00  0.00    +0.000 A 
ATOM     15  N   UNL     1      48.495   6.049  16.489  0.00  0.00    +0.000 NA
BRANCH  11  16
ATOM     16  C   UNL     1      47.665   3.976  17.615  0.00  0.00    +0.000 C 
BRANCH  16  17
ATOM     17  N   UNL     1      46.458   3.174  17.432  0.00  0.00    +0.000 NA
ATOM     18  H   UNL     1      46.527   2.340  18.008  0.00  0.00    +0.000 HD
ATOM     19  H   UNL     1      46.453   2.855  16.462  0.00  0.00    +0.000 HD
ENDBRANCH  16  17
ENDBRANCH  11  16
ENDBRANCH   1  13
TORSDOF 4
ENDMDL
