MODEL 1
REMARK VINA RESULT:    -7.823      0.000      0.000
REMARK INTER + INTRA:         -11.030
REMARK INTER:                 -10.110
REMARK INTRA:                  -0.920
REMARK UNBOUND:                -0.920
REMARK  Name = 
REMARK  5 active torsions:
REMARK  status: ('A' for Active; 'I' for Inactive)
REMARK    1  A    between atoms: C_2  and  C_3
REMARK    2  A    between atoms: C_7  and  O_8
REMARK    3  A    between atoms: O_8  and  C_9
REMARK    4  A    between atoms: C_9  and  C_10
REMARK    5  A    between atoms: C_15  and  C_16
REMARK                            x       y       z     vdW  Elec       q    Type
REMARK                         _______ _______ _______ _____ _____    ______ ____
ROOT
ATOM      1  C   UNL     1      44.944   4.241  12.089  0.00  0.00    +0.000 A 
ATOM      2  C   UNL     1      45.751   3.411  12.877  0.00  0.00    +0.000 A 
ATOM      3  C   UNL     1      46.779   3.955  13.647  0.00  0.00    +0.000 A 
ATOM      4  C   UNL     1      47.016   5.327  13.633  0.00  0.00    +0.000 A 
ATOM      5  F   UNL     1      47.996   5.807  14.411  0.00  0.00    +0.000 F 
ATOM      6  C   UNL     1      46.250   6.186  12.845  0.00  0.00    +0.000 A 
ATOM      7  C   UNL     1      45.213   5.621  12.070  0.00  0.00    +0.000 A 
ENDROOT
BRANCH   6   8
ATOM      8  C   UNL     1      46.448   7.690  12.819  0.00  0.00    +0.000 C 
ATOM      9  C   UNL     1      47.706   8.078  12.026  0.00  0.00    +0.000 C 
ATOM     10  C   UNL     1      47.982   9.567  12.226  0.00  0.00    +0.000 C 
ATOM     11  C   UNL     1      46.762  10.427  11.882  0.00  0.00    +0.000 C 
ATOM     12  N   UNL     1      45.534   9.971  12.538  0.00  0.00    +0.000 NA
ATOM     13  C   UNL     1      45.274   8.543  12.292  0.00  0.00    +0.000 C 
ATOM     14  H   UNL     1      44.746  10.517  12.187  0.00  0.00    +0.000 HD
ENDBRANCH   6   8
BRANCH   1  15
ATOM     15  C   UNL     1      43.806   3.655  11.281  0.00  0.00    +0.000 C 
BRANCH  15  16
ATOM     16  O   UNL     1      43.854   4.172   9.953  0.00  0.00    +0.000 OA
BRANCH  16  21
ATOM     17  C   UNL     1      46.174   1.988   8.041  0.00  0.00    +0.000 A 
ATOM     18  C   UNL     1      46.834   3.007   7.367  0.00  0.00    +0.000 A 
ATOM     19  N   UNL     1      46.541   4.317   7.526  0.00  0.00    +0.000 NA
ATOM     20  C   UNL     1      45.546   4.617   8.396  0.00  0.00    +0.000 A 
ATOM     21  C   UNL     1      44.820   3.675   9.123  0.00  0.00    +0.000 A 
ATOM     22  C   UNL     1      45.151   2.334   8.935  0.00  0.00    +0.000 A 
BRANCH  17  24
ATOM     23  N   UNL     1      46.832  -0.486   7.659  0.00  0.00    +0.000 NA
ATOM     24  C   UNL     1      46.539   0.625   7.825  0.00  0.00    +0.000 C 
ENDBRANCH  17  24
ENDBRANCH  16  21
ENDBRANCH  15  16
ENDBRANCH   1  15
TORSDOF 5
ENDMDL
MODEL 2
REMARK VINA RESULT:    -7.358      2.911      6.940
REMARK INTER + INTRA:         -10.428
REMARK INTER:                  -9.690
REMARK INTRA:                  -0.738
REMARK UNBOUND:                -0.920
REMARK  Name = 
REMARK  5 active torsions:
REMARK  status: ('A' for Active; 'I' for Inactive)
REMARK    1  A    between atoms: C_2  and  C_3
REMARK    2  A    between atoms: C_7  and  O_8
REMARK    3  A    between atoms: O_8  and  C_9
REMARK    4  A    between atoms: C_9  and  C_10
REMARK    5  A    between atoms: C_15  and  C_16
REMARK                            x       y       z     vdW  Elec       q    Type
REMARK                         _______ _______ _______ _____ _____    ______ ____
ROOT
ATOM      1  C   UNL     1      44.959   5.050  10.730  0.00  0.00    +0.000 A 
ATOM      2  C   UNL     1      44.063   4.255  11.456  0.00  0.00    +0.000 A 
ATOM      3  C   UNL     1      43.729   2.979  11.003  0.00  0.00    +0.000 A 
ATOM      4  C   UNL     1      44.278   2.487   9.822  0.00  0.00    +0.000 A 
ATOM      5  F   UNL     1      43.950   1.245   9.442  0.00  0.00    +0.000 F 
ATOM      6  C   UNL     1      45.157   3.255   9.057  0.00  0.00    +0.000 A 
ATOM      7  C   UNL     1      45.485   4.546   9.528  0.00  0.00    +0.000 A 
ENDROOT
BRANCH   6   8
ATOM      8  C   UNL     1      45.806   2.753   7.781  0.00  0.00    +0.000 C 
ATOM      9  C   UNL     1      46.607   3.863   7.083  0.00  0.00    +0.000 C 
ATOM     10  C   UNL     1      47.041   3.372   5.703  0.00  0.00    +0.000 C 
ATOM     11  C   UNL     1      47.793   2.041   5.779  0.00  0.00    +0.000 C 
ATOM     12  N   UNL     1      47.084   1.023   6.560  0.00  0.00    +0.000 NA
ATOM     13  C   UNL     1      46.717   1.513   7.899  0.00  0.00    +0.000 C 
ATOM     14  H   UNL     1      47.682   0.202   6.658  0.00  0.00    +0.000 HD
ENDBRANCH   6   8
BRANCH   1  15
ATOM     15  C   UNL     1      45.348   6.421  11.240  0.00  0.00    +0.000 C 
BRANCH  15  16
ATOM     16  O   UNL     1      46.765   6.490  11.379  0.00  0.00    +0.000 OA
BRANCH  16  21
ATOM     17  C   UNL     1      47.508   5.317  14.825  0.00  0.00    +0.000 A 
ATOM     18  C   UNL     1      48.531   6.220  15.085  0.00  0.00    +0.000 A 
ATOM     19  N   UNL     1      48.948   7.147  14.195  0.00  0.00    +0.000 NA
ATOM     20  C   UNL     1      48.316   7.171  12.996  0.00  0.00    +0.000 A 
ATOM     21  C   UNL     1      47.280   6.312  12.632  0.00  0.00    +0.000 A 
ATOM     22  C   UNL     1      46.874   5.369  13.576  0.00  0.00    +0.000 A 
BRANCH  17  24
ATOM     23  N   UNL     1      46.797   3.599  16.626  0.00  0.00    +0.000 NA
ATOM     24  C   UNL     1      47.118   4.364  15.815  0.00  0.00    +0.000 C 
ENDBRANCH  17  24
ENDBRANCH  16  21
ENDBRANCH  15  16
ENDBRANCH   1  15
TORSDOF 5
ENDMDL
MODEL 3
REMARK VINA RESULT:    -7.112      2.615      7.077
REMARK INTER + INTRA:         -10.111
REMARK INTER:                  -9.417
REMARK INTRA:                  -0.694
REMARK UNBOUND:                -0.920
REMARK  Name = 
REMARK  5 active torsions:
REMARK  status: ('A' for Active; 'I' for Inactive)
REMARK    1  A    between atoms: C_2  and  C_3
REMARK    2  A    between atoms: C_7  and  O_8
REMARK    3  A    between atoms: O_8  and  C_9
REMARK    4  A    between atoms: C_9  and  C_10
REMARK    5  A    between atoms: C_15  and  C_16
REMARK                            x       y       z     vdW  Elec       q    Type
REMARK                         _______ _______ _______ _____ _____    ______ ____
ROOT
ATOM      1  C   UNL     1      44.731   5.058  10.607  0.00  0.00    +0.000 A 
ATOM      2  C   UNL     1      43.923   4.209  11.372  0.00  0.00    +0.000 A 
ATOM      3  C   UNL     1      43.713   2.888  10.973  0.00  0.00    +0.000 A 
ATOM      4  C   UNL     1      44.302   2.407   9.806  0.00  0.00    +0.000 A 
ATOM      5  F   UNL     1      44.096   1.125   9.477  0.00  0.00    +0.000 F 
ATOM      6  C   UNL     1      45.096   3.227   9.003  0.00  0.00    +0.000 A 
ATOM      7  C   UNL     1      45.297   4.562   9.420  0.00  0.00    +0.000 A 
ENDROOT
BRANCH   6   8
ATOM      8  C   UNL     1      45.783   2.742   7.741  0.00  0.00    +0.000 C 
ATOM      9  C   UNL     1      46.558   3.876   7.051  0.00  0.00    +0.000 C 
ATOM     10  C   UNL     1      47.032   3.394   5.681  0.00  0.00    +0.000 C 
ATOM     11  C   UNL     1      47.828   2.089   5.777  0.00  0.00    +0.000 C 
ATOM     12  N   UNL     1      47.142   1.052   6.551  0.00  0.00    +0.000 NA
ATOM     13  C   UNL     1      46.735   1.535   7.881  0.00  0.00    +0.000 C 
ATOM     14  H   UNL     1      47.766   0.252   6.665  0.00  0.00    +0.000 HD
ENDBRANCH   6   8
BRANCH   1  15
ATOM     15  C   UNL     1      44.985   6.481  11.060  0.00  0.00    +0.000 C 
BRANCH  15  16
ATOM     16  O   UNL     1      45.441   6.473  12.411  0.00  0.00    +0.000 OA
BRANCH  16  21
ATOM     17  C   UNL     1      48.797   8.065  12.343  0.00  0.00    +0.000 A 
ATOM     18  C   UNL     1      49.376   7.260  13.315  0.00  0.00    +0.000 A 
ATOM     19  N   UNL     1      48.715   6.267  13.949  0.00  0.00    +0.000 NA
ATOM     20  C   UNL     1      47.421   6.072  13.594  0.00  0.00    +0.000 A 
ATOM     21  C   UNL     1      46.744   6.820  12.633  0.00  0.00    +0.000 A 
ATOM     22  C   UNL     1      47.458   7.836  11.998  0.00  0.00    +0.000 A 
BRANCH  17  24
ATOM     23  N   UNL     1      50.186   9.928  11.202  0.00  0.00    +0.000 NA
ATOM     24  C   UNL     1      49.558   9.096  11.712  0.00  0.00    +0.000 C 
ENDBRANCH  17  24
ENDBRANCH  16  21
ENDBRANCH  15  16
ENDBRANCH   1  15
TORSDOF 5
ENDMDL
MODEL 4
REMARK VINA RESULT:    -7.053      1.916      2.514
REMARK INTER + INTRA:         -10.035
REMARK INTER:                  -9.495
REMARK INTRA:                  -0.540
REMARK UNBOUND:                -0.920
REMARK  Name = 
REMARK  5 active torsions:
REMARK  status: ('A' for Active; 'I' for Inactive)
REMARK    1  A    between atoms: C_2  and  C_3
REMARK    2  A    between atoms: C_7  and  O_8
REMARK    3  A    between atoms: O_8  and  C_9
REMARK    4  A    between atoms: C_9  and  C_10
REMARK    5  A    between atoms: C_15  and  C_16
REMARK                            x       y       z     vdW  Elec       q    Type
REMARK                         _______ _______ _______ _____ _____    ______ ____
ROOT
ATOM      1  C   UNL     1      44.654   4.943  12.126  0.00  0.00    +0.000 A 
ATOM      2  C   UNL     1      43.778   6.032  12.050  0.00  0.00    +0.000 A 
ATOM      3  C   UNL     1      44.262   7.335  12.169  0.00  0.00    +0.000 A 
ATOM      4  C   UNL     1      45.621   7.561  12.373  0.00  0.00    +0.000 A 
ATOM      5  F   UNL     1      46.045   8.830  12.453  0.00  0.00    +0.000 F 
ATOM      6  C   UNL     1      46.525   6.503  12.477  0.00  0.00    +0.000 A 
ATOM      7  C   UNL     1      46.019   5.190  12.355  0.00  0.00    +0.000 A 
ENDROOT
BRANCH   6   8
ATOM      8  C   UNL     1      48.017   6.699  12.667  0.00  0.00    +0.000 C 
ATOM      9  C   UNL     1      48.597   7.655  11.614  0.00  0.00    +0.000 C 
ATOM     10  C   UNL     1      50.122   7.635  11.708  0.00  0.00    +0.000 C 
ATOM     11  C   UNL     1      50.612   7.932  13.128  0.00  0.00    +0.000 C 
ATOM     12  N   UNL     1      49.957   7.107  14.147  0.00  0.00    +0.000 NA
ATOM     13  C   UNL     1      48.490   7.181  14.056  0.00  0.00    +0.000 C 
ATOM     14  H   UNL     1      50.249   7.425  15.072  0.00  0.00    +0.000 HD
ENDBRANCH   6   8
BRANCH   1  15
ATOM     15  C   UNL     1      44.132   3.531  11.962  0.00  0.00    +0.000 C 
BRANCH  15  16
ATOM     16  O   UNL     1      43.567   3.384  10.661  0.00  0.00    +0.000 OA
BRANCH  16  21
ATOM     17  C   UNL     1      45.919   1.942   8.172  0.00  0.00    +0.000 A 
ATOM     18  C   UNL     1      46.137   3.114   7.460  0.00  0.00    +0.000 A 
ATOM     19  N   UNL     1      45.555   4.293   7.771  0.00  0.00    +0.000 NA
ATOM     20  C   UNL     1      44.721   4.298   8.840  0.00  0.00    +0.000 A 
ATOM     21  C   UNL     1      44.433   3.182   9.623  0.00  0.00    +0.000 A 
ATOM     22  C   UNL     1      45.053   1.982   9.272  0.00  0.00    +0.000 A 
BRANCH  17  24
ATOM     23  N   UNL     1      47.092  -0.257   7.472  0.00  0.00    +0.000 NA
ATOM     24  C   UNL     1      46.571   0.731   7.786  0.00  0.00    +0.000 C 
ENDBRANCH  17  24
ENDBRANCH  16  21
ENDBRANCH  15  16
ENDBRANCH   1  15
TORSDOF 5
ENDMDL
MODEL 5
REMARK VINA RESULT:    -6.719      3.799      7.214
REMARK INTER + INTRA:          -9.603
REMARK INTER:                  -8.767
REMARK INTRA:                  -0.836
REMARK UNBOUND:                -0.920
REMARK  Name = 
REMARK  5 active torsions:
REMARK  status: ('A' for Active; 'I' for Inactive)
REMARK    1  A    between atoms: C_2  and  C_3
REMARK    2  A    between atoms: C_7  and  O_8
REMARK    3  A    between atoms: O_8  and  C_9
REMARK    4  A    between atoms: C_9  and  C_10
REMARK    5  A    between atoms: C_15  and  C_16
REMARK                            x       y       z     vdW  Elec       q    Type
REMARK                         _______ _______ _______ _____ _____    ______ ____
ROOT
ATOM      1  C   UNL     1      47.321   7.226  12.440  0.00  0.00    +0.000 A 
ATOM      2  C   UNL     1      46.551   8.374  12.665  0.00  0.00    +0.000 A 
ATOM      3  C   UNL     1      45.233   8.437  12.213  0.00  0.00    +0.000 A 
ATOM      4  C   UNL     1      44.675   7.361  11.527  0.00  0.00    +0.000 A 
ATOM      5  F   UNL     1      43.396   7.456  11.137  0.00  0.00    +0.000 F 
ATOM      6  C   UNL     1      45.414   6.208  11.262  0.00  0.00    +0.000 A 
ATOM      7  C   UNL     1      46.748   6.159  11.726  0.00  0.00    +0.000 A 
ENDROOT
BRANCH   6   8
ATOM      8  C   UNL     1      44.842   4.998  10.547  0.00  0.00    +0.000 C 
ATOM      9  C   UNL     1      45.489   4.803   9.167  0.00  0.00    +0.000 C 
ATOM     10  C   UNL     1      44.722   3.724   8.405  0.00  0.00    +0.000 C 
ATOM     11  C   UNL     1      44.610   2.425   9.209  0.00  0.00    +0.000 C 
ATOM     12  N   UNL     1      44.117   2.634  10.573  0.00  0.00    +0.000 NA
ATOM     13  C   UNL     1      44.903   3.649  11.294  0.00  0.00    +0.000 C 
ATOM     14  H   UNL     1      44.166   1.751  11.084  0.00  0.00    +0.000 HD
ENDBRANCH   6   8
BRANCH   1  15
ATOM     15  C   UNL     1      48.740   7.145  12.961  0.00  0.00    +0.000 C 
BRANCH  15  16
ATOM     16  O   UNL     1      48.781   7.633  14.300  0.00  0.00    +0.000 OA
BRANCH  16  21
ATOM     17  C   UNL     1      48.310   4.844  16.709  0.00  0.00    +0.000 A 
ATOM     18  C   UNL     1      49.519   5.000  17.374  0.00  0.00    +0.000 A 
ATOM     19  N   UNL     1      50.426   5.951  17.056  0.00  0.00    +0.000 NA
ATOM     20  C   UNL     1      50.107   6.778  16.030  0.00  0.00    +0.000 A 
ATOM     21  C   UNL     1      48.923   6.710  15.298  0.00  0.00    +0.000 A 
ATOM     22  C   UNL     1      48.011   5.718  15.655  0.00  0.00    +0.000 A 
BRANCH  17  24
ATOM     23  N   UNL     1      46.661   2.977  17.414  0.00  0.00    +0.000 NA
ATOM     24  C   UNL     1      47.398   3.818  17.102  0.00  0.00    +0.000 C 
ENDBRANCH  17  24
ENDBRANCH  16  21
ENDBRANCH  15  16
ENDBRANCH   1  15
TORSDOF 5
ENDMDL
MODEL 6
REMARK VINA RESULT:    -6.595      2.182      3.646
REMARK INTER + INTRA:          -9.443
REMARK INTER:                  -9.141
REMARK INTRA:                  -0.302
REMARK UNBOUND:                -0.920
REMARK  Name = 
REMARK  5 active torsions:
REMARK  status: ('A' for Active; 'I' for Inactive)
REMARK    1  A    between atoms: C_2  and  C_3
REMARK    2  A    between atoms: C_7  and  O_8
REMARK    3  A    between atoms: O_8  and  C_9
REMARK    4  A    between atoms: C_9  and  C_10
REMARK    5  A    between atoms: C_15  and  C_16
REMARK                            x       y       z     vdW  Elec       q    Type
REMARK                         _______ _______ _______ _____ _____    ______ ____
ROOT
ATOM      1  C   UNL     1      44.443   5.655  11.855  0.00  0.00    +0.000 A 
ATOM      2  C   UNL     1      44.730   6.989  11.544  0.00  0.00    +0.000 A 
ATOM      3  C   UNL     1      45.825   7.628  12.126  0.00  0.00    +0.000 A 
ATOM      4  C   UNL     1      46.638   6.945  13.026  0.00  0.00    +0.000 A 
ATOM      5  F   UNL     1      47.695   7.590  13.538  0.00  0.00    +0.000 F 
ATOM      6  C   UNL     1      46.375   5.621  13.381  0.00  0.00    +0.000 A 
ATOM      7  C   UNL     1      45.261   4.988  12.784  0.00  0.00    +0.000 A 
ENDROOT
BRANCH   6   8
ATOM      8  C   UNL     1      47.248   4.825  14.332  0.00  0.00    +0.000 C 
ATOM      9  C   UNL     1      47.162   5.372  15.765  0.00  0.00    +0.000 C 
ATOM     10  C   UNL     1      48.224   4.689  16.625  0.00  0.00    +0.000 C 
ATOM     11  C   UNL     1      48.123   3.163  16.554  0.00  0.00    +0.000 C 
ATOM     12  N   UNL     1      48.071   2.652  15.181  0.00  0.00    +0.000 NA
ATOM     13  C   UNL     1      47.011   3.301  14.392  0.00  0.00    +0.000 C 
ATOM     14  H   UNL     1      47.899   1.646  15.205  0.00  0.00    +0.000 HD
ENDBRANCH   6   8
BRANCH   1  15
ATOM     15  C   UNL     1      43.275   4.951  11.197  0.00  0.00    +0.000 C 
BRANCH  15  16
ATOM     16  O   UNL     1      43.627   3.594  10.935  0.00  0.00    +0.000 OA
BRANCH  16  21
ATOM     17  C   UNL     1      45.810   2.058   8.351  0.00  0.00    +0.000 A 
ATOM     18  C   UNL     1      46.000   3.209   7.597  0.00  0.00    +0.000 A 
ATOM     19  N   UNL     1      45.452   4.403   7.911  0.00  0.00    +0.000 NA
ATOM     20  C   UNL     1      44.683   4.447   9.026  0.00  0.00    +0.000 A 
ATOM     21  C   UNL     1      44.427   3.354   9.853  0.00  0.00    +0.000 A 
ATOM     22  C   UNL     1      45.010   2.138   9.499  0.00  0.00    +0.000 A 
BRANCH  17  24
ATOM     23  N   UNL     1      46.924  -0.165   7.631  0.00  0.00    +0.000 NA
ATOM     24  C   UNL     1      46.423   0.829   7.959  0.00  0.00    +0.000 C 
ENDBRANCH  17  24
ENDBRANCH  16  21
ENDBRANCH  15  16
ENDBRANCH   1  15
TORSDOF 5
ENDMDL
MODEL 7
REMARK VINA RESULT:    -6.591      3.865      7.631
REMARK INTER + INTRA:          -9.437
REMARK INTER:                  -8.646
REMARK INTRA:                  -0.791
REMARK UNBOUND:                -0.920
REMARK  Name = 
REMARK  5 active torsions:
REMARK  status: ('A' for Active; 'I' for Inactive)
REMARK    1  A    between atoms: C_2  and  C_3
REMARK    2  A    between atoms: C_7  and  O_8
REMARK    3  A    between atoms: O_8  and  C_9
REMARK    4  A    between atoms: C_9  and  C_10
REMARK    5  A    between atoms: C_15  and  C_16
REMARK                            x       y       z     vdW  Elec       q    Type
REMARK                         _______ _______ _______ _____ _____    ______ ____
ROOT
ATOM      1  C   UNL     1      46.894   7.030  12.984  0.00  0.00    +0.000 A 
ATOM      2  C   UNL     1      46.207   8.249  12.999  0.00  0.00    +0.000 A 
ATOM      3  C   UNL     1      45.028   8.402  12.269  0.00  0.00    +0.000 A 
ATOM      4  C   UNL     1      44.530   7.344  11.513  0.00  0.00    +0.000 A 
ATOM      5  F   UNL     1      43.380   7.527  10.851  0.00  0.00    +0.000 F 
ATOM      6  C   UNL     1      45.196   6.119  11.453  0.00  0.00    +0.000 A 
ATOM      7  C   UNL     1      46.389   5.980  12.198  0.00  0.00    +0.000 A 
ENDROOT
BRANCH   6   8
ATOM      8  C   UNL     1      44.678   4.927  10.670  0.00  0.00    +0.000 C 
ATOM      9  C   UNL     1      45.375   4.804   9.307  0.00  0.00    +0.000 C 
ATOM     10  C   UNL     1      44.660   3.740   8.476  0.00  0.00    +0.000 C 
ATOM     11  C   UNL     1      44.553   2.407   9.222  0.00  0.00    +0.000 C 
ATOM     12  N   UNL     1      44.009   2.548  10.576  0.00  0.00    +0.000 NA
ATOM     13  C   UNL     1      44.745   3.550  11.364  0.00  0.00    +0.000 C 
ATOM     14  H   UNL     1      44.062   1.646  11.052  0.00  0.00    +0.000 HD
ENDBRANCH   6   8
BRANCH   1  15
ATOM     15  C   UNL     1      48.155   6.854  13.805  0.00  0.00    +0.000 C 
BRANCH  15  16
ATOM     16  O   UNL     1      48.266   5.493  14.216  0.00  0.00    +0.000 OA
BRANCH  16  21
ATOM     17  C   UNL     1      48.179   5.465  17.930  0.00  0.00    +0.000 A 
ATOM     18  C   UNL     1      47.299   4.398  18.062  0.00  0.00    +0.000 A 
ATOM     19  N   UNL     1      46.771   3.735  17.010  0.00  0.00    +0.000 NA
ATOM     20  C   UNL     1      47.139   4.158  15.775  0.00  0.00    +0.000 A 
ATOM     21  C   UNL     1      48.014   5.215  15.530  0.00  0.00    +0.000 A 
ATOM     22  C   UNL     1      48.541   5.875  16.640  0.00  0.00    +0.000 A 
BRANCH  17  24
ATOM     23  N   UNL     1      49.124   6.638  20.035  0.00  0.00    +0.000 NA
ATOM     24  C   UNL     1      48.700   6.117  19.089  0.00  0.00    +0.000 C 
ENDBRANCH  17  24
ENDBRANCH  16  21
ENDBRANCH  15  16
ENDBRANCH   1  15
TORSDOF 5
ENDMDL
MODEL 8
REMARK VINA RESULT:    -6.289      4.325      7.172
REMARK INTER + INTRA:          -9.047
REMARK INTER:                  -8.262
REMARK INTRA:                  -0.786
REMARK UNBOUND:                -0.920
REMARK  Name = 
REMARK  5 active torsions:
REMARK  status: ('A' for Active; 'I' for Inactive)
REMARK    1  A    between atoms: C_2  and  C_3
REMARK    2  A    between atoms: C_7  and  O_8
REMARK    3  A    between atoms: O_8  and  C_9
REMARK    4  A    between atoms: C_9  and  C_10
REMARK    5  A    between atoms: C_15  and  C_16
REMARK                            x       y       z     vdW  Elec       q    Type
REMARK                         _______ _______ _______ _____ _____    ______ ____
ROOT
ATOM      1  C   UNL     1      47.799   7.079  14.034  0.00  0.00    +0.000 A 
ATOM      2  C   UNL     1      47.475   8.422  13.812  0.00  0.00    +0.000 A 
ATOM      3  C   UNL     1      46.394   8.759  12.995  0.00  0.00    +0.000 A 
ATOM      4  C   UNL     1      45.634   7.762  12.391  0.00  0.00    +0.000 A 
ATOM      5  F   UNL     1      44.589   8.132  11.639  0.00  0.00    +0.000 F 
ATOM      6  C   UNL     1      45.937   6.411  12.569  0.00  0.00    +0.000 A 
ATOM      7  C   UNL     1      47.034   6.086  13.397  0.00  0.00    +0.000 A 
ENDROOT
BRANCH   6   8
ATOM      8  C   UNL     1      45.121   5.288  11.958  0.00  0.00    +0.000 C 
ATOM      9  C   UNL     1      45.252   5.266  10.427  0.00  0.00    +0.000 C 
ATOM     10  C   UNL     1      44.240   4.275   9.855  0.00  0.00    +0.000 C 
ATOM     11  C   UNL     1      44.373   2.889  10.492  0.00  0.00    +0.000 C 
ATOM     12  N   UNL     1      44.381   2.927  11.956  0.00  0.00    +0.000 NA
ATOM     13  C   UNL     1      45.394   3.860  12.477  0.00  0.00    +0.000 C 
ATOM     14  H   UNL     1      44.577   1.991  12.314  0.00  0.00    +0.000 HD
ENDBRANCH   6   8
BRANCH   1  15
ATOM     15  C   UNL     1      48.950   6.713  14.947  0.00  0.00    +0.000 C 
BRANCH  15  16
ATOM     16  O   UNL     1      48.448   6.437  16.253  0.00  0.00    +0.000 OA
BRANCH  16  21
ATOM     17  C   UNL     1      49.233   2.919  17.155  0.00  0.00    +0.000 A 
ATOM     18  C   UNL     1      47.930   2.532  17.439  0.00  0.00    +0.000 A 
ATOM     19  N   UNL     1      46.869   3.363  17.342  0.00  0.00    +0.000 NA
ATOM     20  C   UNL     1      47.124   4.634  16.946  0.00  0.00    +0.000 A 
ATOM     21  C   UNL     1      48.391   5.126  16.636  0.00  0.00    +0.000 A 
ATOM     22  C   UNL     1      49.462   4.239  16.746  0.00  0.00    +0.000 A 
BRANCH  17  24
ATOM     23  N   UNL     1      51.183   1.232  17.382  0.00  0.00    +0.000 NA
ATOM     24  C   UNL     1      50.306   1.984  17.277  0.00  0.00    +0.000 C 
ENDBRANCH  17  24
ENDBRANCH  16  21
ENDBRANCH  15  16
ENDBRANCH   1  15
TORSDOF 5
ENDMDL
MODEL 9
REMARK VINA RESULT:    -5.749      3.594      6.843
REMARK INTER + INTRA:          -8.349
REMARK INTER:                  -7.565
REMARK INTRA:                  -0.784
REMARK UNBOUND:                -0.920
REMARK  Name = 
REMARK  5 active torsions:
REMARK  status: ('A' for Active; 'I' for Inactive)
REMARK    1  A    between atoms: C_2  and  C_3
REMARK    2  A    between atoms: C_7  and  O_8
REMARK    3  A    between atoms: O_8  and  C_9
REMARK    4  A    between atoms: C_9  and  C_10
REMARK    5  A    between atoms: C_15  and  C_16
REMARK                            x       y       z     vdW  Elec       q    Type
REMARK                         _______ _______ _______ _____ _____    ______ ____
ROOT
ATOM      1  C   UNL     1      47.190   7.099  12.612  0.00  0.00    +0.000 A 
ATOM      2  C   UNL     1      46.435   8.261  12.808  0.00  0.00    +0.000 A 
ATOM      3  C   UNL     1      45.146   8.360  12.283  0.00  0.00    +0.000 A 
ATOM      4  C   UNL     1      44.603   7.305  11.553  0.00  0.00    +0.000 A 
ATOM      5  F   UNL     1      43.352   7.434  11.092  0.00  0.00    +0.000 F 
ATOM      6  C   UNL     1      45.331   6.138  11.316  0.00  0.00    +0.000 A 
ATOM      7  C   UNL     1      46.635   6.054  11.854  0.00  0.00    +0.000 A 
ENDROOT
BRANCH   6   8
ATOM      8  C   UNL     1      44.773   4.950  10.554  0.00  0.00    +0.000 C 
ATOM      9  C   UNL     1      45.479   4.768   9.202  0.00  0.00    +0.000 C 
ATOM     10  C   UNL     1      44.731   3.714   8.388  0.00  0.00    +0.000 C 
ATOM     11  C   UNL     1      44.563   2.404   9.163  0.00  0.00    +0.000 C 
ATOM     12  N   UNL     1      44.012   2.598  10.507  0.00  0.00    +0.000 NA
ATOM     13  C   UNL     1      44.779   3.588  11.280  0.00  0.00    +0.000 C 
ATOM     14  H   UNL     1      44.023   1.706  11.004  0.00  0.00    +0.000 HD
ENDBRANCH   6   8
BRANCH   1  15
ATOM     15  C   UNL     1      48.575   6.979  13.212  0.00  0.00    +0.000 C 
BRANCH  15  16
ATOM     16  O   UNL     1      49.168   8.273  13.297  0.00  0.00    +0.000 OA
BRANCH  16  21
ATOM     17  C   UNL     1      51.734   8.161  10.613  0.00  0.00    +0.000 A 
ATOM     18  C   UNL     1      52.163   9.475  10.745  0.00  0.00    +0.000 A 
ATOM     19  N   UNL     1      51.648  10.338  11.649  0.00  0.00    +0.000 NA
ATOM     20  C   UNL     1      50.664   9.865  12.452  0.00  0.00    +0.000 A 
ATOM     21  C   UNL     1      50.160   8.566  12.404  0.00  0.00    +0.000 A 
ATOM     22  C   UNL     1      50.717   7.703  11.460  0.00  0.00    +0.000 A 
BRANCH  17  24
ATOM     23  N   UNL     1      52.805   6.614   8.835  0.00  0.00    +0.000 NA
ATOM     24  C   UNL     1      52.327   7.304   9.636  0.00  0.00    +0.000 C 
ENDBRANCH  17  24
ENDBRANCH  16  21
ENDBRANCH  15  16
ENDBRANCH   1  15
TORSDOF 5
ENDMDL
