MODEL 1
REMARK VINA RESULT:    -7.778      0.000      0.000
REMARK INTER + INTRA:         -10.270
REMARK INTER:                 -10.052
REMARK INTRA:                  -0.218
REMARK UNBOUND:                -0.218
REMARK  Name = 
REMARK  5 active torsions:
REMARK  status: ('A' for Active; 'I' for Inactive)
REMARK    1  A    between atoms: C_2  and  C_4
REMARK    2  A    between atoms: C_7  and  C_8
REMARK    3  A    between atoms: C_8  and  C_9
REMARK    4  A    between atoms: C_12  and  O_13
REMARK    5  A    between atoms: O_13  and  C_14
REMARK                            x       y       z     vdW  Elec       q    Type
REMARK                         _______ _______ _______ _____ _____    ______ ____
ROOT
ATOM      1  C   UNL     1      44.395   3.936  11.532  0.00  0.00    +0.000 C 
ATOM      2  C   UNL     1      42.967   4.346  11.925  0.00  0.00    +0.000 C 
ATOM      3  C   UNL     1      43.410   2.939  12.157  0.00  0.00    +0.000 C 
ENDROOT
BRANCH   1   7
ATOM      4  C   UNL     1      47.390   5.454  14.105  0.00  0.00    +0.000 A 
ATOM      5  C   UNL     1      47.064   4.109  14.118  0.00  0.00    +0.000 A 
ATOM      6  N   UNL     1      46.144   3.575  13.273  0.00  0.00    +0.000 NA
ATOM      7  C   UNL     1      45.545   4.435  12.397  0.00  0.00    +0.000 A 
ATOM      8  C   UNL     1      45.922   5.780  12.376  0.00  0.00    +0.000 A 
ATOM      9  N   UNL     1      46.829   6.332  13.226  0.00  0.00    +0.000 NA
BRANCH   4  11
ATOM     10  N   UNL     1      47.953   5.829  16.426  0.00  0.00    +0.000 N 
ATOM     11  C   UNL     1      48.319   6.017  15.118  0.00  0.00    +0.000 C 
ATOM     12  O   UNL     1      49.355   6.595  14.807  0.00  0.00    +0.000 OA
ATOM     13  H   UNL     1      48.570   6.129  17.166  0.00  0.00    +0.000 HD
ATOM     14  H   UNL     1      47.115   5.305  16.640  0.00  0.00    +0.000 HD
ENDBRANCH   4  11
ENDBRANCH   1   7
BRANCH   1  15
ATOM     15  C   UNL     1      44.640   3.764  10.038  0.00  0.00    +0.000 A 
ATOM     16  C   UNL     1      45.313   4.753   9.317  0.00  0.00    +0.000 A 
ATOM     17  C   UNL     1      45.947   4.427   8.114  0.00  0.00    +0.000 A 
ATOM     18  C   UNL     1      45.838   3.137   7.614  0.00  0.00    +0.000 A 
ATOM     19  C   UNL     1      45.044   2.250   8.332  0.00  0.00    +0.000 A 
ATOM     20  N   UNL     1      44.440   2.532   9.507  0.00  0.00    +0.000 NA
BRANCH  18  21
ATOM     21  O   UNL     1      46.433   2.601   6.522  0.00  0.00    +0.000 OA
BRANCH  21  22
ATOM     22  C   UNL     1      47.782   2.174   6.559  0.00  0.00    +0.000 C 
ATOM     23  F   UNL     1      48.639   3.131   6.966  0.00  0.00    +0.000 F 
ATOM     24  F   UNL     1      47.905   1.095   7.359  0.00  0.00    +0.000 F 
ATOM     25  F   UNL     1      48.134   1.814   5.305  0.00  0.00    +0.000 F 
ENDBRANCH  21  22
ENDBRANCH  18  21
ENDBRANCH   1  15
TORSDOF 5
ENDMDL
MODEL 2
REMARK VINA RESULT:    -7.712      4.056      7.089
REMARK INTER + INTRA:         -10.185
REMARK INTER:                  -9.894
REMARK INTRA:                  -0.290
REMARK UNBOUND:                -0.218
REMARK  Name = 
REMARK  5 active torsions:
REMARK  status: ('A' for Active; 'I' for Inactive)
REMARK    1  A    between atoms: C_2  and  C_4
REMARK    2  A    between atoms: C_7  and  C_8
REMARK    3  A    between atoms: C_8  and  C_9
REMARK    4  A    between atoms: C_12  and  O_13
REMARK    5  A    between atoms: O_13  and  C_14
REMARK                            x       y       z     vdW  Elec       q    Type
REMARK                         _______ _______ _______ _____ _____    ______ ____
ROOT
ATOM      1  C   UNL     1      44.379   4.480  11.054  0.00  0.00    +0.000 C 
ATOM      2  C   UNL     1      43.022   3.923  11.513  0.00  0.00    +0.000 C 
ATOM      3  C   UNL     1      43.080   5.281  10.897  0.00  0.00    +0.000 C 
ENDROOT
BRANCH   1   7
ATOM      4  C   UNL     1      46.379   2.908   7.675  0.00  0.00    +0.000 A 
ATOM      5  C   UNL     1      45.793   2.065   8.602  0.00  0.00    +0.000 A 
ATOM      6  N   UNL     1      45.100   2.532   9.673  0.00  0.00    +0.000 NA
ATOM      7  C   UNL     1      45.005   3.889   9.798  0.00  0.00    +0.000 A 
ATOM      8  C   UNL     1      45.570   4.717   8.824  0.00  0.00    +0.000 A 
ATOM      9  N   UNL     1      46.280   4.265   7.756  0.00  0.00    +0.000 NA
BRANCH   4  11
ATOM     10  N   UNL     1      47.176   3.050   5.396  0.00  0.00    +0.000 N 
ATOM     11  C   UNL     1      47.221   2.359   6.580  0.00  0.00    +0.000 C 
ATOM     12  O   UNL     1      47.923   1.366   6.729  0.00  0.00    +0.000 OA
ATOM     13  H   UNL     1      47.771   2.770   4.630  0.00  0.00    +0.000 HD
ATOM     14  H   UNL     1      46.619   3.892   5.329  0.00  0.00    +0.000 HD
ENDBRANCH   4  11
ENDBRANCH   1   7
BRANCH   1  15
ATOM     15  C   UNL     1      45.307   4.948  12.168  0.00  0.00    +0.000 A 
ATOM     16  C   UNL     1      45.944   4.018  12.992  0.00  0.00    +0.000 A 
ATOM     17  C   UNL     1      47.113   4.376  13.671  0.00  0.00    +0.000 A 
ATOM     18  C   UNL     1      47.586   5.677  13.574  0.00  0.00    +0.000 A 
ATOM     19  C   UNL     1      46.819   6.570  12.835  0.00  0.00    +0.000 A 
ATOM     20  N   UNL     1      45.700   6.247  12.151  0.00  0.00    +0.000 NA
BRANCH  18  21
ATOM     21  O   UNL     1      48.728   6.200  14.082  0.00  0.00    +0.000 OA
BRANCH  21  22
ATOM     22  C   UNL     1      48.813   6.590  15.439  0.00  0.00    +0.000 C 
ATOM     23  F   UNL     1      48.121   5.790  16.274  0.00  0.00    +0.000 F 
ATOM     24  F   UNL     1      50.103   6.634  15.830  0.00  0.00    +0.000 F 
ATOM     25  F   UNL     1      48.297   7.835  15.542  0.00  0.00    +0.000 F 
ENDBRANCH  21  22
ENDBRANCH  18  21
ENDBRANCH   1  15
TORSDOF 5
ENDMDL
MODEL 3
REMARK VINA RESULT:    -7.663      1.223      1.715
REMARK INTER + INTRA:         -10.121
REMARK INTER:                  -9.846
REMARK INTRA:                  -0.275
REMARK UNBOUND:                -0.218
REMARK  Name = 
REMARK  5 active torsions:
REMARK  status: ('A' for Active; 'I' for Inactive)
REMARK    1  A    between atoms: C_2  and  C_4
REMARK    2  A    between atoms: C_7  and  C_8
REMARK    3  A    between atoms: C_8  and  C_9
REMARK    4  A    between atoms: C_12  and  O_13
REMARK    5  A    between atoms: O_13  and  C_14
REMARK                            x       y       z     vdW  Elec       q    Type
REMARK                         _______ _______ _______ _____ _____    ______ ____
ROOT
ATOM      1  C   UNL     1      44.368   4.495  11.576  0.00  0.00    +0.000 C 
ATOM      2  C   UNL     1      42.942   5.002  11.838  0.00  0.00    +0.000 C 
ATOM      3  C   UNL     1      43.393   3.735  12.484  0.00  0.00    +0.000 C 
ENDROOT
BRANCH   1   7
ATOM      4  C   UNL     1      47.757   6.394  13.250  0.00  0.00    +0.000 A 
ATOM      5  C   UNL     1      46.950   7.061  12.346  0.00  0.00    +0.000 A 
ATOM      6  N   UNL     1      45.826   6.504  11.824  0.00  0.00    +0.000 NA
ATOM      7  C   UNL     1      45.522   5.237  12.237  0.00  0.00    +0.000 A 
ATOM      8  C   UNL     1      46.332   4.602  13.183  0.00  0.00    +0.000 A 
ATOM      9  N   UNL     1      47.468   5.140  13.701  0.00  0.00    +0.000 NA
BRANCH   4  11
ATOM     10  N   UNL     1      49.971   7.217  12.735  0.00  0.00    +0.000 N 
ATOM     11  C   UNL     1      49.034   6.996  13.712  0.00  0.00    +0.000 C 
ATOM     12  O   UNL     1      49.233   7.294  14.884  0.00  0.00    +0.000 OA
ATOM     13  H   UNL     1      50.837   7.682  12.967  0.00  0.00    +0.000 HD
ATOM     14  H   UNL     1      49.750   7.000  11.772  0.00  0.00    +0.000 HD
ENDBRANCH   4  11
ENDBRANCH   1   7
BRANCH   1  15
ATOM     15  C   UNL     1      44.602   3.877  10.203  0.00  0.00    +0.000 A 
ATOM     16  C   UNL     1      45.082   4.659   9.150  0.00  0.00    +0.000 A 
ATOM     17  C   UNL     1      45.731   4.052   8.071  0.00  0.00    +0.000 A 
ATOM     18  C   UNL     1      45.828   2.668   8.026  0.00  0.00    +0.000 A 
ATOM     19  C   UNL     1      45.212   1.962   9.053  0.00  0.00    +0.000 A 
ATOM     20  N   UNL     1      44.599   2.523  10.117  0.00  0.00    +0.000 NA
BRANCH  18  21
ATOM     21  O   UNL     1      46.478   1.896   7.122  0.00  0.00    +0.000 OA
BRANCH  21  22
ATOM     22  C   UNL     1      47.444   2.449   6.249  0.00  0.00    +0.000 C 
ATOM     23  F   UNL     1      46.922   3.279   5.324  0.00  0.00    +0.000 F 
ATOM     24  F   UNL     1      48.388   3.106   6.955  0.00  0.00    +0.000 F 
ATOM     25  F   UNL     1      48.040   1.428   5.595  0.00  0.00    +0.000 F 
ENDBRANCH  21  22
ENDBRANCH  18  21
ENDBRANCH   1  15
TORSDOF 5
ENDMDL
MODEL 4
REMARK VINA RESULT:    -6.774      3.990      7.236
REMARK INTER + INTRA:          -8.972
REMARK INTER:                  -8.918
REMARK INTRA:                  -0.054
REMARK UNBOUND:                -0.218
REMARK  Name = 
REMARK  5 active torsions:
REMARK  status: ('A' for Active; 'I' for Inactive)
REMARK    1  A    between atoms: C_2  and  C_4
REMARK    2  A    between atoms: C_7  and  C_8
REMARK    3  A    between atoms: C_8  and  C_9
REMARK    4  A    between atoms: C_12  and  O_13
REMARK    5  A    between atoms: O_13  and  C_14
REMARK                            x       y       z     vdW  Elec       q    Type
REMARK                         _______ _______ _______ _____ _____    ______ ____
ROOT
ATOM      1  C   UNL     1      44.582   4.860  10.959  0.00  0.00    +0.000 C 
ATOM      2  C   UNL     1      43.823   4.068  12.035  0.00  0.00    +0.000 C 
ATOM      3  C   UNL     1      43.067   5.004  11.152  0.00  0.00    +0.000 C 
ENDROOT
BRANCH   1   7
ATOM      4  C   UNL     1      46.220   2.822   7.634  0.00  0.00    +0.000 A 
ATOM      5  C   UNL     1      45.624   2.121   8.668  0.00  0.00    +0.000 A 
ATOM      6  N   UNL     1      45.043   2.741   9.728  0.00  0.00    +0.000 NA
ATOM      7  C   UNL     1      45.073   4.106   9.730  0.00  0.00    +0.000 A 
ATOM      8  C   UNL     1      45.645   4.791   8.654  0.00  0.00    +0.000 A 
ATOM      9  N   UNL     1      46.244   4.184   7.595  0.00  0.00    +0.000 NA
BRANCH   4  11
ATOM     10  N   UNL     1      47.370   2.885   5.508  0.00  0.00    +0.000 N 
ATOM     11  C   UNL     1      46.939   2.104   6.550  0.00  0.00    +0.000 C 
ATOM     12  O   UNL     1      47.151   0.897   6.591  0.00  0.00    +0.000 OA
ATOM     13  H   UNL     1      47.921   2.474   4.769  0.00  0.00    +0.000 HD
ATOM     14  H   UNL     1      47.216   3.884   5.536  0.00  0.00    +0.000 HD
ENDBRANCH   4  11
ENDBRANCH   1   7
BRANCH   1  15
ATOM     15  C   UNL     1      45.421   6.025  11.471  0.00  0.00    +0.000 A 
ATOM     16  C   UNL     1      44.866   7.303  11.569  0.00  0.00    +0.000 A 
ATOM     17  C   UNL     1      45.426   8.240  12.442  0.00  0.00    +0.000 A 
ATOM     18  C   UNL     1      46.573   7.910  13.151  0.00  0.00    +0.000 A 
ATOM     19  C   UNL     1      47.130   6.662  12.898  0.00  0.00    +0.000 A 
ATOM     20  N   UNL     1      46.598   5.731  12.077  0.00  0.00    +0.000 NA
BRANCH  18  21
ATOM     21  O   UNL     1      47.220   8.635  14.095  0.00  0.00    +0.000 OA
BRANCH  21  22
ATOM     22  C   UNL     1      48.302   9.481  13.754  0.00  0.00    +0.000 C 
ATOM     23  F   UNL     1      48.148  10.099  12.566  0.00  0.00    +0.000 F 
ATOM     24  F   UNL     1      48.490  10.406  14.718  0.00  0.00    +0.000 F 
ATOM     25  F   UNL     1      49.413   8.716  13.679  0.00  0.00    +0.000 F 
ENDBRANCH  21  22
ENDBRANCH  18  21
ENDBRANCH   1  15
TORSDOF 5
ENDMDL
MODEL 5
REMARK VINA RESULT:    -6.290      2.630      4.125
REMARK INTER + INTRA:          -8.347
REMARK INTER:                  -8.962
REMARK INTRA:                   0.615
REMARK UNBOUND:                -0.218
REMARK  Name = 
REMARK  5 active torsions:
REMARK  status: ('A' for Active; 'I' for Inactive)
REMARK    1  A    between atoms: C_2  and  C_4
REMARK    2  A    between atoms: C_7  and  C_8
REMARK    3  A    between atoms: C_8  and  C_9
REMARK    4  A    between atoms: C_12  and  O_13
REMARK    5  A    between atoms: O_13  and  C_14
REMARK                            x       y       z     vdW  Elec       q    Type
REMARK                         _______ _______ _______ _____ _____    ______ ____
ROOT
ATOM      1  C   UNL     1      47.328   5.920  13.577  0.00  0.00    +0.000 C 
ATOM      2  C   UNL     1      48.395   6.483  12.625  0.00  0.00    +0.000 C 
ATOM      3  C   UNL     1      47.448   7.423  13.294  0.00  0.00    +0.000 C 
ENDROOT
BRANCH   1   7
ATOM      4  C   UNL     1      48.389   4.695  17.484  0.00  0.00    +0.000 A 
ATOM      5  C   UNL     1      47.698   3.843  16.641  0.00  0.00    +0.000 A 
ATOM      6  N   UNL     1      47.383   4.180  15.363  0.00  0.00    +0.000 NA
ATOM      7  C   UNL     1      47.783   5.416  14.940  0.00  0.00    +0.000 A 
ATOM      8  C   UNL     1      48.515   6.241  15.799  0.00  0.00    +0.000 A 
ATOM      9  N   UNL     1      48.823   5.923  17.084  0.00  0.00    +0.000 NA
BRANCH   4  11
ATOM     10  N   UNL     1      48.304   3.039  19.244  0.00  0.00    +0.000 N 
ATOM     11  C   UNL     1      48.617   4.331  18.906  0.00  0.00    +0.000 C 
ATOM     12  O   UNL     1      49.071   5.125  19.722  0.00  0.00    +0.000 OA
ATOM     13  H   UNL     1      48.493   2.705  20.177  0.00  0.00    +0.000 HD
ATOM     14  H   UNL     1      47.975   2.401  18.530  0.00  0.00    +0.000 HD
ENDBRANCH   4  11
ENDBRANCH   1   7
BRANCH   1  15
ATOM     15  C   UNL     1      46.154   5.218  12.905  0.00  0.00    +0.000 A 
ATOM     16  C   UNL     1      45.467   5.839  11.860  0.00  0.00    +0.000 A 
ATOM     17  C   UNL     1      44.738   5.067  10.950  0.00  0.00    +0.000 A 
ATOM     18  C   UNL     1      44.648   3.695  11.141  0.00  0.00    +0.000 A 
ATOM     19  C   UNL     1      45.257   3.178  12.278  0.00  0.00    +0.000 A 
ATOM     20  N   UNL     1      45.985   3.896  13.160  0.00  0.00    +0.000 NA
BRANCH  18  21
ATOM     21  O   UNL     1      44.066   2.768  10.342  0.00  0.00    +0.000 OA
BRANCH  21  22
ATOM     22  C   UNL     1      44.710   2.302   9.172  0.00  0.00    +0.000 C 
ATOM     23  F   UNL     1      46.054   2.393   9.225  0.00  0.00    +0.000 F 
ATOM     24  F   UNL     1      44.358   1.023   8.927  0.00  0.00    +0.000 F 
ATOM     25  F   UNL     1      44.287   3.063   8.139  0.00  0.00    +0.000 F 
ENDBRANCH  21  22
ENDBRANCH  18  21
ENDBRANCH   1  15
TORSDOF 5
ENDMDL
MODEL 6
REMARK VINA RESULT:    -6.210      2.130      2.514
REMARK INTER + INTRA:          -8.243
REMARK INTER:                  -8.207
REMARK INTRA:                  -0.036
REMARK UNBOUND:                -0.218
REMARK  Name = 
REMARK  5 active torsions:
REMARK  status: ('A' for Active; 'I' for Inactive)
REMARK    1  A    between atoms: C_2  and  C_4
REMARK    2  A    between atoms: C_7  and  C_8
REMARK    3  A    between atoms: C_8  and  C_9
REMARK    4  A    between atoms: C_12  and  O_13
REMARK    5  A    between atoms: O_13  and  C_14
REMARK                            x       y       z     vdW  Elec       q    Type
REMARK                         _______ _______ _______ _____ _____    ______ ____
ROOT
ATOM      1  C   UNL     1      45.800   5.001  12.410  0.00  0.00    +0.000 C 
ATOM      2  C   UNL     1      44.835   4.510  13.500  0.00  0.00    +0.000 C 
ATOM      3  C   UNL     1      46.126   3.791  13.294  0.00  0.00    +0.000 C 
ENDROOT
BRANCH   1   7
ATOM      4  C   UNL     1      47.813   8.592  13.381  0.00  0.00    +0.000 A 
ATOM      5  C   UNL     1      48.508   7.400  13.276  0.00  0.00    +0.000 A 
ATOM      6  N   UNL     1      47.906   6.236  12.918  0.00  0.00    +0.000 NA
ATOM      7  C   UNL     1      46.566   6.293  12.662  0.00  0.00    +0.000 A 
ATOM      8  C   UNL     1      45.896   7.517  12.735  0.00  0.00    +0.000 A 
ATOM      9  N   UNL     1      46.481   8.686  13.108  0.00  0.00    +0.000 NA
BRANCH   4  11
ATOM     10  N   UNL     1      48.426  10.014  15.238  0.00  0.00    +0.000 N 
ATOM     11  C   UNL     1      48.486   9.818  13.882  0.00  0.00    +0.000 C 
ATOM     12  O   UNL     1      49.072  10.595  13.137  0.00  0.00    +0.000 OA
ATOM     13  H   UNL     1      48.916  10.792  15.654  0.00  0.00    +0.000 HD
ATOM     14  H   UNL     1      47.973   9.325  15.823  0.00  0.00    +0.000 HD
ENDBRANCH   4  11
ENDBRANCH   1   7
BRANCH   1  15
ATOM     15  C   UNL     1      45.391   4.675  10.978  0.00  0.00    +0.000 A 
ATOM     16  C   UNL     1      45.780   5.508   9.927  0.00  0.00    +0.000 A 
ATOM     17  C   UNL     1      45.833   5.006   8.623  0.00  0.00    +0.000 A 
ATOM     18  C   UNL     1      45.428   3.702   8.379  0.00  0.00    +0.000 A 
ATOM     19  C   UNL     1      44.936   2.984   9.463  0.00  0.00    +0.000 A 
ATOM     20  N   UNL     1      44.895   3.436  10.735  0.00  0.00    +0.000 NA
BRANCH  18  21
ATOM     21  O   UNL     1      45.475   3.006   7.218  0.00  0.00    +0.000 OA
BRANCH  21  22
ATOM     22  C   UNL     1      46.676   2.901   6.477  0.00  0.00    +0.000 C 
ATOM     23  F   UNL     1      46.843   3.892   5.577  0.00  0.00    +0.000 F 
ATOM     24  F   UNL     1      47.736   2.873   7.311  0.00  0.00    +0.000 F 
ATOM     25  F   UNL     1      46.640   1.733   5.798  0.00  0.00    +0.000 F 
ENDBRANCH  21  22
ENDBRANCH  18  21
ENDBRANCH   1  15
TORSDOF 5
ENDMDL
MODEL 7
REMARK VINA RESULT:    -5.817      4.363      5.934
REMARK INTER + INTRA:          -7.735
REMARK INTER:                  -7.372
REMARK INTRA:                  -0.363
REMARK UNBOUND:                -0.218
REMARK  Name = 
REMARK  5 active torsions:
REMARK  status: ('A' for Active; 'I' for Inactive)
REMARK    1  A    between atoms: C_2  and  C_4
REMARK    2  A    between atoms: C_7  and  C_8
REMARK    3  A    between atoms: C_8  and  C_9
REMARK    4  A    between atoms: C_12  and  O_13
REMARK    5  A    between atoms: O_13  and  C_14
REMARK                            x       y       z     vdW  Elec       q    Type
REMARK                         _______ _______ _______ _____ _____    ______ ____
ROOT
ATOM      1  C   UNL     1      48.517   7.532  13.542  0.00  0.00    +0.000 C 
ATOM      2  C   UNL     1      49.854   7.727  12.810  0.00  0.00    +0.000 C 
ATOM      3  C   UNL     1      49.269   8.868  13.573  0.00  0.00    +0.000 C 
ENDROOT
BRANCH   1   7
ATOM      4  C   UNL     1      48.279   5.349  17.157  0.00  0.00    +0.000 A 
ATOM      5  C   UNL     1      47.885   4.777  15.960  0.00  0.00    +0.000 A 
ATOM      6  N   UNL     1      47.992   5.427  14.772  0.00  0.00    +0.000 NA
ATOM      7  C   UNL     1      48.513   6.689  14.810  0.00  0.00    +0.000 A 
ATOM      8  C   UNL     1      48.942   7.227  16.026  0.00  0.00    +0.000 A 
ATOM      9  N   UNL     1      48.826   6.595  17.224  0.00  0.00    +0.000 NA
BRANCH   4  11
ATOM     10  N   UNL     1      47.577   3.361  18.341  0.00  0.00    +0.000 N 
ATOM     11  C   UNL     1      48.043   4.646  18.444  0.00  0.00    +0.000 C 
ATOM     12  O   UNL     1      48.267   5.173  19.529  0.00  0.00    +0.000 OA
ATOM     13  H   UNL     1      47.455   2.804  19.173  0.00  0.00    +0.000 HD
ATOM     14  H   UNL     1      47.450   2.947  17.426  0.00  0.00    +0.000 HD
ENDBRANCH   4  11
ENDBRANCH   1   7
BRANCH   1  15
ATOM     15  C   UNL     1      47.281   7.497  12.651  0.00  0.00    +0.000 A 
ATOM     16  C   UNL     1      47.203   6.593  11.589  0.00  0.00    +0.000 A 
ATOM     17  C   UNL     1      45.954   6.222  11.081  0.00  0.00    +0.000 A 
ATOM     18  C   UNL     1      44.807   6.814  11.593  0.00  0.00    +0.000 A 
ATOM     19  C   UNL     1      44.986   7.796  12.560  0.00  0.00    +0.000 A 
ATOM     20  N   UNL     1      46.177   8.157  13.084  0.00  0.00    +0.000 NA
BRANCH  18  21
ATOM     21  O   UNL     1      43.513   6.541  11.300  0.00  0.00    +0.000 OA
BRANCH  21  22
ATOM     22  C   UNL     1      42.844   5.444  11.893  0.00  0.00    +0.000 C 
ATOM     23  F   UNL     1      43.196   5.230  13.177  0.00  0.00    +0.000 F 
ATOM     24  F   UNL     1      41.509   5.620  11.819  0.00  0.00    +0.000 F 
ATOM     25  F   UNL     1      43.165   4.337  11.189  0.00  0.00    +0.000 F 
ENDBRANCH  21  22
ENDBRANCH  18  21
ENDBRANCH   1  15
TORSDOF 5
ENDMDL
MODEL 8
REMARK VINA RESULT:    -5.582      5.808      8.747
REMARK INTER + INTRA:          -7.432
REMARK INTER:                  -7.093
REMARK INTRA:                  -0.339
REMARK UNBOUND:                -0.218
REMARK  Name = 
REMARK  5 active torsions:
REMARK  status: ('A' for Active; 'I' for Inactive)
REMARK    1  A    between atoms: C_2  and  C_4
REMARK    2  A    between atoms: C_7  and  C_8
REMARK    3  A    between atoms: C_8  and  C_9
REMARK    4  A    between atoms: C_12  and  O_13
REMARK    5  A    between atoms: O_13  and  C_14
REMARK                            x       y       z     vdW  Elec       q    Type
REMARK                         _______ _______ _______ _____ _____    ______ ____
ROOT
ATOM      1  C   UNL     1      48.386   7.639  12.794  0.00  0.00    +0.000 C 
ATOM      2  C   UNL     1      48.886   8.633  11.734  0.00  0.00    +0.000 C 
ATOM      3  C   UNL     1      49.497   7.273  11.801  0.00  0.00    +0.000 C 
ENDROOT
BRANCH   1   7
ATOM      4  C   UNL     1      44.531   5.920  12.515  0.00  0.00    +0.000 A 
ATOM      5  C   UNL     1      44.776   7.188  12.017  0.00  0.00    +0.000 A 
ATOM      6  N   UNL     1      46.011   7.754  12.043  0.00  0.00    +0.000 NA
ATOM      7  C   UNL     1      47.015   7.008  12.590  0.00  0.00    +0.000 A 
ATOM      8  C   UNL     1      46.749   5.714  13.049  0.00  0.00    +0.000 A 
ATOM      9  N   UNL     1      45.517   5.141  13.044  0.00  0.00    +0.000 NA
BRANCH   4  11
ATOM     10  N   UNL     1      42.260   5.946  11.687  0.00  0.00    +0.000 N 
ATOM     11  C   UNL     1      43.147   5.382  12.567  0.00  0.00    +0.000 C 
ATOM     12  O   UNL     1      42.822   4.482  13.333  0.00  0.00    +0.000 OA
ATOM     13  H   UNL     1      41.319   5.585  11.624  0.00  0.00    +0.000 HD
ATOM     14  H   UNL     1      42.580   6.654  11.039  0.00  0.00    +0.000 HD
ENDBRANCH   4  11
ENDBRANCH   1   7
BRANCH   1  15
ATOM     15  C   UNL     1      48.847   7.914  14.220  0.00  0.00    +0.000 A 
ATOM     16  C   UNL     1      48.230   8.911  14.980  0.00  0.00    +0.000 A 
ATOM     17  C   UNL     1      48.298   8.864  16.376  0.00  0.00    +0.000 A 
ATOM     18  C   UNL     1      49.040   7.864  16.988  0.00  0.00    +0.000 A 
ATOM     19  C   UNL     1      49.724   6.989  16.153  0.00  0.00    +0.000 A 
ATOM     20  N   UNL     1      49.659   6.998  14.804  0.00  0.00    +0.000 NA
BRANCH  18  21
ATOM     21  O   UNL     1      49.167   7.597  18.310  0.00  0.00    +0.000 OA
BRANCH  21  22
ATOM     22  C   UNL     1      48.142   6.932  19.024  0.00  0.00    +0.000 C 
ATOM     23  F   UNL     1      47.734   5.788  18.439  0.00  0.00    +0.000 F 
ATOM     24  F   UNL     1      48.548   6.669  20.283  0.00  0.00    +0.000 F 
ATOM     25  F   UNL     1      47.079   7.763  19.087  0.00  0.00    +0.000 F 
ENDBRANCH  21  22
ENDBRANCH  18  21
ENDBRANCH   1  15
TORSDOF 5
ENDMDL
MODEL 9
REMARK VINA RESULT:    -5.527      4.021      5.646
REMARK INTER + INTRA:          -7.360
REMARK INTER:                  -7.203
REMARK INTRA:                  -0.157
REMARK UNBOUND:                -0.218
REMARK  Name = 
REMARK  5 active torsions:
REMARK  status: ('A' for Active; 'I' for Inactive)
REMARK    1  A    between atoms: C_2  and  C_4
REMARK    2  A    between atoms: C_7  and  C_8
REMARK    3  A    between atoms: C_8  and  C_9
REMARK    4  A    between atoms: C_12  and  O_13
REMARK    5  A    between atoms: O_13  and  C_14
REMARK                            x       y       z     vdW  Elec       q    Type
REMARK                         _______ _______ _______ _____ _____    ______ ____
ROOT
ATOM      1  C   UNL     1      48.421   7.387  13.154  0.00  0.00    +0.000 C 
ATOM      2  C   UNL     1      49.484   7.333  12.045  0.00  0.00    +0.000 C 
ATOM      3  C   UNL     1      48.616   8.542  12.162  0.00  0.00    +0.000 C 
ENDROOT
BRANCH   1   7
ATOM      4  C   UNL     1      49.471   7.870  17.222  0.00  0.00    +0.000 A 
ATOM      5  C   UNL     1      49.997   6.829  16.477  0.00  0.00    +0.000 A 
ATOM      6  N   UNL     1      49.723   6.669  15.156  0.00  0.00    +0.000 NA
ATOM      7  C   UNL     1      48.894   7.593  14.586  0.00  0.00    +0.000 A 
ATOM      8  C   UNL     1      48.410   8.658  15.352  0.00  0.00    +0.000 A 
ATOM      9  N   UNL     1      48.662   8.822  16.678  0.00  0.00    +0.000 NA
BRANCH   4  11
ATOM     10  N   UNL     1      50.642   7.072  19.182  0.00  0.00    +0.000 N 
ATOM     11  C   UNL     1      49.707   7.945  18.687  0.00  0.00    +0.000 C 
ATOM     12  O   UNL     1      49.119   8.746  19.406  0.00  0.00    +0.000 OA
ATOM     13  H   UNL     1      50.898   7.112  20.157  0.00  0.00    +0.000 HD
ATOM     14  H   UNL     1      51.138   6.459  18.548  0.00  0.00    +0.000 HD
ENDBRANCH   4  11
ENDBRANCH   1   7
BRANCH   1  15
ATOM     15  C   UNL     1      47.186   6.525  12.920  0.00  0.00    +0.000 A 
ATOM     16  C   UNL     1      46.398   6.717  11.784  0.00  0.00    +0.000 A 
ATOM     17  C   UNL     1      45.582   5.681  11.319  0.00  0.00    +0.000 A 
ATOM     18  C   UNL     1      45.512   4.496  12.037  0.00  0.00    +0.000 A 
ATOM     19  C   UNL     1      46.232   4.437  13.225  0.00  0.00    +0.000 A 
ATOM     20  N   UNL     1      47.045   5.413  13.685  0.00  0.00    +0.000 NA
BRANCH  18  21
ATOM     21  O   UNL     1      44.853   3.355  11.721  0.00  0.00    +0.000 OA
BRANCH  21  22
ATOM     22  C   UNL     1      43.461   3.230  11.940  0.00  0.00    +0.000 C 
ATOM     23  F   UNL     1      42.991   1.985  11.722  0.00  0.00    +0.000 F 
ATOM     24  F   UNL     1      43.153   3.609  13.197  0.00  0.00    +0.000 F 
ATOM     25  F   UNL     1      42.833   4.062  11.080  0.00  0.00    +0.000 F 
ENDBRANCH  21  22
ENDBRANCH  18  21
ENDBRANCH   1  15
TORSDOF 5
ENDMDL
