MODEL 1
REMARK VINA RESULT:    -7.945      0.000      0.000
REMARK INTER + INTRA:         -12.216
REMARK INTER:                 -10.964
REMARK INTRA:                  -1.251
REMARK UNBOUND:                -1.251
REMARK  Name = 
REMARK  7 active torsions:
REMARK  status: ('A' for Active; 'I' for Inactive)
REMARK    1  A    between atoms: N_1  and  C_2
REMARK    2  A    between atoms: C_2  and  C_3
REMARK    3  A    between atoms: C_3  and  N_4
REMARK    4  A    between atoms: C_3  and  C_17
REMARK    5  A    between atoms: C_5  and  C_7
REMARK    6  A    between atoms: C_20  and  O_21
REMARK    7  A    between atoms: O_21  and  C_22
REMARK                            x       y       z     vdW  Elec       q    Type
REMARK                         _______ _______ _______ _____ _____    ______ ____
ROOT
ATOM      1  C   UNL     1      45.959   5.733  13.210  0.00  0.00    +0.000 C 
ENDROOT
BRANCH   1   2
ATOM      2  C   UNL     1      45.549   5.036  11.922  0.00  0.00    +0.000 A 
ATOM      3  C   UNL     1      45.644   5.648  10.665  0.00  0.00    +0.000 A 
ATOM      4  C   UNL     1      45.280   4.944   9.516  0.00  0.00    +0.000 A 
ATOM      5  C   UNL     1      44.824   3.642   9.666  0.00  0.00    +0.000 A 
ATOM      6  N   UNL     1      44.666   3.048  10.871  0.00  0.00    +0.000 NA
ATOM      7  C   UNL     1      45.041   3.745  11.961  0.00  0.00    +0.000 A 
BRANCH   5   8
ATOM      8  O   UNL     1      44.537   2.928   8.507  0.00  0.00    +0.000 OA
BRANCH   8   9
ATOM      9  C   UNL     1      45.612   2.586   7.709  0.00  0.00    +0.000 A 
ATOM     10  C   UNL     1      46.332   1.445   8.050  0.00  0.00    +0.000 A 
ATOM     11  C   UNL     1      47.444   1.068   7.287  0.00  0.00    +0.000 A 
ATOM     12  C   UNL     1      47.824   1.831   6.182  0.00  0.00    +0.000 A 
ATOM     13  C   UNL     1      47.080   2.950   5.817  0.00  0.00    +0.000 A 
ATOM     14  C   UNL     1      45.961   3.313   6.565  0.00  0.00    +0.000 A 
ENDBRANCH   8   9
ENDBRANCH   5   8
ENDBRANCH   1   2
BRANCH   1  15
ATOM     15  N   UNL     1      46.986   6.718  12.898  0.00  0.00    +0.000 N 
ATOM     16  C   UNL     1      46.740   8.067  12.919  0.00  0.00    +0.000 C 
ATOM     17  O   UNL     1      45.686   8.542  13.329  0.00  0.00    +0.000 OA
ATOM     18  H   UNL     1      47.747   6.391  12.307  0.00  0.00    +0.000 HD
BRANCH  16  19
ATOM     19  C   UNL     1      47.829   8.935  12.468  0.00  0.00    +0.000 A 
ATOM     20  C   UNL     1      47.541  10.070  11.722  0.00  0.00    +0.000 A 
ATOM     21  S   UNL     1      48.929  10.926  11.225  0.00  0.00    +0.000 S 
ATOM     22  C   UNL     1      49.961   9.790  11.960  0.00  0.00    +0.000 A 
ATOM     23  N   UNL     1      51.311   9.893  11.851  0.00  0.00    +0.000 NA
ATOM     24  C   UNL     1      51.967   8.942  12.430  0.00  0.00    +0.000 A 
ATOM     25  N   UNL     1      51.395   7.913  13.132  0.00  0.00    +0.000 N 
ATOM     26  C   UNL     1      50.039   7.803  13.320  0.00  0.00    +0.000 A 
ATOM     27  O   UNL     1      49.556   6.942  14.049  0.00  0.00    +0.000 OA
ATOM     28  C   UNL     1      49.255   8.807  12.629  0.00  0.00    +0.000 A 
ATOM     29  H   UNL     1      51.968   7.224  13.598  0.00  0.00    +0.000 HD
ENDBRANCH  16  19
ENDBRANCH   1  15
BRANCH   1  30
ATOM     30  C   UNL     1      46.407   4.711  14.302  0.00  0.00    +0.000 C 
BRANCH  30  31
ATOM     31  N   UNL     1      47.547   5.151  15.119  0.00  0.00    +0.000 NA
ATOM     32  H   UNL     1      48.095   5.822  14.581  0.00  0.00    +0.000 HD
ATOM     33  H   UNL     1      48.166   4.365  15.314  0.00  0.00    +0.000 HD
ENDBRANCH  30  31
ENDBRANCH   1  30
TORSDOF 7
ENDMDL
MODEL 2
REMARK VINA RESULT:    -7.775      3.078      4.585
REMARK INTER + INTRA:         -11.980
REMARK INTER:                 -11.414
REMARK INTRA:                  -0.567
REMARK UNBOUND:                -1.251
REMARK  Name = 
REMARK  7 active torsions:
REMARK  status: ('A' for Active; 'I' for Inactive)
REMARK    1  A    between atoms: N_1  and  C_2
REMARK    2  A    between atoms: C_2  and  C_3
REMARK    3  A    between atoms: C_3  and  N_4
REMARK    4  A    between atoms: C_3  and  C_17
REMARK    5  A    between atoms: C_5  and  C_7
REMARK    6  A    between atoms: C_20  and  O_21
REMARK    7  A    between atoms: O_21  and  C_22
REMARK                            x       y       z     vdW  Elec       q    Type
REMARK                         _______ _______ _______ _____ _____    ______ ____
ROOT
ATOM      1  C   UNL     1      46.591   6.846  12.814  0.00  0.00    +0.000 C 
ENDROOT
BRANCH   1   2
ATOM      2  C   UNL     1      46.022   5.869  11.797  0.00  0.00    +0.000 A 
ATOM      3  C   UNL     1      45.984   6.140  10.422  0.00  0.00    +0.000 A 
ATOM      4  C   UNL     1      45.476   5.188   9.536  0.00  0.00    +0.000 A 
ATOM      5  C   UNL     1      45.015   3.990  10.061  0.00  0.00    +0.000 A 
ATOM      6  N   UNL     1      44.984   3.726  11.387  0.00  0.00    +0.000 NA
ATOM      7  C   UNL     1      45.496   4.655  12.218  0.00  0.00    +0.000 A 
BRANCH   5   8
ATOM      8  O   UNL     1      44.582   3.022   9.160  0.00  0.00    +0.000 OA
BRANCH   8   9
ATOM      9  C   UNL     1      45.503   2.593   8.224  0.00  0.00    +0.000 A 
ATOM     10  C   UNL     1      46.057   1.327   8.396  0.00  0.00    +0.000 A 
ATOM     11  C   UNL     1      47.012   0.855   7.488  0.00  0.00    +0.000 A 
ATOM     12  C   UNL     1      47.401   1.648   6.407  0.00  0.00    +0.000 A 
ATOM     13  C   UNL     1      46.818   2.897   6.212  0.00  0.00    +0.000 A 
ATOM     14  C   UNL     1      45.852   3.358   7.105  0.00  0.00    +0.000 A 
ENDBRANCH   8   9
ENDBRANCH   5   8
ENDBRANCH   1   2
BRANCH   1  15
ATOM     15  N   UNL     1      46.735   6.155  14.089  0.00  0.00    +0.000 N 
ATOM     16  C   UNL     1      47.955   5.967  14.688  0.00  0.00    +0.000 C 
ATOM     17  O   UNL     1      48.987   6.477  14.265  0.00  0.00    +0.000 OA
ATOM     18  H   UNL     1      45.993   5.500  14.324  0.00  0.00    +0.000 HD
BRANCH  16  19
ATOM     19  C   UNL     1      47.964   5.154  15.905  0.00  0.00    +0.000 A 
ATOM     20  C   UNL     1      47.528   3.837  15.857  0.00  0.00    +0.000 A 
ATOM     21  S   UNL     1      47.543   3.060  17.375  0.00  0.00    +0.000 S 
ATOM     22  C   UNL     1      48.098   4.469  18.152  0.00  0.00    +0.000 A 
ATOM     23  N   UNL     1      48.260   4.509  19.500  0.00  0.00    +0.000 NA
ATOM     24  C   UNL     1      48.654   5.653  19.956  0.00  0.00    +0.000 A 
ATOM     25  N   UNL     1      48.927   6.751  19.181  0.00  0.00    +0.000 N 
ATOM     26  C   UNL     1      48.836   6.736  17.811  0.00  0.00    +0.000 A 
ATOM     27  O   UNL     1      49.197   7.690  17.129  0.00  0.00    +0.000 OA
ATOM     28  C   UNL     1      48.330   5.496  17.256  0.00  0.00    +0.000 A 
ATOM     29  H   UNL     1      49.273   7.603  19.597  0.00  0.00    +0.000 HD
ENDBRANCH  16  19
ENDBRANCH   1  15
BRANCH   1  30
ATOM     30  C   UNL     1      45.727   8.141  12.916  0.00  0.00    +0.000 C 
BRANCH  30  31
ATOM     31  N   UNL     1      46.475   9.346  13.305  0.00  0.00    +0.000 NA
ATOM     32  H   UNL     1      47.444   9.240  13.002  0.00  0.00    +0.000 HD
ATOM     33  H   UNL     1      46.500   9.434  14.320  0.00  0.00    +0.000 HD
ENDBRANCH  30  31
ENDBRANCH   1  30
TORSDOF 7
ENDMDL
MODEL 3
REMARK VINA RESULT:    -7.748      2.692      4.267
REMARK INTER + INTRA:         -11.943
REMARK INTER:                 -11.074
REMARK INTRA:                  -0.869
REMARK UNBOUND:                -1.251
REMARK  Name = 
REMARK  7 active torsions:
REMARK  status: ('A' for Active; 'I' for Inactive)
REMARK    1  A    between atoms: N_1  and  C_2
REMARK    2  A    between atoms: C_2  and  C_3
REMARK    3  A    between atoms: C_3  and  N_4
REMARK    4  A    between atoms: C_3  and  C_17
REMARK    5  A    between atoms: C_5  and  C_7
REMARK    6  A    between atoms: C_20  and  O_21
REMARK    7  A    between atoms: O_21  and  C_22
REMARK                            x       y       z     vdW  Elec       q    Type
REMARK                         _______ _______ _______ _____ _____    ______ ____
ROOT
ATOM      1  C   UNL     1      45.949   8.111  12.315  0.00  0.00    +0.000 C 
ENDROOT
BRANCH   1   2
ATOM      2  C   UNL     1      45.434   6.908  11.541  0.00  0.00    +0.000 A 
ATOM      3  C   UNL     1      44.142   6.393  11.710  0.00  0.00    +0.000 A 
ATOM      4  C   UNL     1      43.718   5.303  10.947  0.00  0.00    +0.000 A 
ATOM      5  C   UNL     1      44.612   4.759  10.036  0.00  0.00    +0.000 A 
ATOM      6  N   UNL     1      45.884   5.197   9.896  0.00  0.00    +0.000 NA
ATOM      7  C   UNL     1      46.260   6.260  10.632  0.00  0.00    +0.000 A 
BRANCH   5   8
ATOM      8  O   UNL     1      44.152   3.723   9.231  0.00  0.00    +0.000 OA
BRANCH   8   9
ATOM      9  C   UNL     1      45.099   3.062   8.473  0.00  0.00    +0.000 A 
ATOM     10  C   UNL     1      45.657   3.746   7.396  0.00  0.00    +0.000 A 
ATOM     11  C   UNL     1      46.605   3.112   6.584  0.00  0.00    +0.000 A 
ATOM     12  C   UNL     1      46.995   1.800   6.857  0.00  0.00    +0.000 A 
ATOM     13  C   UNL     1      46.467   1.130   7.957  0.00  0.00    +0.000 A 
ATOM     14  C   UNL     1      45.539   1.768   8.778  0.00  0.00    +0.000 A 
ENDBRANCH   8   9
ENDBRANCH   5   8
ENDBRANCH   1   2
BRANCH   1  15
ATOM     15  N   UNL     1      46.555   7.641  13.554  0.00  0.00    +0.000 N 
ATOM     16  C   UNL     1      47.904   7.417  13.672  0.00  0.00    +0.000 C 
ATOM     17  O   UNL     1      48.705   7.720  12.795  0.00  0.00    +0.000 OA
ATOM     18  H   UNL     1      45.940   7.128  14.181  0.00  0.00    +0.000 HD
BRANCH  16  19
ATOM     19  C   UNL     1      48.358   6.832  14.935  0.00  0.00    +0.000 A 
ATOM     20  C   UNL     1      49.289   7.509  15.711  0.00  0.00    +0.000 A 
ATOM     21  S   UNL     1      49.755   6.654  17.112  0.00  0.00    +0.000 S 
ATOM     22  C   UNL     1      48.756   5.337  16.706  0.00  0.00    +0.000 A 
ATOM     23  N   UNL     1      48.736   4.212  17.468  0.00  0.00    +0.000 NA
ATOM     24  C   UNL     1      47.957   3.281  17.022  0.00  0.00    +0.000 A 
ATOM     25  N   UNL     1      47.177   3.385  15.899  0.00  0.00    +0.000 N 
ATOM     26  C   UNL     1      47.121   4.525  15.136  0.00  0.00    +0.000 A 
ATOM     27  O   UNL     1      46.330   4.640  14.204  0.00  0.00    +0.000 OA
ATOM     28  C   UNL     1      48.030   5.574  15.554  0.00  0.00    +0.000 A 
ATOM     29  H   UNL     1      46.558   2.635  15.629  0.00  0.00    +0.000 HD
ENDBRANCH  16  19
ENDBRANCH   1  15
BRANCH   1  30
ATOM     30  C   UNL     1      44.827   9.170  12.549  0.00  0.00    +0.000 C 
BRANCH  30  31
ATOM     31  N   UNL     1      45.217  10.553  12.238  0.00  0.00    +0.000 NA
ATOM     32  H   UNL     1      44.411  11.161  12.386  0.00  0.00    +0.000 HD
ATOM     33  H   UNL     1      45.462  10.637  11.252  0.00  0.00    +0.000 HD
ENDBRANCH  30  31
ENDBRANCH   1  30
TORSDOF 7
ENDMDL
MODEL 4
REMARK VINA RESULT:    -7.299      3.788      5.317
REMARK INTER + INTRA:         -11.323
REMARK INTER:                  -9.946
REMARK INTRA:                  -1.377
REMARK UNBOUND:                -1.251
REMARK  Name = 
REMARK  7 active torsions:
REMARK  status: ('A' for Active; 'I' for Inactive)
REMARK    1  A    between atoms: N_1  and  C_2
REMARK    2  A    between atoms: C_2  and  C_3
REMARK    3  A    between atoms: C_3  and  N_4
REMARK    4  A    between atoms: C_3  and  C_17
REMARK    5  A    between atoms: C_5  and  C_7
REMARK    6  A    between atoms: C_20  and  O_21
REMARK    7  A    between atoms: O_21  and  C_22
REMARK                            x       y       z     vdW  Elec       q    Type
REMARK                         _______ _______ _______ _____ _____    ______ ____
ROOT
ATOM      1  C   UNL     1      48.019   7.627  13.844  0.00  0.00    +0.000 C 
ENDROOT
BRANCH   1   2
ATOM      2  C   UNL     1      46.988   6.899  12.996  0.00  0.00    +0.000 A 
ATOM      3  C   UNL     1      46.129   7.563  12.109  0.00  0.00    +0.000 A 
ATOM      4  C   UNL     1      45.224   6.834  11.335  0.00  0.00    +0.000 A 
ATOM      5  C   UNL     1      45.206   5.455  11.480  0.00  0.00    +0.000 A 
ATOM      6  N   UNL     1      45.980   4.794  12.371  0.00  0.00    +0.000 NA
ATOM      7  C   UNL     1      46.856   5.520  13.092  0.00  0.00    +0.000 A 
BRANCH   5   8
ATOM      8  O   UNL     1      44.353   4.736  10.649  0.00  0.00    +0.000 OA
BRANCH   8   9
ATOM      9  C   UNL     1      44.948   3.976   9.660  0.00  0.00    +0.000 A 
ATOM     10  C   UNL     1      44.809   2.593   9.737  0.00  0.00    +0.000 A 
ATOM     11  C   UNL     1      45.413   1.778   8.773  0.00  0.00    +0.000 A 
ATOM     12  C   UNL     1      46.145   2.350   7.732  0.00  0.00    +0.000 A 
ATOM     13  C   UNL     1      46.251   3.735   7.632  0.00  0.00    +0.000 A 
ATOM     14  C   UNL     1      45.632   4.547   8.581  0.00  0.00    +0.000 A 
ENDBRANCH   8   9
ENDBRANCH   5   8
ENDBRANCH   1   2
BRANCH   1  15
ATOM     15  N   UNL     1      47.969   7.087  15.197  0.00  0.00    +0.000 N 
ATOM     16  C   UNL     1      49.075   6.565  15.819  0.00  0.00    +0.000 C 
ATOM     17  O   UNL     1      50.201   6.635  15.339  0.00  0.00    +0.000 OA
ATOM     18  H   UNL     1      47.059   6.760  15.510  0.00  0.00    +0.000 HD
BRANCH  16  19
ATOM     19  C   UNL     1      48.855   5.951  17.130  0.00  0.00    +0.000 A 
ATOM     20  C   UNL     1      49.034   4.583  17.288  0.00  0.00    +0.000 A 
ATOM     21  S   UNL     1      48.670   4.028  18.859  0.00  0.00    +0.000 S 
ATOM     22  C   UNL     1      48.227   5.590  19.368  0.00  0.00    +0.000 A 
ATOM     23  N   UNL     1      47.741   5.810  20.618  0.00  0.00    +0.000 NA
ATOM     24  C   UNL     1      47.414   7.038  20.854  0.00  0.00    +0.000 A 
ATOM     25  N   UNL     1      47.554   8.070  19.963  0.00  0.00    +0.000 N 
ATOM     26  C   UNL     1      48.097   7.904  18.713  0.00  0.00    +0.000 A 
ATOM     27  O   UNL     1      48.323   8.859  17.975  0.00  0.00    +0.000 OA
ATOM     28  C   UNL     1      48.415   6.531  18.373  0.00  0.00    +0.000 A 
ATOM     29  H   UNL     1      47.319   9.015  20.227  0.00  0.00    +0.000 HD
ENDBRANCH  16  19
ENDBRANCH   1  15
BRANCH   1  30
ATOM     30  C   UNL     1      47.817   9.174  13.797  0.00  0.00    +0.000 C 
BRANCH  30  31
ATOM     31  N   UNL     1      48.224   9.880  15.021  0.00  0.00    +0.000 NA
ATOM     32  H   UNL     1      47.425  10.407  15.374  0.00  0.00    +0.000 HD
ATOM     33  H   UNL     1      48.949  10.565  14.809  0.00  0.00    +0.000 HD
ENDBRANCH  30  31
ENDBRANCH   1  30
TORSDOF 7
ENDMDL
MODEL 5
REMARK VINA RESULT:    -7.097      3.160      5.025
REMARK INTER + INTRA:         -11.045
REMARK INTER:                  -9.986
REMARK INTRA:                  -1.059
REMARK UNBOUND:                -1.251
REMARK  Name = 
REMARK  7 active torsions:
REMARK  status: ('A' for Active; 'I' for Inactive)
REMARK    1  A    between atoms: N_1  and  C_2
REMARK    2  A    between atoms: C_2  and  C_3
REMARK    3  A    between atoms: C_3  and  N_4
REMARK    4  A    between atoms: C_3  and  C_17
REMARK    5  A    between atoms: C_5  and  C_7
REMARK    6  A    between atoms: C_20  and  O_21
REMARK    7  A    between atoms: O_21  and  C_22
REMARK                            x       y       z     vdW  Elec       q    Type
REMARK                         _______ _______ _______ _____ _____    ______ ____
ROOT
ATOM      1  C   UNL     1      47.833   8.080  13.460  0.00  0.00    +0.000 C 
ENDROOT
BRANCH   1   2
ATOM      2  C   UNL     1      46.829   7.194  12.741  0.00  0.00    +0.000 A 
ATOM      3  C   UNL     1      45.779   7.708  11.968  0.00  0.00    +0.000 A 
ATOM      4  C   UNL     1      44.907   6.841  11.307  0.00  0.00    +0.000 A 
ATOM      5  C   UNL     1      45.114   5.476  11.448  0.00  0.00    +0.000 A 
ATOM      6  N   UNL     1      46.082   4.952  12.236  0.00  0.00    +0.000 NA
ATOM      7  C   UNL     1      46.918   5.812  12.848  0.00  0.00    +0.000 A 
BRANCH   5   8
ATOM      8  O   UNL     1      44.285   4.626  10.724  0.00  0.00    +0.000 OA
BRANCH   8   9
ATOM      9  C   UNL     1      44.878   3.901   9.709  0.00  0.00    +0.000 A 
ATOM     10  C   UNL     1      44.786   2.513   9.767  0.00  0.00    +0.000 A 
ATOM     11  C   UNL     1      45.390   1.733   8.773  0.00  0.00    +0.000 A 
ATOM     12  C   UNL     1      46.076   2.344   7.724  0.00  0.00    +0.000 A 
ATOM     13  C   UNL     1      46.134   3.734   7.644  0.00  0.00    +0.000 A 
ATOM     14  C   UNL     1      45.515   4.511   8.621  0.00  0.00    +0.000 A 
ENDBRANCH   8   9
ENDBRANCH   5   8
ENDBRANCH   1   2
BRANCH   1  15
ATOM     15  N   UNL     1      47.913   7.655  14.852  0.00  0.00    +0.000 N 
ATOM     16  C   UNL     1      49.038   7.072  15.378  0.00  0.00    +0.000 C 
ATOM     17  O   UNL     1      50.093   6.989  14.758  0.00  0.00    +0.000 OA
ATOM     18  H   UNL     1      47.025   7.448  15.303  0.00  0.00    +0.000 HD
BRANCH  16  19
ATOM     19  C   UNL     1      48.937   6.587  16.755  0.00  0.00    +0.000 A 
ATOM     20  C   UNL     1      49.248   7.436  17.809  0.00  0.00    +0.000 A 
ATOM     21  S   UNL     1      49.140   6.688  19.338  0.00  0.00    +0.000 S 
ATOM     22  C   UNL     1      48.711   5.196  18.639  0.00  0.00    +0.000 A 
ATOM     23  N   UNL     1      48.536   4.087  19.404  0.00  0.00    +0.000 NA
ATOM     24  C   UNL     1      48.245   3.020  18.737  0.00  0.00    +0.000 A 
ATOM     25  N   UNL     1      48.086   2.967  17.375  0.00  0.00    +0.000 N 
ATOM     26  C   UNL     1      48.193   4.075  16.571  0.00  0.00    +0.000 A 
ATOM     27  O   UNL     1      47.932   4.031  15.373  0.00  0.00    +0.000 OA
ATOM     28  C   UNL     1      48.588   5.285  17.265  0.00  0.00    +0.000 A 
ATOM     29  H   UNL     1      47.816   2.108  16.920  0.00  0.00    +0.000 HD
ENDBRANCH  16  19
ENDBRANCH   1  15
BRANCH   1  30
ATOM     30  C   UNL     1      47.483   9.593  13.305  0.00  0.00    +0.000 C 
BRANCH  30  31
ATOM     31  N   UNL     1      48.313  10.498  14.114  0.00  0.00    +0.000 NA
ATOM     32  H   UNL     1      48.047  10.397  15.093  0.00  0.00    +0.000 HD
ATOM     33  H   UNL     1      48.124  11.468  13.864  0.00  0.00    +0.000 HD
ENDBRANCH  30  31
ENDBRANCH   1  30
TORSDOF 7
ENDMDL
MODEL 6
REMARK VINA RESULT:    -7.036      1.646      2.390
REMARK INTER + INTRA:         -10.961
REMARK INTER:                  -9.875
REMARK INTRA:                  -1.086
REMARK UNBOUND:                -1.251
REMARK  Name = 
REMARK  7 active torsions:
REMARK  status: ('A' for Active; 'I' for Inactive)
REMARK    1  A    between atoms: N_1  and  C_2
REMARK    2  A    between atoms: C_2  and  C_3
REMARK    3  A    between atoms: C_3  and  N_4
REMARK    4  A    between atoms: C_3  and  C_17
REMARK    5  A    between atoms: C_5  and  C_7
REMARK    6  A    between atoms: C_20  and  O_21
REMARK    7  A    between atoms: O_21  and  C_22
REMARK                            x       y       z     vdW  Elec       q    Type
REMARK                         _______ _______ _______ _____ _____    ______ ____
ROOT
ATOM      1  C   UNL     1      46.966   5.597  14.188  0.00  0.00    +0.000 C 
ENDROOT
BRANCH   1   2
ATOM      2  C   UNL     1      46.273   5.175  12.902  0.00  0.00    +0.000 A 
ATOM      3  C   UNL     1      46.210   5.997  11.768  0.00  0.00    +0.000 A 
ATOM      4  C   UNL     1      45.585   5.539  10.607  0.00  0.00    +0.000 A 
ATOM      5  C   UNL     1      45.036   4.266  10.621  0.00  0.00    +0.000 A 
ATOM      6  N   UNL     1      45.029   3.475  11.719  0.00  0.00    +0.000 NA
ATOM      7  C   UNL     1      45.654   3.935  12.820  0.00  0.00    +0.000 A 
BRANCH   5   8
ATOM      8  O   UNL     1      44.483   3.795   9.435  0.00  0.00    +0.000 OA
BRANCH   8   9
ATOM      9  C   UNL     1      45.332   3.110   8.587  0.00  0.00    +0.000 A 
ATOM     10  C   UNL     1      45.945   3.831   7.565  0.00  0.00    +0.000 A 
ATOM     11  C   UNL     1      46.796   3.179   6.665  0.00  0.00    +0.000 A 
ATOM     12  C   UNL     1      47.037   1.811   6.796  0.00  0.00    +0.000 A 
ATOM     13  C   UNL     1      46.456   1.097   7.842  0.00  0.00    +0.000 A 
ATOM     14  C   UNL     1      45.626   1.751   8.750  0.00  0.00    +0.000 A 
ENDBRANCH   8   9
ENDBRANCH   5   8
ENDBRANCH   1   2
BRANCH   1  15
ATOM     15  N   UNL     1      48.223   6.251  13.844  0.00  0.00    +0.000 N 
ATOM     16  C   UNL     1      48.747   7.273  14.595  0.00  0.00    +0.000 C 
ATOM     17  O   UNL     1      48.271   7.616  15.671  0.00  0.00    +0.000 OA
ATOM     18  H   UNL     1      48.492   6.205  12.864  0.00  0.00    +0.000 HD
BRANCH  16  19
ATOM     19  C   UNL     1      49.951   7.916  14.067  0.00  0.00    +0.000 A 
ATOM     20  C   UNL     1      51.161   7.763  14.732  0.00  0.00    +0.000 A 
ATOM     21  S   UNL     1      52.442   8.633  14.018  0.00  0.00    +0.000 S 
ATOM     22  C   UNL     1      51.415   9.271  12.820  0.00  0.00    +0.000 A 
ATOM     23  N   UNL     1      51.873  10.167  11.907  0.00  0.00    +0.000 NA
ATOM     24  C   UNL     1      50.975  10.591  11.080  0.00  0.00    +0.000 A 
ATOM     25  N   UNL     1      49.667  10.180  11.067  0.00  0.00    +0.000 N 
ATOM     26  C   UNL     1      49.177   9.232  11.931  0.00  0.00    +0.000 A 
ATOM     27  O   UNL     1      48.036   8.792  11.828  0.00  0.00    +0.000 OA
ATOM     28  C   UNL     1      50.128   8.776  12.925  0.00  0.00    +0.000 A 
ATOM     29  H   UNL     1      49.026  10.520  10.365  0.00  0.00    +0.000 HD
ENDBRANCH  16  19
ENDBRANCH   1  15
BRANCH   1  30
ATOM     30  C   UNL     1      47.153   4.393  15.164  0.00  0.00    +0.000 C 
BRANCH  30  31
ATOM     31  N   UNL     1      48.265   4.545  16.115  0.00  0.00    +0.000 NA
ATOM     32  H   UNL     1      47.896   4.470  17.063  0.00  0.00    +0.000 HD
ATOM     33  H   UNL     1      48.670   5.477  16.038  0.00  0.00    +0.000 HD
ENDBRANCH  30  31
ENDBRANCH   1  30
TORSDOF 7
ENDMDL
MODEL 7
REMARK VINA RESULT:    -7.003      3.732      8.098
REMARK INTER + INTRA:         -10.915
REMARK INTER:                 -10.022
REMARK INTRA:                  -0.893
REMARK UNBOUND:                -1.251
REMARK  Name = 
REMARK  7 active torsions:
REMARK  status: ('A' for Active; 'I' for Inactive)
REMARK    1  A    between atoms: N_1  and  C_2
REMARK    2  A    between atoms: C_2  and  C_3
REMARK    3  A    between atoms: C_3  and  N_4
REMARK    4  A    between atoms: C_3  and  C_17
REMARK    5  A    between atoms: C_5  and  C_7
REMARK    6  A    between atoms: C_20  and  O_21
REMARK    7  A    between atoms: O_21  and  C_22
REMARK                            x       y       z     vdW  Elec       q    Type
REMARK                         _______ _______ _______ _____ _____    ______ ____
ROOT
ATOM      1  C   UNL     1      48.160   7.554  12.948  0.00  0.00    +0.000 C 
ENDROOT
BRANCH   1   2
ATOM      2  C   UNL     1      48.596   6.874  14.236  0.00  0.00    +0.000 A 
ATOM      3  C   UNL     1      49.663   7.340  15.017  0.00  0.00    +0.000 A 
ATOM      4  C   UNL     1      49.995   6.688  16.206  0.00  0.00    +0.000 A 
ATOM      5  C   UNL     1      49.245   5.581  16.574  0.00  0.00    +0.000 A 
ATOM      6  N   UNL     1      48.250   5.074  15.811  0.00  0.00    +0.000 NA
ATOM      7  C   UNL     1      47.940   5.733  14.677  0.00  0.00    +0.000 A 
BRANCH   5   8
ATOM      8  O   UNL     1      49.539   4.988  17.797  0.00  0.00    +0.000 OA
BRANCH   8   9
ATOM      9  C   UNL     1      50.476   3.974  17.783  0.00  0.00    +0.000 A 
ATOM     10  C   UNL     1      50.054   2.710  17.380  0.00  0.00    +0.000 A 
ATOM     11  C   UNL     1      50.961   1.643  17.370  0.00  0.00    +0.000 A 
ATOM     12  C   UNL     1      52.286   1.847  17.756  0.00  0.00    +0.000 A 
ATOM     13  C   UNL     1      52.718   3.120  18.121  0.00  0.00    +0.000 A 
ATOM     14  C   UNL     1      51.821   4.186  18.111  0.00  0.00    +0.000 A 
ENDBRANCH   8   9
ENDBRANCH   5   8
ENDBRANCH   1   2
BRANCH   1  15
ATOM     15  N   UNL     1      47.509   6.564  12.099  0.00  0.00    +0.000 N 
ATOM     16  C   UNL     1      46.218   6.711  11.659  0.00  0.00    +0.000 C 
ATOM     17  O   UNL     1      45.570   7.737  11.834  0.00  0.00    +0.000 OA
ATOM     18  H   UNL     1      47.877   5.618  12.161  0.00  0.00    +0.000 HD
BRANCH  16  19
ATOM     19  C   UNL     1      45.652   5.585  10.914  0.00  0.00    +0.000 A 
ATOM     20  C   UNL     1      45.748   5.558   9.529  0.00  0.00    +0.000 A 
ATOM     21  S   UNL     1      44.979   4.210   8.821  0.00  0.00    +0.000 S 
ATOM     22  C   UNL     1      44.461   3.639  10.339  0.00  0.00    +0.000 A 
ATOM     23  N   UNL     1      43.677   2.535  10.443  0.00  0.00    +0.000 NA
ATOM     24  C   UNL     1      43.332   2.238  11.653  0.00  0.00    +0.000 A 
ATOM     25  N   UNL     1      43.725   2.930  12.770  0.00  0.00    +0.000 N 
ATOM     26  C   UNL     1      44.566   4.014  12.716  0.00  0.00    +0.000 A 
ATOM     27  O   UNL     1      44.999   4.547  13.733  0.00  0.00    +0.000 OA
ATOM     28  C   UNL     1      44.924   4.430  11.374  0.00  0.00    +0.000 A 
ATOM     29  H   UNL     1      43.455   2.619  13.691  0.00  0.00    +0.000 HD
ENDBRANCH  16  19
ENDBRANCH   1  15
BRANCH   1  30
ATOM     30  C   UNL     1      49.352   8.272  12.241  0.00  0.00    +0.000 C 
BRANCH  30  31
ATOM     31  N   UNL     1      50.406   7.369  11.754  0.00  0.00    +0.000 NA
ATOM     32  H   UNL     1      51.174   7.372  12.425  0.00  0.00    +0.000 HD
ATOM     33  H   UNL     1      50.791   7.717  10.876  0.00  0.00    +0.000 HD
ENDBRANCH  30  31
ENDBRANCH   1  30
TORSDOF 7
ENDMDL
MODEL 8
REMARK VINA RESULT:    -6.883      5.031      7.166
REMARK INTER + INTRA:         -10.750
REMARK INTER:                  -9.470
REMARK INTRA:                  -1.280
REMARK UNBOUND:                -1.251
REMARK  Name = 
REMARK  7 active torsions:
REMARK  status: ('A' for Active; 'I' for Inactive)
REMARK    1  A    between atoms: N_1  and  C_2
REMARK    2  A    between atoms: C_2  and  C_3
REMARK    3  A    between atoms: C_3  and  N_4
REMARK    4  A    between atoms: C_3  and  C_17
REMARK    5  A    between atoms: C_5  and  C_7
REMARK    6  A    between atoms: C_20  and  O_21
REMARK    7  A    between atoms: O_21  and  C_22
REMARK                            x       y       z     vdW  Elec       q    Type
REMARK                         _______ _______ _______ _____ _____    ______ ____
ROOT
ATOM      1  C   UNL     1      49.000   6.542  17.255  0.00  0.00    +0.000 C 
ENDROOT
BRANCH   1   2
ATOM      2  C   UNL     1      48.234   5.811  16.164  0.00  0.00    +0.000 A 
ATOM      3  C   UNL     1      48.206   6.247  14.832  0.00  0.00    +0.000 A 
ATOM      4  C   UNL     1      47.508   5.514  13.871  0.00  0.00    +0.000 A 
ATOM      5  C   UNL     1      46.853   4.362  14.279  0.00  0.00    +0.000 A 
ATOM      6  N   UNL     1      46.812   3.950  15.567  0.00  0.00    +0.000 NA
ATOM      7  C   UNL     1      47.508   4.667  16.470  0.00  0.00    +0.000 A 
BRANCH   5   8
ATOM      8  O   UNL     1      46.225   3.602  13.298  0.00  0.00    +0.000 OA
BRANCH   8   9
ATOM      9  C   UNL     1      45.162   4.193  12.643  0.00  0.00    +0.000 A 
ATOM     10  C   UNL     1      44.040   4.521  13.398  0.00  0.00    +0.000 A 
ATOM     11  C   UNL     1      42.927   5.102  12.778  0.00  0.00    +0.000 A 
ATOM     12  C   UNL     1      42.946   5.359  11.406  0.00  0.00    +0.000 A 
ATOM     13  C   UNL     1      44.084   5.068  10.658  0.00  0.00    +0.000 A 
ATOM     14  C   UNL     1      45.199   4.510  11.279  0.00  0.00    +0.000 A 
ENDBRANCH   8   9
ENDBRANCH   5   8
ENDBRANCH   1   2
BRANCH   1  15
ATOM     15  N   UNL     1      50.033   5.653  17.771  0.00  0.00    +0.000 N 
ATOM     16  C   UNL     1      51.282   5.575  17.208  0.00  0.00    +0.000 C 
ATOM     17  O   UNL     1      51.659   6.336  16.324  0.00  0.00    +0.000 OA
ATOM     18  H   UNL     1      49.701   4.841  18.286  0.00  0.00    +0.000 HD
BRANCH  16  19
ATOM     19  C   UNL     1      52.179   4.555  17.754  0.00  0.00    +0.000 A 
ATOM     20  C   UNL     1      53.373   4.936  18.351  0.00  0.00    +0.000 A 
ATOM     21  S   UNL     1      54.324   3.618  18.869  0.00  0.00    +0.000 S 
ATOM     22  C   UNL     1      53.188   2.496  18.280  0.00  0.00    +0.000 A 
ATOM     23  N   UNL     1      53.424   1.159  18.343  0.00  0.00    +0.000 NA
ATOM     24  C   UNL     1      52.491   0.429  17.827  0.00  0.00    +0.000 A 
ATOM     25  N   UNL     1      51.330   0.913  17.280  0.00  0.00    +0.000 N 
ATOM     26  C   UNL     1      51.024   2.251  17.252  0.00  0.00    +0.000 A 
ATOM     27  O   UNL     1      49.931   2.655  16.865  0.00  0.00    +0.000 OA
ATOM     28  C   UNL     1      52.071   3.118  17.754  0.00  0.00    +0.000 A 
ATOM     29  H   UNL     1      50.622   0.284  16.932  0.00  0.00    +0.000 HD
ENDBRANCH  16  19
ENDBRANCH   1  15
BRANCH   1  30
ATOM     30  C   UNL     1      48.047   7.080  18.368  0.00  0.00    +0.000 C 
BRANCH  30  31
ATOM     31  N   UNL     1      47.544   8.442  18.136  0.00  0.00    +0.000 NA
ATOM     32  H   UNL     1      47.905   8.775  17.242  0.00  0.00    +0.000 HD
ATOM     33  H   UNL     1      47.906   9.078  18.846  0.00  0.00    +0.000 HD
ENDBRANCH  30  31
ENDBRANCH   1  30
TORSDOF 7
ENDMDL
MODEL 9
REMARK VINA RESULT:    -6.751      3.964      8.283
REMARK INTER + INTRA:         -10.568
REMARK INTER:                  -9.666
REMARK INTRA:                  -0.902
REMARK UNBOUND:                -1.251
REMARK  Name = 
REMARK  7 active torsions:
REMARK  status: ('A' for Active; 'I' for Inactive)
REMARK    1  A    between atoms: N_1  and  C_2
REMARK    2  A    between atoms: C_2  and  C_3
REMARK    3  A    between atoms: C_3  and  N_4
REMARK    4  A    between atoms: C_3  and  C_17
REMARK    5  A    between atoms: C_5  and  C_7
REMARK    6  A    between atoms: C_20  and  O_21
REMARK    7  A    between atoms: O_21  and  C_22
REMARK                            x       y       z     vdW  Elec       q    Type
REMARK                         _______ _______ _______ _____ _____    ______ ____
ROOT
ATOM      1  C   UNL     1      47.625   7.128  13.165  0.00  0.00    +0.000 C 
ENDROOT
BRANCH   1   2
ATOM      2  C   UNL     1      48.285   6.588  14.423  0.00  0.00    +0.000 A 
ATOM      3  C   UNL     1      49.434   7.162  14.985  0.00  0.00    +0.000 A 
ATOM      4  C   UNL     1      49.974   6.637  16.160  0.00  0.00    +0.000 A 
ATOM      5  C   UNL     1      49.346   5.542  16.734  0.00  0.00    +0.000 A 
ATOM      6  N   UNL     1      48.273   4.930  16.181  0.00  0.00    +0.000 NA
ATOM      7  C   UNL     1      47.762   5.469  15.058  0.00  0.00    +0.000 A 
BRANCH   5   8
ATOM      8  O   UNL     1      49.851   5.076  17.944  0.00  0.00    +0.000 OA
BRANCH   8   9
ATOM      9  C   UNL     1      50.703   3.991  17.880  0.00  0.00    +0.000 A 
ATOM     10  C   UNL     1      52.020   4.178  18.292  0.00  0.00    +0.000 A 
ATOM     11  C   UNL     1      52.929   3.116  18.226  0.00  0.00    +0.000 A 
ATOM     12  C   UNL     1      52.514   1.869  17.756  0.00  0.00    +0.000 A 
ATOM     13  C   UNL     1      51.188   1.670  17.382  0.00  0.00    +0.000 A 
ATOM     14  C   UNL     1      50.278   2.722  17.467  0.00  0.00    +0.000 A 
ENDBRANCH   8   9
ENDBRANCH   5   8
ENDBRANCH   1   2
BRANCH   1  15
ATOM     15  N   UNL     1      46.860   6.054  12.544  0.00  0.00    +0.000 N 
ATOM     16  C   UNL     1      45.541   6.199  12.197  0.00  0.00    +0.000 C 
ATOM     17  O   UNL     1      44.953   7.273  12.259  0.00  0.00    +0.000 OA
ATOM     18  H   UNL     1      47.195   5.111  12.726  0.00  0.00    +0.000 HD
BRANCH  16  19
ATOM     19  C   UNL     1      44.865   5.001  11.693  0.00  0.00    +0.000 A 
ATOM     20  C   UNL     1      44.055   4.260  12.542  0.00  0.00    +0.000 A 
ATOM     21  S   UNL     1      43.402   2.864  11.810  0.00  0.00    +0.000 S 
ATOM     22  C   UNL     1      44.211   3.186  10.348  0.00  0.00    +0.000 A 
ATOM     23  N   UNL     1      44.136   2.325   9.300  0.00  0.00    +0.000 NA
ATOM     24  C   UNL     1      44.827   2.680   8.267  0.00  0.00    +0.000 A 
ATOM     25  N   UNL     1      45.564   3.834   8.178  0.00  0.00    +0.000 N 
ATOM     26  C   UNL     1      45.618   4.761   9.189  0.00  0.00    +0.000 A 
ATOM     27  O   UNL     1      46.186   5.840   9.047  0.00  0.00    +0.000 OA
ATOM     28  C   UNL     1      44.916   4.375  10.397  0.00  0.00    +0.000 A 
ATOM     29  H   UNL     1      46.047   4.073   7.325  0.00  0.00    +0.000 HD
ENDBRANCH  16  19
ENDBRANCH   1  15
BRANCH   1  30
ATOM     30  C   UNL     1      48.667   7.772  12.197  0.00  0.00    +0.000 C 
BRANCH  30  31
ATOM     31  N   UNL     1      48.339   9.139  11.767  0.00  0.00    +0.000 NA
ATOM     32  H   UNL     1      47.360   9.324  11.986  0.00  0.00    +0.000 HD
ATOM     33  H   UNL     1      48.428   9.222  10.755  0.00  0.00    +0.000 HD
ENDBRANCH  30  31
ENDBRANCH   1  30
TORSDOF 7
ENDMDL
