MODEL 1
REMARK VINA RESULT:    -8.563      0.000      0.000
REMARK INTER + INTRA:         -11.472
REMARK INTER:                 -11.065
REMARK INTRA:                  -0.406
REMARK UNBOUND:                -0.406
REMARK  Name = 
REMARK  5 active torsions:
REMARK  status: ('A' for Active; 'I' for Inactive)
REMARK    1  A    between atoms: C_2  and  C_4
REMARK    2  A    between atoms: C_8  and  O_9
REMARK    3  A    between atoms: O_9  and  C_10
REMARK    4  A    between atoms: C_10  and  C_11
REMARK    5  A    between atoms: C_15  and  C_16
REMARK                            x       y       z     vdW  Elec       q    Type
REMARK                         _______ _______ _______ _____ _____    ______ ____
ROOT
ATOM      1  C   UNL     1      44.000   6.323  11.436  0.00  0.00    +0.000 C 
ENDROOT
BRANCH   1   2
ATOM      2  C   UNL     1      44.032   4.897  10.971  0.00  0.00    +0.000 A 
ATOM      3  C   UNL     1      43.284   3.916  11.608  0.00  0.00    +0.000 A 
ATOM      4  N   UNL     1      43.258   2.625  11.222  0.00  0.00    +0.000 NA
ATOM      5  C   UNL     1      44.037   2.288  10.161  0.00  0.00    +0.000 A 
ATOM      6  C   UNL     1      44.864   3.169   9.461  0.00  0.00    +0.000 A 
ATOM      7  C   UNL     1      44.834   4.503   9.893  0.00  0.00    +0.000 A 
BRANCH   6   8
ATOM      8  C   UNL     1      45.704   2.711   8.343  0.00  0.00    +0.000 A 
ATOM      9  C   UNL     1      46.039   3.533   7.265  0.00  0.00    +0.000 A 
ATOM     10  C   UNL     1      46.832   3.028   6.238  0.00  0.00    +0.000 A 
ATOM     11  C   UNL     1      47.278   1.716   6.307  0.00  0.00    +0.000 A 
ATOM     12  C   UNL     1      46.913   0.964   7.408  0.00  0.00    +0.000 A 
ATOM     13  N   UNL     1      46.146   1.430   8.419  0.00  0.00    +0.000 NA
ENDBRANCH   6   8
ENDBRANCH   1   2
BRANCH   1  14
ATOM     14  O   UNL     1      45.301   6.883  11.274  0.00  0.00    +0.000 OA
BRANCH  14  19
ATOM     15  C   UNL     1      47.209   5.431  14.097  0.00  0.00    +0.000 A 
ATOM     16  C   UNL     1      48.126   6.464  14.227  0.00  0.00    +0.000 A 
ATOM     17  N   UNL     1      48.140   7.554  13.423  0.00  0.00    +0.000 NA
ATOM     18  C   UNL     1      47.179   7.615  12.469  0.00  0.00    +0.000 A 
ATOM     19  C   UNL     1      46.202   6.641  12.272  0.00  0.00    +0.000 A 
ATOM     20  C   UNL     1      46.225   5.527  13.107  0.00  0.00    +0.000 A 
BRANCH  15  22
ATOM     21  N   UNL     1      47.081   4.556  16.358  0.00  0.00    +0.000 N 
ATOM     22  C   UNL     1      47.279   4.290  15.030  0.00  0.00    +0.000 C 
ATOM     23  O   UNL     1      47.479   3.150  14.633  0.00  0.00    +0.000 OA
ATOM     24  H   UNL     1      47.031   3.749  16.969  0.00  0.00    +0.000 HD
ATOM     25  H   UNL     1      46.646   5.407  16.682  0.00  0.00    +0.000 HD
ENDBRANCH  15  22
ENDBRANCH  14  19
ENDBRANCH   1  14
TORSDOF 5
ENDMDL
MODEL 2
REMARK VINA RESULT:    -8.550      2.438      6.563
REMARK INTER + INTRA:         -11.456
REMARK INTER:                 -10.858
REMARK INTRA:                  -0.598
REMARK UNBOUND:                -0.406
REMARK  Name = 
REMARK  5 active torsions:
REMARK  status: ('A' for Active; 'I' for Inactive)
REMARK    1  A    between atoms: C_2  and  C_4
REMARK    2  A    between atoms: C_8  and  O_9
REMARK    3  A    between atoms: O_9  and  C_10
REMARK    4  A    between atoms: C_10  and  C_11
REMARK    5  A    between atoms: C_15  and  C_16
REMARK                            x       y       z     vdW  Elec       q    Type
REMARK                         _______ _______ _______ _____ _____    ______ ____
ROOT
ATOM      1  C   UNL     1      43.643   4.193  11.157  0.00  0.00    +0.000 C 
ENDROOT
BRANCH   1   2
ATOM      2  C   UNL     1      44.878   4.289  12.004  0.00  0.00    +0.000 A 
ATOM      3  C   UNL     1      45.250   3.255  12.852  0.00  0.00    +0.000 A 
ATOM      4  N   UNL     1      46.359   3.277  13.618  0.00  0.00    +0.000 NA
ATOM      5  C   UNL     1      47.124   4.398  13.555  0.00  0.00    +0.000 A 
ATOM      6  C   UNL     1      46.840   5.520  12.775  0.00  0.00    +0.000 A 
ATOM      7  C   UNL     1      45.686   5.432  11.982  0.00  0.00    +0.000 A 
BRANCH   6   8
ATOM      8  C   UNL     1      47.706   6.710  12.794  0.00  0.00    +0.000 A 
ATOM      9  C   UNL     1      47.382   7.889  12.120  0.00  0.00    +0.000 A 
ATOM     10  C   UNL     1      48.256   8.972  12.176  0.00  0.00    +0.000 A 
ATOM     11  C   UNL     1      49.432   8.860  12.903  0.00  0.00    +0.000 A 
ATOM     12  C   UNL     1      49.682   7.664  13.550  0.00  0.00    +0.000 A 
ATOM     13  N   UNL     1      48.851   6.598  13.514  0.00  0.00    +0.000 NA
ENDBRANCH   6   8
ENDBRANCH   1   2
BRANCH   1  14
ATOM     14  O   UNL     1      43.714   2.997  10.384  0.00  0.00    +0.000 OA
BRANCH  14  19
ATOM     15  C   UNL     1      46.257   2.032   7.868  0.00  0.00    +0.000 A 
ATOM     16  C   UNL     1      46.397   3.284   7.286  0.00  0.00    +0.000 A 
ATOM     17  N   UNL     1      45.684   4.369   7.669  0.00  0.00    +0.000 NA
ATOM     18  C   UNL     1      44.815   4.191   8.694  0.00  0.00    +0.000 A 
ATOM     19  C   UNL     1      44.617   2.983   9.359  0.00  0.00    +0.000 A 
ATOM     20  C   UNL     1      45.357   1.883   8.930  0.00  0.00    +0.000 A 
BRANCH  15  22
ATOM     21  N   UNL     1      46.728  -0.346   7.763  0.00  0.00    +0.000 N 
ATOM     22  C   UNL     1      47.087   0.916   7.377  0.00  0.00    +0.000 C 
ATOM     23  O   UNL     1      48.041   1.107   6.635  0.00  0.00    +0.000 OA
ATOM     24  H   UNL     1      47.247  -1.105   7.334  0.00  0.00    +0.000 HD
ATOM     25  H   UNL     1      45.812  -0.563   8.128  0.00  0.00    +0.000 HD
ENDBRANCH  15  22
ENDBRANCH  14  19
ENDBRANCH   1  14
TORSDOF 5
ENDMDL
MODEL 3
REMARK VINA RESULT:    -8.311      1.582      2.788
REMARK INTER + INTRA:         -11.147
REMARK INTER:                 -10.337
REMARK INTRA:                  -0.810
REMARK UNBOUND:                -0.406
REMARK  Name = 
REMARK  5 active torsions:
REMARK  status: ('A' for Active; 'I' for Inactive)
REMARK    1  A    between atoms: C_2  and  C_4
REMARK    2  A    between atoms: C_8  and  O_9
REMARK    3  A    between atoms: O_9  and  C_10
REMARK    4  A    between atoms: C_10  and  C_11
REMARK    5  A    between atoms: C_15  and  C_16
REMARK                            x       y       z     vdW  Elec       q    Type
REMARK                         _______ _______ _______ _____ _____    ______ ____
ROOT
ATOM      1  C   UNL     1      44.147   6.522  11.441  0.00  0.00    +0.000 C 
ENDROOT
BRANCH   1   2
ATOM      2  C   UNL     1      44.125   5.091  10.994  0.00  0.00    +0.000 A 
ATOM      3  C   UNL     1      43.342   4.147  11.643  0.00  0.00    +0.000 A 
ATOM      4  N   UNL     1      43.266   2.853  11.273  0.00  0.00    +0.000 NA
ATOM      5  C   UNL     1      44.031   2.474  10.216  0.00  0.00    +0.000 A 
ATOM      6  C   UNL     1      44.890   3.314   9.505  0.00  0.00    +0.000 A 
ATOM      7  C   UNL     1      44.910   4.654   9.921  0.00  0.00    +0.000 A 
BRANCH   6   8
ATOM      8  C   UNL     1      45.711   2.811   8.392  0.00  0.00    +0.000 A 
ATOM      9  C   UNL     1      46.051   3.599   7.290  0.00  0.00    +0.000 A 
ATOM     10  C   UNL     1      46.825   3.052   6.270  0.00  0.00    +0.000 A 
ATOM     11  C   UNL     1      47.248   1.734   6.370  0.00  0.00    +0.000 A 
ATOM     12  C   UNL     1      46.880   1.018   7.494  0.00  0.00    +0.000 A 
ATOM     13  N   UNL     1      46.131   1.525   8.499  0.00  0.00    +0.000 NA
ENDBRANCH   6   8
ENDBRANCH   1   2
BRANCH   1  14
ATOM     14  O   UNL     1      44.811   6.595  12.701  0.00  0.00    +0.000 OA
BRANCH  14  19
ATOM     15  C   UNL     1      48.220   7.956  12.201  0.00  0.00    +0.000 A 
ATOM     16  C   UNL     1      48.910   6.866  12.711  0.00  0.00    +0.000 A 
ATOM     17  N   UNL     1      48.300   5.766  13.216  0.00  0.00    +0.000 NA
ATOM     18  C   UNL     1      46.945   5.757  13.182  0.00  0.00    +0.000 A 
ATOM     19  C   UNL     1      46.162   6.790  12.672  0.00  0.00    +0.000 A 
ATOM     20  C   UNL     1      46.821   7.912  12.173  0.00  0.00    +0.000 A 
BRANCH  15  22
ATOM     21  N   UNL     1      48.280  10.243  11.389  0.00  0.00    +0.000 N 
ATOM     22  C   UNL     1      48.982   9.102  11.671  0.00  0.00    +0.000 C 
ATOM     23  O   UNL     1      50.194   9.047  11.515  0.00  0.00    +0.000 OA
ATOM     24  H   UNL     1      48.834  11.050  11.124  0.00  0.00    +0.000 HD
ATOM     25  H   UNL     1      47.358  10.418  11.759  0.00  0.00    +0.000 HD
ENDBRANCH  15  22
ENDBRANCH  14  19
ENDBRANCH   1  14
TORSDOF 5
ENDMDL
MODEL 4
REMARK VINA RESULT:    -8.166      2.689      6.672
REMARK INTER + INTRA:         -10.959
REMARK INTER:                 -10.624
REMARK INTRA:                  -0.335
REMARK UNBOUND:                -0.406
REMARK  Name = 
REMARK  5 active torsions:
REMARK  status: ('A' for Active; 'I' for Inactive)
REMARK    1  A    between atoms: C_2  and  C_4
REMARK    2  A    between atoms: C_8  and  O_9
REMARK    3  A    between atoms: O_9  and  C_10
REMARK    4  A    between atoms: C_10  and  C_11
REMARK    5  A    between atoms: C_15  and  C_16
REMARK                            x       y       z     vdW  Elec       q    Type
REMARK                         _______ _______ _______ _____ _____    ______ ____
ROOT
ATOM      1  C   UNL     1      44.190   2.738  11.583  0.00  0.00    +0.000 C 
ENDROOT
BRANCH   1   2
ATOM      2  C   UNL     1      45.069   3.804  12.167  0.00  0.00    +0.000 A 
ATOM      3  C   UNL     1      46.102   3.486  13.038  0.00  0.00    +0.000 A 
ATOM      4  N   UNL     1      46.936   4.398  13.576  0.00  0.00    +0.000 NA
ATOM      5  C   UNL     1      46.713   5.698  13.249  0.00  0.00    +0.000 A 
ATOM      6  C   UNL     1      45.686   6.152  12.420  0.00  0.00    +0.000 A 
ATOM      7  C   UNL     1      44.863   5.156  11.872  0.00  0.00    +0.000 A 
BRANCH   6   8
ATOM      8  C   UNL     1      45.494   7.585  12.147  0.00  0.00    +0.000 A 
ATOM      9  C   UNL     1      46.356   8.568  12.638  0.00  0.00    +0.000 A 
ATOM     10  C   UNL     1      46.106   9.907  12.345  0.00  0.00    +0.000 A 
ATOM     11  C   UNL     1      45.006  10.238  11.569  0.00  0.00    +0.000 A 
ATOM     12  C   UNL     1      44.201   9.211  11.111  0.00  0.00    +0.000 A 
ATOM     13  N   UNL     1      44.422   7.904  11.379  0.00  0.00    +0.000 NA
ENDBRANCH   6   8
ENDBRANCH   1   2
BRANCH   1  14
ATOM     14  O   UNL     1      43.766   3.157  10.288  0.00  0.00    +0.000 OA
BRANCH  14  19
ATOM     15  C   UNL     1      46.336   2.116   7.832  0.00  0.00    +0.000 A 
ATOM     16  C   UNL     1      46.567   3.372   7.291  0.00  0.00    +0.000 A 
ATOM     17  N   UNL     1      45.903   4.487   7.681  0.00  0.00    +0.000 NA
ATOM     18  C   UNL     1      44.990   4.331   8.672  0.00  0.00    +0.000 A 
ATOM     19  C   UNL     1      44.701   3.118   9.294  0.00  0.00    +0.000 A 
ATOM     20  C   UNL     1      45.393   1.990   8.858  0.00  0.00    +0.000 A 
BRANCH  15  22
ATOM     21  N   UNL     1      46.735  -0.277   7.755  0.00  0.00    +0.000 N 
ATOM     22  C   UNL     1      47.119   0.968   7.337  0.00  0.00    +0.000 C 
ATOM     23  O   UNL     1      48.055   1.118   6.564  0.00  0.00    +0.000 OA
ATOM     24  H   UNL     1      47.218  -1.058   7.325  0.00  0.00    +0.000 HD
ATOM     25  H   UNL     1      45.824  -0.460   8.150  0.00  0.00    +0.000 HD
ENDBRANCH  15  22
ENDBRANCH  14  19
ENDBRANCH   1  14
TORSDOF 5
ENDMDL
MODEL 5
REMARK VINA RESULT:    -8.016      1.549      2.016
REMARK INTER + INTRA:         -10.765
REMARK INTER:                 -10.122
REMARK INTRA:                  -0.643
REMARK UNBOUND:                -0.406
REMARK  Name = 
REMARK  5 active torsions:
REMARK  status: ('A' for Active; 'I' for Inactive)
REMARK    1  A    between atoms: C_2  and  C_4
REMARK    2  A    between atoms: C_8  and  O_9
REMARK    3  A    between atoms: O_9  and  C_10
REMARK    4  A    between atoms: C_10  and  C_11
REMARK    5  A    between atoms: C_15  and  C_16
REMARK                            x       y       z     vdW  Elec       q    Type
REMARK                         _______ _______ _______ _____ _____    ______ ____
ROOT
ATOM      1  C   UNL     1      45.102   5.530  12.949  0.00  0.00    +0.000 C 
ENDROOT
BRANCH   1   2
ATOM      2  C   UNL     1      44.681   4.442  12.006  0.00  0.00    +0.000 A 
ATOM      3  C   UNL     1      43.606   3.614  12.299  0.00  0.00    +0.000 A 
ATOM      4  N   UNL     1      43.169   2.636  11.481  0.00  0.00    +0.000 NA
ATOM      5  C   UNL     1      43.855   2.456  10.322  0.00  0.00    +0.000 A 
ATOM      6  C   UNL     1      44.974   3.191   9.931  0.00  0.00    +0.000 A 
ATOM      7  C   UNL     1      45.370   4.210  10.810  0.00  0.00    +0.000 A 
BRANCH   6   8
ATOM      8  C   UNL     1      45.681   2.905   8.672  0.00  0.00    +0.000 A 
ATOM      9  C   UNL     1      46.144   1.630   8.340  0.00  0.00    +0.000 A 
ATOM     10  C   UNL     1      46.812   1.437   7.133  0.00  0.00    +0.000 A 
ATOM     11  C   UNL     1      47.003   2.515   6.282  0.00  0.00    +0.000 A 
ATOM     12  C   UNL     1      46.510   3.746   6.673  0.00  0.00    +0.000 A 
ATOM     13  N   UNL     1      45.857   3.961   7.837  0.00  0.00    +0.000 NA
ENDBRANCH   6   8
ENDBRANCH   1   2
BRANCH   1  14
ATOM     14  O   UNL     1      46.524   5.638  12.911  0.00  0.00    +0.000 OA
BRANCH  14  19
ATOM     15  C   UNL     1      47.631   4.646  16.304  0.00  0.00    +0.000 A 
ATOM     16  C   UNL     1      48.668   5.562  16.415  0.00  0.00    +0.000 A 
ATOM     17  N   UNL     1      49.005   6.430  15.431  0.00  0.00    +0.000 NA
ATOM     18  C   UNL     1      48.252   6.389  14.304  0.00  0.00    +0.000 A 
ATOM     19  C   UNL     1      47.180   5.522  14.104  0.00  0.00    +0.000 A 
ATOM     20  C   UNL     1      46.869   4.634  15.131  0.00  0.00    +0.000 A 
BRANCH  15  22
ATOM     21  N   UNL     1      48.058   3.950  18.589  0.00  0.00    +0.000 N 
ATOM     22  C   UNL     1      47.345   3.748  17.439  0.00  0.00    +0.000 C 
ATOM     23  O   UNL     1      46.489   2.878  17.366  0.00  0.00    +0.000 OA
ATOM     24  H   UNL     1      47.777   3.393  19.389  0.00  0.00    +0.000 HD
ATOM     25  H   UNL     1      48.553   4.809  18.778  0.00  0.00    +0.000 HD
ENDBRANCH  15  22
ENDBRANCH  14  19
ENDBRANCH   1  14
TORSDOF 5
ENDMDL
MODEL 6
REMARK VINA RESULT:    -8.007      2.214      7.319
REMARK INTER + INTRA:         -10.754
REMARK INTER:                 -10.112
REMARK INTRA:                  -0.642
REMARK UNBOUND:                -0.406
REMARK  Name = 
REMARK  5 active torsions:
REMARK  status: ('A' for Active; 'I' for Inactive)
REMARK    1  A    between atoms: C_2  and  C_4
REMARK    2  A    between atoms: C_8  and  O_9
REMARK    3  A    between atoms: O_9  and  C_10
REMARK    4  A    between atoms: C_10  and  C_11
REMARK    5  A    between atoms: C_15  and  C_16
REMARK                            x       y       z     vdW  Elec       q    Type
REMARK                         _______ _______ _______ _____ _____    ______ ____
ROOT
ATOM      1  C   UNL     1      44.461   4.814  11.201  0.00  0.00    +0.000 C 
ENDROOT
BRANCH   1   2
ATOM      2  C   UNL     1      45.630   5.380  11.951  0.00  0.00    +0.000 A 
ATOM      3  C   UNL     1      46.349   6.458  11.454  0.00  0.00    +0.000 A 
ATOM      4  N   UNL     1      47.394   7.021  12.094  0.00  0.00    +0.000 NA
ATOM      5  C   UNL     1      47.757   6.465  13.279  0.00  0.00    +0.000 A 
ATOM      6  C   UNL     1      47.143   5.357  13.866  0.00  0.00    +0.000 A 
ATOM      7  C   UNL     1      46.049   4.827  13.167  0.00  0.00    +0.000 A 
BRANCH   6   8
ATOM      8  C   UNL     1      47.625   4.795  15.139  0.00  0.00    +0.000 A 
ATOM      9  C   UNL     1      48.186   5.583  16.146  0.00  0.00    +0.000 A 
ATOM     10  C   UNL     1      48.627   4.980  17.321  0.00  0.00    +0.000 A 
ATOM     11  C   UNL     1      48.499   3.607  17.470  0.00  0.00    +0.000 A 
ATOM     12  C   UNL     1      47.927   2.892  16.433  0.00  0.00    +0.000 A 
ATOM     13  N   UNL     1      47.488   3.453  15.284  0.00  0.00    +0.000 NA
ENDBRANCH   6   8
ENDBRANCH   1   2
BRANCH   1  14
ATOM     14  O   UNL     1      44.697   4.973   9.804  0.00  0.00    +0.000 OA
BRANCH  14  19
ATOM     15  C   UNL     1      46.495   2.751   7.447  0.00  0.00    +0.000 A 
ATOM     16  C   UNL     1      46.095   1.549   8.014  0.00  0.00    +0.000 A 
ATOM     17  N   UNL     1      45.312   1.468   9.117  0.00  0.00    +0.000 NA
ATOM     18  C   UNL     1      44.897   2.643   9.651  0.00  0.00    +0.000 A 
ATOM     19  C   UNL     1      45.225   3.899   9.145  0.00  0.00    +0.000 A 
ATOM     20  C   UNL     1      46.043   3.945   8.019  0.00  0.00    +0.000 A 
BRANCH  15  22
ATOM     21  N   UNL     1      48.676   2.467   6.423  0.00  0.00    +0.000 N 
ATOM     22  C   UNL     1      47.345   2.725   6.242  0.00  0.00    +0.000 C 
ATOM     23  O   UNL     1      46.877   2.901   5.125  0.00  0.00    +0.000 OA
ATOM     24  H   UNL     1      49.225   2.351   5.577  0.00  0.00    +0.000 HD
ATOM     25  H   UNL     1      49.039   2.048   7.267  0.00  0.00    +0.000 HD
ENDBRANCH  15  22
ENDBRANCH  14  19
ENDBRANCH   1  14
TORSDOF 5
ENDMDL
MODEL 7
REMARK VINA RESULT:    -7.636      1.834      3.140
REMARK INTER + INTRA:         -10.274
REMARK INTER:                  -9.583
REMARK INTRA:                  -0.690
REMARK UNBOUND:                -0.406
REMARK  Name = 
REMARK  5 active torsions:
REMARK  status: ('A' for Active; 'I' for Inactive)
REMARK    1  A    between atoms: C_2  and  C_4
REMARK    2  A    between atoms: C_8  and  O_9
REMARK    3  A    between atoms: O_9  and  C_10
REMARK    4  A    between atoms: C_10  and  C_11
REMARK    5  A    between atoms: C_15  and  C_16
REMARK                            x       y       z     vdW  Elec       q    Type
REMARK                         _______ _______ _______ _____ _____    ______ ____
ROOT
ATOM      1  C   UNL     1      45.161   4.955  13.245  0.00  0.00    +0.000 C 
ENDROOT
BRANCH   1   2
ATOM      2  C   UNL     1      44.686   3.994  12.195  0.00  0.00    +0.000 A 
ATOM      3  C   UNL     1      43.545   3.226  12.386  0.00  0.00    +0.000 A 
ATOM      4  N   UNL     1      43.061   2.364  11.471  0.00  0.00    +0.000 NA
ATOM      5  C   UNL     1      43.763   2.240  10.315  0.00  0.00    +0.000 A 
ATOM      6  C   UNL     1      44.944   2.922  10.017  0.00  0.00    +0.000 A 
ATOM      7  C   UNL     1      45.389   3.822  10.997  0.00  0.00    +0.000 A 
BRANCH   6   8
ATOM      8  C   UNL     1      45.663   2.701   8.752  0.00  0.00    +0.000 A 
ATOM      9  C   UNL     1      45.852   3.711   7.806  0.00  0.00    +0.000 A 
ATOM     10  C   UNL     1      46.535   3.426   6.627  0.00  0.00    +0.000 A 
ATOM     11  C   UNL     1      47.018   2.143   6.414  0.00  0.00    +0.000 A 
ATOM     12  C   UNL     1      46.799   1.196   7.399  0.00  0.00    +0.000 A 
ATOM     13  N   UNL     1      46.141   1.447   8.553  0.00  0.00    +0.000 NA
ENDBRANCH   6   8
ENDBRANCH   1   2
BRANCH   1  14
ATOM     14  O   UNL     1      46.536   5.244  13.008  0.00  0.00    +0.000 OA
BRANCH  14  19
ATOM     15  C   UNL     1      46.450   8.880  12.304  0.00  0.00    +0.000 A 
ATOM     16  C   UNL     1      47.823   9.083  12.314  0.00  0.00    +0.000 A 
ATOM     17  N   UNL     1      48.721   8.101  12.566  0.00  0.00    +0.000 NA
ATOM     18  C   UNL     1      48.216   6.863  12.791  0.00  0.00    +0.000 A 
ATOM     19  C   UNL     1      46.858   6.552  12.781  0.00  0.00    +0.000 A 
ATOM     20  C   UNL     1      45.962   7.589  12.533  0.00  0.00    +0.000 A 
BRANCH  15  22
ATOM     21  N   UNL     1      44.338  10.030  12.630  0.00  0.00    +0.000 N 
ATOM     22  C   UNL     1      45.560  10.020  12.014  0.00  0.00    +0.000 C 
ATOM     23  O   UNL     1      45.907  10.931  11.276  0.00  0.00    +0.000 OA
ATOM     24  H   UNL     1      43.783  10.869  12.501  0.00  0.00    +0.000 HD
ATOM     25  H   UNL     1      44.133   9.463  13.441  0.00  0.00    +0.000 HD
ENDBRANCH  15  22
ENDBRANCH  14  19
ENDBRANCH   1  14
TORSDOF 5
ENDMDL
MODEL 8
REMARK VINA RESULT:    -7.625      1.787      2.424
REMARK INTER + INTRA:         -10.259
REMARK INTER:                  -9.827
REMARK INTRA:                  -0.432
REMARK UNBOUND:                -0.406
REMARK  Name = 
REMARK  5 active torsions:
REMARK  status: ('A' for Active; 'I' for Inactive)
REMARK    1  A    between atoms: C_2  and  C_4
REMARK    2  A    between atoms: C_8  and  O_9
REMARK    3  A    between atoms: O_9  and  C_10
REMARK    4  A    between atoms: C_10  and  C_11
REMARK    5  A    between atoms: C_15  and  C_16
REMARK                            x       y       z     vdW  Elec       q    Type
REMARK                         _______ _______ _______ _____ _____    ______ ____
ROOT
ATOM      1  C   UNL     1      44.412   6.332  11.635  0.00  0.00    +0.000 C 
ENDROOT
BRANCH   1   2
ATOM      2  C   UNL     1      44.327   4.958  11.038  0.00  0.00    +0.000 A 
ATOM      3  C   UNL     1      43.482   3.994  11.569  0.00  0.00    +0.000 A 
ATOM      4  N   UNL     1      43.348   2.753  11.062  0.00  0.00    +0.000 NA
ATOM      5  C   UNL     1      44.116   2.447   9.983  0.00  0.00    +0.000 A 
ATOM      6  C   UNL     1      45.032   3.310   9.381  0.00  0.00    +0.000 A 
ATOM      7  C   UNL     1      45.112   4.595   9.937  0.00  0.00    +0.000 A 
BRANCH   6   8
ATOM      8  C   UNL     1      45.852   2.885   8.235  0.00  0.00    +0.000 A 
ATOM      9  C   UNL     1      46.380   1.597   8.123  0.00  0.00    +0.000 A 
ATOM     10  C   UNL     1      47.154   1.268   7.012  0.00  0.00    +0.000 A 
ATOM     11  C   UNL     1      47.383   2.226   6.036  0.00  0.00    +0.000 A 
ATOM     12  C   UNL     1      46.821   3.478   6.211  0.00  0.00    +0.000 A 
ATOM     13  N   UNL     1      46.065   3.823   7.277  0.00  0.00    +0.000 NA
ENDBRANCH   6   8
ENDBRANCH   1   2
BRANCH   1  14
ATOM     14  O   UNL     1      45.738   6.823  11.458  0.00  0.00    +0.000 OA
BRANCH  14  19
ATOM     15  C   UNL     1      47.898   7.709  14.334  0.00  0.00    +0.000 A 
ATOM     16  C   UNL     1      48.219   6.411  14.706  0.00  0.00    +0.000 A 
ATOM     17  N   UNL     1      47.736   5.313  14.077  0.00  0.00    +0.000 NA
ATOM     18  C   UNL     1      46.919   5.533  13.017  0.00  0.00    +0.000 A 
ATOM     19  C   UNL     1      46.554   6.795  12.553  0.00  0.00    +0.000 A 
ATOM     20  C   UNL     1      47.058   7.902  13.232  0.00  0.00    +0.000 A 
BRANCH  15  22
ATOM     21  N   UNL     1      47.666   9.493  15.962  0.00  0.00    +0.000 N 
ATOM     22  C   UNL     1      48.484   8.834  15.086  0.00  0.00    +0.000 C 
ATOM     23  O   UNL     1      49.659   9.150  14.953  0.00  0.00    +0.000 OA
ATOM     24  H   UNL     1      48.111  10.195  16.543  0.00  0.00    +0.000 HD
ATOM     25  H   UNL     1      46.800   9.097  16.300  0.00  0.00    +0.000 HD
ENDBRANCH  15  22
ENDBRANCH  14  19
ENDBRANCH   1  14
TORSDOF 5
ENDMDL
MODEL 9
REMARK VINA RESULT:    -7.442      2.463      3.373
REMARK INTER + INTRA:         -10.024
REMARK INTER:                  -9.434
REMARK INTRA:                  -0.590
REMARK UNBOUND:                -0.406
REMARK  Name = 
REMARK  5 active torsions:
REMARK  status: ('A' for Active; 'I' for Inactive)
REMARK    1  A    between atoms: C_2  and  C_4
REMARK    2  A    between atoms: C_8  and  O_9
REMARK    3  A    between atoms: O_9  and  C_10
REMARK    4  A    between atoms: C_10  and  C_11
REMARK    5  A    between atoms: C_15  and  C_16
REMARK                            x       y       z     vdW  Elec       q    Type
REMARK                         _______ _______ _______ _____ _____    ______ ____
ROOT
ATOM      1  C   UNL     1      44.002   6.257  11.618  0.00  0.00    +0.000 C 
ENDROOT
BRANCH   1   2
ATOM      2  C   UNL     1      44.038   4.844  11.118  0.00  0.00    +0.000 A 
ATOM      3  C   UNL     1      43.296   3.844  11.731  0.00  0.00    +0.000 A 
ATOM      4  N   UNL     1      43.273   2.564  11.313  0.00  0.00    +0.000 NA
ATOM      5  C   UNL     1      44.050   2.257  10.241  0.00  0.00    +0.000 A 
ATOM      6  C   UNL     1      44.872   3.157   9.562  0.00  0.00    +0.000 A 
ATOM      7  C   UNL     1      44.838   4.480  10.028  0.00  0.00    +0.000 A 
BRANCH   6   8
ATOM      8  C   UNL     1      45.711   2.731   8.430  0.00  0.00    +0.000 A 
ATOM      9  C   UNL     1      46.068   3.592   7.390  0.00  0.00    +0.000 A 
ATOM     10  C   UNL     1      46.858   3.115   6.347  0.00  0.00    +0.000 A 
ATOM     11  C   UNL     1      47.279   1.794   6.363  0.00  0.00    +0.000 A 
ATOM     12  C   UNL     1      46.894   1.002   7.430  0.00  0.00    +0.000 A 
ATOM     13  N   UNL     1      46.128   1.440   8.455  0.00  0.00    +0.000 NA
ENDBRANCH   6   8
ENDBRANCH   1   2
BRANCH   1  14
ATOM     14  O   UNL     1      45.314   6.625  12.037  0.00  0.00    +0.000 OA
BRANCH  14  19
ATOM     15  C   UNL     1      47.026   9.907  12.179  0.00  0.00    +0.000 A 
ATOM     16  C   UNL     1      45.972  10.665  11.689  0.00  0.00    +0.000 A 
ATOM     17  N   UNL     1      44.786  10.135  11.306  0.00  0.00    +0.000 NA
ATOM     18  C   UNL     1      44.650   8.793  11.447  0.00  0.00    +0.000 A 
ATOM     19  C   UNL     1      45.638   7.949  11.948  0.00  0.00    +0.000 A 
ATOM     20  C   UNL     1      46.850   8.526  12.319  0.00  0.00    +0.000 A 
BRANCH  15  22
ATOM     21  N   UNL     1      48.338  11.090  13.843  0.00  0.00    +0.000 N 
ATOM     22  C   UNL     1      48.274  10.587  12.572  0.00  0.00    +0.000 C 
ATOM     23  O   UNL     1      49.223  10.675  11.805  0.00  0.00    +0.000 OA
ATOM     24  H   UNL     1      49.238  11.461  14.129  0.00  0.00    +0.000 HD
ATOM     25  H   UNL     1      47.707  10.798  14.575  0.00  0.00    +0.000 HD
ENDBRANCH  15  22
ENDBRANCH  14  19
ENDBRANCH   1  14
TORSDOF 5
ENDMDL
