MODEL 1
REMARK VINA RESULT:    -6.372      0.000      0.000
REMARK INTER + INTRA:          -9.910
REMARK INTER:                  -9.352
REMARK INTRA:                  -0.558
REMARK UNBOUND:                -0.558
REMARK  Name = 
REMARK  10 active torsions:
REMARK  status: ('A' for Active; 'I' for Inactive)
REMARK    1  A    between atoms: C_1  and  N_2
REMARK    2  A    between atoms: N_2  and  C_3
REMARK    3  A    between atoms: N_2  and  C_4
REMARK    4  A    between atoms: C_4  and  C_5
REMARK    5  A    between atoms: C_5  and  N_6
REMARK    6  A    between atoms: N_6  and  C_7
REMARK    7  A    between atoms: C_7  and  C_8
REMARK    8  A    between atoms: C_12  and  C_13
REMARK    9  A    between atoms: C_14  and  C_15
REMARK   10  A    between atoms: C_18  and  C_19
REMARK                            x       y       z     vdW  Elec       q    Type
REMARK                         _______ _______ _______ _____ _____    ______ ____
ROOT
ATOM      1  C   UNL     1      44.365   3.841  10.952  0.00  0.00    +0.000 A 
ATOM      2  C   UNL     1      43.480   4.911  10.957  0.00  0.00    +0.000 A 
ATOM      3  N   UNL     1      43.546   5.936  11.834  0.00  0.00    +0.000 NA
ATOM      4  C   UNL     1      44.539   5.878  12.747  0.00  0.00    +0.000 A 
ATOM      5  C   UNL     1      45.488   4.862  12.841  0.00  0.00    +0.000 A 
ATOM      6  C   UNL     1      45.379   3.820  11.921  0.00  0.00    +0.000 A 
ENDROOT
BRANCH   5   7
ATOM      7  C   UNL     1      46.493   4.888  13.913  0.00  0.00    +0.000 C 
ATOM      8  C   UNL     1      46.499   4.071  14.981  0.00  0.00    +0.000 C 
BRANCH   8   9
ATOM      9  C   UNL     1      47.506   4.137  16.052  0.00  0.00    +0.000 A 
ATOM     10  C   UNL     1      47.809   3.045  16.870  0.00  0.00    +0.000 A 
ATOM     11  C   UNL     1      48.812   3.149  17.832  0.00  0.00    +0.000 A 
ATOM     12  C   UNL     1      49.497   4.349  17.944  0.00  0.00    +0.000 A 
ATOM     13  N   UNL     1      49.239   5.441  17.168  0.00  0.00    +0.000 NA
ATOM     14  C   UNL     1      48.257   5.300  16.243  0.00  0.00    +0.000 A 
BRANCH  12  15
ATOM     15  C   UNL     1      50.588   4.477  18.957  0.00  0.00    +0.000 C 
ATOM     16  N   UNL     1      51.671   3.658  18.764  0.00  0.00    +0.000 N 
ATOM     17  O   UNL     1      50.536   5.254  19.901  0.00  0.00    +0.000 OA
ATOM     18  H   UNL     1      51.680   3.015  17.979  0.00  0.00    +0.000 HD
ATOM     19  H   UNL     1      52.435   3.681  19.422  0.00  0.00    +0.000 HD
ENDBRANCH  12  15
ENDBRANCH   8   9
ENDBRANCH   5   7
BRANCH   1  20
ATOM     20  C   UNL     1      44.275   2.779   9.899  0.00  0.00    +0.000 C 
BRANCH  20  21
ATOM     21  N   UNL     1      44.280   3.343   8.550  0.00  0.00    +0.000 NA
ATOM     22  H   UNL     1      44.083   2.588   7.889  0.00  0.00    +0.000 HD
BRANCH  21  23
ATOM     23  C   UNL     1      45.611   3.867   8.209  0.00  0.00    +0.000 C 
BRANCH  23  24
ATOM     24  C   UNL     1      46.181   3.316   6.875  0.00  0.00    +0.000 C 
BRANCH  24  26
ATOM     25  C   UNL     1      46.897   1.101   7.538  0.00  0.00    +0.000 C 
ATOM     26  N   UNL     1      47.342   2.415   7.062  0.00  0.00    +0.000 NA
ATOM     27  C   UNL     1      48.062   2.256   5.794  0.00  0.00    +0.000 C 
ENDBRANCH  24  26
ENDBRANCH  23  24
ENDBRANCH  21  23
ENDBRANCH  20  21
ENDBRANCH   1  20
TORSDOF 8
ENDMDL
MODEL 2
REMARK VINA RESULT:    -5.925      2.959      3.274
REMARK INTER + INTRA:          -9.254
REMARK INTER:                  -8.631
REMARK INTRA:                  -0.623
REMARK UNBOUND:                -0.558
REMARK  Name = 
REMARK  10 active torsions:
REMARK  status: ('A' for Active; 'I' for Inactive)
REMARK    1  A    between atoms: C_1  and  N_2
REMARK    2  A    between atoms: N_2  and  C_3
REMARK    3  A    between atoms: N_2  and  C_4
REMARK    4  A    between atoms: C_4  and  C_5
REMARK    5  A    between atoms: C_5  and  N_6
REMARK    6  A    between atoms: N_6  and  C_7
REMARK    7  A    between atoms: C_7  and  C_8
REMARK    8  A    between atoms: C_12  and  C_13
REMARK    9  A    between atoms: C_14  and  C_15
REMARK   10  A    between atoms: C_18  and  C_19
REMARK                            x       y       z     vdW  Elec       q    Type
REMARK                         _______ _______ _______ _____ _____    ______ ____
ROOT
ATOM      1  C   UNL     1      44.286   4.498  10.544  0.00  0.00    +0.000 A 
ATOM      2  C   UNL     1      43.134   4.331  11.301  0.00  0.00    +0.000 A 
ATOM      3  N   UNL     1      42.980   4.815  12.552  0.00  0.00    +0.000 NA
ATOM      4  C   UNL     1      44.032   5.491  13.064  0.00  0.00    +0.000 A 
ATOM      5  C   UNL     1      45.235   5.728  12.404  0.00  0.00    +0.000 A 
ATOM      6  C   UNL     1      45.354   5.204  11.117  0.00  0.00    +0.000 A 
ENDROOT
BRANCH   5   7
ATOM      7  C   UNL     1      46.325   6.437  13.089  0.00  0.00    +0.000 C 
ATOM      8  C   UNL     1      47.630   6.131  12.979  0.00  0.00    +0.000 C 
BRANCH   8   9
ATOM      9  C   UNL     1      48.698   6.845  13.697  0.00  0.00    +0.000 A 
ATOM     10  C   UNL     1      48.859   6.763  15.083  0.00  0.00    +0.000 A 
ATOM     11  C   UNL     1      49.922   7.416  15.703  0.00  0.00    +0.000 A 
ATOM     12  C   UNL     1      50.808   8.132  14.913  0.00  0.00    +0.000 A 
ATOM     13  N   UNL     1      50.694   8.240  13.557  0.00  0.00    +0.000 NA
ATOM     14  C   UNL     1      49.647   7.590  12.992  0.00  0.00    +0.000 A 
BRANCH  12  15
ATOM     15  C   UNL     1      51.966   8.825  15.555  0.00  0.00    +0.000 C 
ATOM     16  N   UNL     1      53.206   8.415  15.137  0.00  0.00    +0.000 N 
ATOM     17  O   UNL     1      51.834   9.702  16.399  0.00  0.00    +0.000 OA
ATOM     18  H   UNL     1      53.283   7.677  14.445  0.00  0.00    +0.000 HD
ATOM     19  H   UNL     1      54.029   8.830  15.545  0.00  0.00    +0.000 HD
ENDBRANCH  12  15
ENDBRANCH   8   9
ENDBRANCH   5   7
BRANCH   1  20
ATOM     20  C   UNL     1      44.354   3.998   9.134  0.00  0.00    +0.000 C 
BRANCH  20  21
ATOM     21  N   UNL     1      45.315   4.751   8.330  0.00  0.00    +0.000 NA
ATOM     22  H   UNL     1      44.794   5.290   7.634  0.00  0.00    +0.000 HD
BRANCH  21  23
ATOM     23  C   UNL     1      46.198   3.842   7.585  0.00  0.00    +0.000 C 
BRANCH  23  24
ATOM     24  C   UNL     1      46.028   2.347   7.964  0.00  0.00    +0.000 C 
BRANCH  24  26
ATOM     25  C   UNL     1      46.813   0.098   7.533  0.00  0.00    +0.000 C 
ATOM     26  N   UNL     1      47.195   1.513   7.596  0.00  0.00    +0.000 NA
ATOM     27  C   UNL     1      47.719   1.933   6.292  0.00  0.00    +0.000 C 
ENDBRANCH  24  26
ENDBRANCH  23  24
ENDBRANCH  21  23
ENDBRANCH  20  21
ENDBRANCH   1  20
TORSDOF 8
ENDMDL
MODEL 3
REMARK VINA RESULT:    -5.864      3.849      4.524
REMARK INTER + INTRA:          -9.165
REMARK INTER:                  -8.506
REMARK INTRA:                  -0.659
REMARK UNBOUND:                -0.558
REMARK  Name = 
REMARK  10 active torsions:
REMARK  status: ('A' for Active; 'I' for Inactive)
REMARK    1  A    between atoms: C_1  and  N_2
REMARK    2  A    between atoms: N_2  and  C_3
REMARK    3  A    between atoms: N_2  and  C_4
REMARK    4  A    between atoms: C_4  and  C_5
REMARK    5  A    between atoms: C_5  and  N_6
REMARK    6  A    between atoms: N_6  and  C_7
REMARK    7  A    between atoms: C_7  and  C_8
REMARK    8  A    between atoms: C_12  and  C_13
REMARK    9  A    between atoms: C_14  and  C_15
REMARK   10  A    between atoms: C_18  and  C_19
REMARK                            x       y       z     vdW  Elec       q    Type
REMARK                         _______ _______ _______ _____ _____    ______ ____
ROOT
ATOM      1  C   UNL     1      44.253   3.982  10.775  0.00  0.00    +0.000 A 
ATOM      2  C   UNL     1      43.138   4.005  11.603  0.00  0.00    +0.000 A 
ATOM      3  N   UNL     1      43.010   4.824  12.668  0.00  0.00    +0.000 NA
ATOM      4  C   UNL     1      44.049   5.651  12.914  0.00  0.00    +0.000 A 
ATOM      5  C   UNL     1      45.216   5.724  12.157  0.00  0.00    +0.000 A 
ATOM      6  C   UNL     1      45.310   4.855  11.071  0.00  0.00    +0.000 A 
ENDROOT
BRANCH   5   7
ATOM      7  C   UNL     1      46.300   6.633  12.557  0.00  0.00    +0.000 C 
ATOM      8  C   UNL     1      47.387   6.908  11.815  0.00  0.00    +0.000 C 
BRANCH   8   9
ATOM      9  C   UNL     1      48.468   7.805  12.254  0.00  0.00    +0.000 A 
ATOM     10  C   UNL     1      48.596   9.115  11.785  0.00  0.00    +0.000 A 
ATOM     11  C   UNL     1      49.607   9.938  12.277  0.00  0.00    +0.000 A 
ATOM     12  C   UNL     1      50.464   9.427  13.241  0.00  0.00    +0.000 A 
ATOM     13  N   UNL     1      50.376   8.157  13.731  0.00  0.00    +0.000 NA
ATOM     14  C   UNL     1      49.379   7.388  13.228  0.00  0.00    +0.000 A 
BRANCH  12  15
ATOM     15  C   UNL     1      51.543  10.298  13.796  0.00  0.00    +0.000 C 
ATOM     16  N   UNL     1      51.346  10.738  15.080  0.00  0.00    +0.000 N 
ATOM     17  O   UNL     1      52.543  10.608  13.161  0.00  0.00    +0.000 OA
ATOM     18  H   UNL     1      50.501  10.474  15.576  0.00  0.00    +0.000 HD
ATOM     19  H   UNL     1      52.028  11.345  15.507  0.00  0.00    +0.000 HD
ENDBRANCH  12  15
ENDBRANCH   8   9
ENDBRANCH   5   7
BRANCH   1  20
ATOM     20  C   UNL     1      44.291   3.098   9.567  0.00  0.00    +0.000 C 
BRANCH  20  21
ATOM     21  N   UNL     1      44.316   3.868   8.325  0.00  0.00    +0.000 NA
ATOM     22  H   UNL     1      43.373   3.866   7.929  0.00  0.00    +0.000 HD
BRANCH  21  23
ATOM     23  C   UNL     1      45.191   3.228   7.332  0.00  0.00    +0.000 C 
BRANCH  23  24
ATOM     24  C   UNL     1      46.698   3.536   7.528  0.00  0.00    +0.000 C 
BRANCH  24  26
ATOM     25  C   UNL     1      47.197   1.172   7.378  0.00  0.00    +0.000 C 
ATOM     26  N   UNL     1      47.588   2.513   6.932  0.00  0.00    +0.000 NA
ATOM     27  C   UNL     1      47.516   2.579   5.468  0.00  0.00    +0.000 C 
ENDBRANCH  24  26
ENDBRANCH  23  24
ENDBRANCH  21  23
ENDBRANCH  20  21
ENDBRANCH   1  20
TORSDOF 8
ENDMDL
MODEL 4
REMARK VINA RESULT:    -5.662      5.064      6.009
REMARK INTER + INTRA:          -8.868
REMARK INTER:                  -8.320
REMARK INTRA:                  -0.548
REMARK UNBOUND:                -0.558
REMARK  Name = 
REMARK  10 active torsions:
REMARK  status: ('A' for Active; 'I' for Inactive)
REMARK    1  A    between atoms: C_1  and  N_2
REMARK    2  A    between atoms: N_2  and  C_3
REMARK    3  A    between atoms: N_2  and  C_4
REMARK    4  A    between atoms: C_4  and  C_5
REMARK    5  A    between atoms: C_5  and  N_6
REMARK    6  A    between atoms: N_6  and  C_7
REMARK    7  A    between atoms: C_7  and  C_8
REMARK    8  A    between atoms: C_12  and  C_13
REMARK    9  A    between atoms: C_14  and  C_15
REMARK   10  A    between atoms: C_18  and  C_19
REMARK                            x       y       z     vdW  Elec       q    Type
REMARK                         _______ _______ _______ _____ _____    ______ ____
ROOT
ATOM      1  C   UNL     1      44.622   5.332  12.368  0.00  0.00    +0.000 A 
ATOM      2  C   UNL     1      44.776   4.287  13.270  0.00  0.00    +0.000 A 
ATOM      3  N   UNL     1      45.910   4.055  13.964  0.00  0.00    +0.000 NA
ATOM      4  C   UNL     1      46.935   4.906  13.737  0.00  0.00    +0.000 A 
ATOM      5  C   UNL     1      46.901   5.989  12.863  0.00  0.00    +0.000 A 
ATOM      6  C   UNL     1      45.713   6.189  12.161  0.00  0.00    +0.000 A 
ENDROOT
BRANCH   5   7
ATOM      7  C   UNL     1      48.101   6.815  12.665  0.00  0.00    +0.000 C 
ATOM      8  C   UNL     1      48.316   7.621  11.610  0.00  0.00    +0.000 C 
BRANCH   8   9
ATOM      9  C   UNL     1      49.540   8.417  11.428  0.00  0.00    +0.000 A 
ATOM     10  C   UNL     1      49.550   9.812  11.514  0.00  0.00    +0.000 A 
ATOM     11  C   UNL     1      50.749  10.511  11.388  0.00  0.00    +0.000 A 
ATOM     12  C   UNL     1      51.916   9.789  11.188  0.00  0.00    +0.000 A 
ATOM     13  N   UNL     1      51.957   8.428  11.100  0.00  0.00    +0.000 NA
ATOM     14  C   UNL     1      50.770   7.785  11.229  0.00  0.00    +0.000 A 
BRANCH  12  15
ATOM     15  C   UNL     1      53.216  10.518  11.069  0.00  0.00    +0.000 C 
ATOM     16  N   UNL     1      54.255   9.994  11.794  0.00  0.00    +0.000 N 
ATOM     17  O   UNL     1      53.359  11.516  10.376  0.00  0.00    +0.000 OA
ATOM     18  H   UNL     1      54.101   9.172  12.369  0.00  0.00    +0.000 HD
ATOM     19  H   UNL     1      55.155  10.449  11.772  0.00  0.00    +0.000 HD
ENDBRANCH  12  15
ENDBRANCH   8   9
ENDBRANCH   5   7
BRANCH   1  20
ATOM     20  C   UNL     1      43.307   5.572  11.693  0.00  0.00    +0.000 C 
BRANCH  20  21
ATOM     21  N   UNL     1      43.415   5.488  10.237  0.00  0.00    +0.000 NA
ATOM     22  H   UNL     1      42.471   5.530   9.845  0.00  0.00    +0.000 HD
BRANCH  21  23
ATOM     23  C   UNL     1      43.984   4.195   9.830  0.00  0.00    +0.000 C 
BRANCH  23  24
ATOM     24  C   UNL     1      45.170   4.314   8.836  0.00  0.00    +0.000 C 
BRANCH  24  26
ATOM     25  C   UNL     1      46.497   3.278   7.098  0.00  0.00    +0.000 C 
ATOM     26  N   UNL     1      45.320   3.130   7.960  0.00  0.00    +0.000 NA
ATOM     27  C   UNL     1      45.464   1.919   8.775  0.00  0.00    +0.000 C 
ENDBRANCH  24  26
ENDBRANCH  23  24
ENDBRANCH  21  23
ENDBRANCH  20  21
ENDBRANCH   1  20
TORSDOF 8
ENDMDL
MODEL 5
REMARK VINA RESULT:    -5.364      3.435      9.115
REMARK INTER + INTRA:          -8.431
REMARK INTER:                  -7.586
REMARK INTRA:                  -0.845
REMARK UNBOUND:                -0.558
REMARK  Name = 
REMARK  10 active torsions:
REMARK  status: ('A' for Active; 'I' for Inactive)
REMARK    1  A    between atoms: C_1  and  N_2
REMARK    2  A    between atoms: N_2  and  C_3
REMARK    3  A    between atoms: N_2  and  C_4
REMARK    4  A    between atoms: C_4  and  C_5
REMARK    5  A    between atoms: C_5  and  N_6
REMARK    6  A    between atoms: N_6  and  C_7
REMARK    7  A    between atoms: C_7  and  C_8
REMARK    8  A    between atoms: C_12  and  C_13
REMARK    9  A    between atoms: C_14  and  C_15
REMARK   10  A    between atoms: C_18  and  C_19
REMARK                            x       y       z     vdW  Elec       q    Type
REMARK                         _______ _______ _______ _____ _____    ______ ____
ROOT
ATOM      1  C   UNL     1      50.821   7.298  16.853  0.00  0.00    +0.000 A 
ATOM      2  C   UNL     1      51.315   8.560  16.548  0.00  0.00    +0.000 A 
ATOM      3  N   UNL     1      50.983   9.249  15.436  0.00  0.00    +0.000 NA
ATOM      4  C   UNL     1      50.122   8.640  14.591  0.00  0.00    +0.000 A 
ATOM      5  C   UNL     1      49.557   7.382  14.788  0.00  0.00    +0.000 A 
ATOM      6  C   UNL     1      49.933   6.703  15.946  0.00  0.00    +0.000 A 
ENDROOT
BRANCH   5   7
ATOM      7  C   UNL     1      48.669   6.805  13.768  0.00  0.00    +0.000 C 
ATOM      8  C   UNL     1      47.467   6.255  14.016  0.00  0.00    +0.000 C 
BRANCH   8   9
ATOM      9  C   UNL     1      46.611   5.663  12.977  0.00  0.00    +0.000 A 
ATOM     10  C   UNL     1      46.359   6.298  11.757  0.00  0.00    +0.000 A 
ATOM     11  C   UNL     1      45.585   5.665  10.786  0.00  0.00    +0.000 A 
ATOM     12  C   UNL     1      45.088   4.400  11.060  0.00  0.00    +0.000 A 
ATOM     13  N   UNL     1      45.308   3.739  12.234  0.00  0.00    +0.000 NA
ATOM     14  C   UNL     1      46.067   4.388  13.152  0.00  0.00    +0.000 A 
BRANCH  12  15
ATOM     15  C   UNL     1      44.271   3.695  10.026  0.00  0.00    +0.000 C 
ATOM     16  N   UNL     1      44.127   4.358   8.834  0.00  0.00    +0.000 N 
ATOM     17  O   UNL     1      43.758   2.600  10.214  0.00  0.00    +0.000 OA
ATOM     18  H   UNL     1      44.554   5.270   8.714  0.00  0.00    +0.000 HD
ATOM     19  H   UNL     1      43.572   3.945   8.101  0.00  0.00    +0.000 HD
ENDBRANCH  12  15
ENDBRANCH   8   9
ENDBRANCH   5   7
BRANCH   1  20
ATOM     20  C   UNL     1      51.177   6.629  18.145  0.00  0.00    +0.000 C 
BRANCH  20  21
ATOM     21  N   UNL     1      49.991   6.222  18.896  0.00  0.00    +0.000 NA
ATOM     22  H   UNL     1      50.054   6.623  19.835  0.00  0.00    +0.000 HD
BRANCH  21  23
ATOM     23  C   UNL     1      49.956   4.761  19.064  0.00  0.00    +0.000 C 
BRANCH  23  24
ATOM     24  C   UNL     1      48.524   4.165  19.093  0.00  0.00    +0.000 C 
BRANCH  24  26
ATOM     25  C   UNL     1      47.443   3.858  16.949  0.00  0.00    +0.000 C 
ATOM     26  N   UNL     1      48.261   3.218  17.985  0.00  0.00    +0.000 NA
ATOM     27  C   UNL     1      49.528   2.771  17.397  0.00  0.00    +0.000 C 
ENDBRANCH  24  26
ENDBRANCH  23  24
ENDBRANCH  21  23
ENDBRANCH  20  21
ENDBRANCH   1  20
TORSDOF 8
ENDMDL
MODEL 6
REMARK VINA RESULT:    -5.241      4.141      9.375
REMARK INTER + INTRA:          -8.250
REMARK INTER:                  -7.372
REMARK INTRA:                  -0.879
REMARK UNBOUND:                -0.558
REMARK  Name = 
REMARK  10 active torsions:
REMARK  status: ('A' for Active; 'I' for Inactive)
REMARK    1  A    between atoms: C_1  and  N_2
REMARK    2  A    between atoms: N_2  and  C_3
REMARK    3  A    between atoms: N_2  and  C_4
REMARK    4  A    between atoms: C_4  and  C_5
REMARK    5  A    between atoms: C_5  and  N_6
REMARK    6  A    between atoms: N_6  and  C_7
REMARK    7  A    between atoms: C_7  and  C_8
REMARK    8  A    between atoms: C_12  and  C_13
REMARK    9  A    between atoms: C_14  and  C_15
REMARK   10  A    between atoms: C_18  and  C_19
REMARK                            x       y       z     vdW  Elec       q    Type
REMARK                         _______ _______ _______ _____ _____    ______ ____
ROOT
ATOM      1  C   UNL     1      49.403   9.810  15.665  0.00  0.00    +0.000 A 
ATOM      2  C   UNL     1      50.749   9.774  15.327  0.00  0.00    +0.000 A 
ATOM      3  N   UNL     1      51.279   8.905  14.440  0.00  0.00    +0.000 NA
ATOM      4  C   UNL     1      50.418   8.031  13.874  0.00  0.00    +0.000 A 
ATOM      5  C   UNL     1      49.050   7.971  14.128  0.00  0.00    +0.000 A 
ATOM      6  C   UNL     1      48.547   8.881  15.055  0.00  0.00    +0.000 A 
ENDROOT
BRANCH   5   7
ATOM      7  C   UNL     1      48.225   6.938  13.483  0.00  0.00    +0.000 C 
ATOM      8  C   UNL     1      46.894   7.014  13.310  0.00  0.00    +0.000 C 
BRANCH   8   9
ATOM      9  C   UNL     1      46.091   5.953  12.682  0.00  0.00    +0.000 A 
ATOM     10  C   UNL     1      45.785   5.947  11.319  0.00  0.00    +0.000 A 
ATOM     11  C   UNL     1      45.068   4.887  10.768  0.00  0.00    +0.000 A 
ATOM     12  C   UNL     1      44.682   3.847  11.601  0.00  0.00    +0.000 A 
ATOM     13  N   UNL     1      44.960   3.807  12.936  0.00  0.00    +0.000 NA
ATOM     14  C   UNL     1      45.660   4.856  13.434  0.00  0.00    +0.000 A 
BRANCH  12  15
ATOM     15  C   UNL     1      43.929   2.691  11.028  0.00  0.00    +0.000 C 
ATOM     16  N   UNL     1      44.448   2.161   9.874  0.00  0.00    +0.000 N 
ATOM     17  O   UNL     1      42.915   2.236  11.540  0.00  0.00    +0.000 OA
ATOM     18  H   UNL     1      45.283   2.568   9.467  0.00  0.00    +0.000 HD
ATOM     19  H   UNL     1      43.977   1.390   9.426  0.00  0.00    +0.000 HD
ENDBRANCH  12  15
ENDBRANCH   8   9
ENDBRANCH   5   7
BRANCH   1  20
ATOM     20  C   UNL     1      48.877  10.854  16.601  0.00  0.00    +0.000 C 
BRANCH  20  21
ATOM     21  N   UNL     1      47.720  10.379  17.359  0.00  0.00    +0.000 NA
ATOM     22  H   UNL     1      47.146  11.189  17.604  0.00  0.00    +0.000 HD
BRANCH  21  23
ATOM     23  C   UNL     1      48.143   9.762  18.624  0.00  0.00    +0.000 C 
BRANCH  23  24
ATOM     24  C   UNL     1      47.385   8.453  18.971  0.00  0.00    +0.000 C 
BRANCH  24  26
ATOM     25  C   UNL     1      49.458   7.300  18.487  0.00  0.00    +0.000 C 
ATOM     26  N   UNL     1      47.997   7.246  18.370  0.00  0.00    +0.000 NA
ATOM     27  C   UNL     1      47.499   6.043  19.046  0.00  0.00    +0.000 C 
ENDBRANCH  24  26
ENDBRANCH  23  24
ENDBRANCH  21  23
ENDBRANCH  20  21
ENDBRANCH   1  20
TORSDOF 8
ENDMDL
MODEL 7
REMARK VINA RESULT:    -5.225      3.824      9.089
REMARK INTER + INTRA:          -8.226
REMARK INTER:                  -7.400
REMARK INTRA:                  -0.826
REMARK UNBOUND:                -0.558
REMARK  Name = 
REMARK  10 active torsions:
REMARK  status: ('A' for Active; 'I' for Inactive)
REMARK    1  A    between atoms: C_1  and  N_2
REMARK    2  A    between atoms: N_2  and  C_3
REMARK    3  A    between atoms: N_2  and  C_4
REMARK    4  A    between atoms: C_4  and  C_5
REMARK    5  A    between atoms: C_5  and  N_6
REMARK    6  A    between atoms: N_6  and  C_7
REMARK    7  A    between atoms: C_7  and  C_8
REMARK    8  A    between atoms: C_12  and  C_13
REMARK    9  A    between atoms: C_14  and  C_15
REMARK   10  A    between atoms: C_18  and  C_19
REMARK                            x       y       z     vdW  Elec       q    Type
REMARK                         _______ _______ _______ _____ _____    ______ ____
ROOT
ATOM      1  C   UNL     1      51.172   7.809  16.421  0.00  0.00    +0.000 A 
ATOM      2  C   UNL     1      51.934   8.728  15.711  0.00  0.00    +0.000 A 
ATOM      3  N   UNL     1      51.710   9.052  14.419  0.00  0.00    +0.000 NA
ATOM      4  C   UNL     1      50.679   8.422  13.816  0.00  0.00    +0.000 A 
ATOM      5  C   UNL     1      49.842   7.488  14.421  0.00  0.00    +0.000 A 
ATOM      6  C   UNL     1      50.114   7.177  15.752  0.00  0.00    +0.000 A 
ENDROOT
BRANCH   5   7
ATOM      7  C   UNL     1      48.782   6.833  13.641  0.00  0.00    +0.000 C 
ATOM      8  C   UNL     1      47.885   5.964  14.140  0.00  0.00    +0.000 C 
BRANCH   8   9
ATOM      9  C   UNL     1      46.849   5.306  13.328  0.00  0.00    +0.000 A 
ATOM     10  C   UNL     1      46.287   5.903  12.196  0.00  0.00    +0.000 A 
ATOM     11  C   UNL     1      45.350   5.210  11.432  0.00  0.00    +0.000 A 
ATOM     12  C   UNL     1      45.004   3.924  11.820  0.00  0.00    +0.000 A 
ATOM     13  N   UNL     1      45.527   3.299  12.914  0.00  0.00    +0.000 NA
ATOM     14  C   UNL     1      46.436   4.006  13.630  0.00  0.00    +0.000 A 
BRANCH  12  15
ATOM     15  C   UNL     1      44.015   3.155  11.005  0.00  0.00    +0.000 C 
ATOM     16  N   UNL     1      43.391   2.121  11.655  0.00  0.00    +0.000 N 
ATOM     17  O   UNL     1      43.766   3.418   9.836  0.00  0.00    +0.000 OA
ATOM     18  H   UNL     1      43.628   1.920  12.621  0.00  0.00    +0.000 HD
ATOM     19  H   UNL     1      42.725   1.551  11.156  0.00  0.00    +0.000 HD
ENDBRANCH  12  15
ENDBRANCH   8   9
ENDBRANCH   5   7
BRANCH   1  20
ATOM     20  C   UNL     1      51.435   7.558  17.873  0.00  0.00    +0.000 C 
BRANCH  20  21
ATOM     21  N   UNL     1      52.200   6.331  18.089  0.00  0.00    +0.000 NA
ATOM     22  H   UNL     1      52.393   5.912  17.176  0.00  0.00    +0.000 HD
BRANCH  21  23
ATOM     23  C   UNL     1      51.409   5.349  18.845  0.00  0.00    +0.000 C 
BRANCH  23  24
ATOM     24  C   UNL     1      51.532   3.897  18.313  0.00  0.00    +0.000 C 
BRANCH  24  26
ATOM     25  C   UNL     1      50.438   2.109  17.103  0.00  0.00    +0.000 C 
ATOM     26  N   UNL     1      50.517   3.562  17.288  0.00  0.00    +0.000 NA
ATOM     27  C   UNL     1      49.204   4.071  17.697  0.00  0.00    +0.000 C 
ENDBRANCH  24  26
ENDBRANCH  23  24
ENDBRANCH  21  23
ENDBRANCH  20  21
ENDBRANCH   1  20
TORSDOF 8
ENDMDL
MODEL 8
REMARK VINA RESULT:    -5.092      5.974      8.121
REMARK INTER + INTRA:          -8.031
REMARK INTER:                  -7.345
REMARK INTRA:                  -0.686
REMARK UNBOUND:                -0.558
REMARK  Name = 
REMARK  10 active torsions:
REMARK  status: ('A' for Active; 'I' for Inactive)
REMARK    1  A    between atoms: C_1  and  N_2
REMARK    2  A    between atoms: N_2  and  C_3
REMARK    3  A    between atoms: N_2  and  C_4
REMARK    4  A    between atoms: C_4  and  C_5
REMARK    5  A    between atoms: C_5  and  N_6
REMARK    6  A    between atoms: N_6  and  C_7
REMARK    7  A    between atoms: C_7  and  C_8
REMARK    8  A    between atoms: C_12  and  C_13
REMARK    9  A    between atoms: C_14  and  C_15
REMARK   10  A    between atoms: C_18  and  C_19
REMARK                            x       y       z     vdW  Elec       q    Type
REMARK                         _______ _______ _______ _____ _____    ______ ____
ROOT
ATOM      1  C   UNL     1      52.522   8.382  11.105  0.00  0.00    +0.000 A 
ATOM      2  C   UNL     1      52.708   9.749  10.937  0.00  0.00    +0.000 A 
ATOM      3  N   UNL     1      51.715  10.659  11.031  0.00  0.00    +0.000 NA
ATOM      4  C   UNL     1      50.484  10.174  11.300  0.00  0.00    +0.000 A 
ATOM      5  C   UNL     1      50.172   8.830  11.493  0.00  0.00    +0.000 A 
ATOM      6  C   UNL     1      51.225   7.924  11.379  0.00  0.00    +0.000 A 
ENDROOT
BRANCH   5   7
ATOM      7  C   UNL     1      48.780   8.423  11.731  0.00  0.00    +0.000 C 
ATOM      8  C   UNL     1      48.373   7.157  11.932  0.00  0.00    +0.000 C 
BRANCH   8   9
ATOM      9  C   UNL     1      46.967   6.777  12.144  0.00  0.00    +0.000 A 
ATOM     10  C   UNL     1      45.914   7.360  11.434  0.00  0.00    +0.000 A 
ATOM     11  C   UNL     1      44.607   6.921  11.637  0.00  0.00    +0.000 A 
ATOM     12  C   UNL     1      44.388   5.896  12.545  0.00  0.00    +0.000 A 
ATOM     13  N   UNL     1      45.384   5.294  13.259  0.00  0.00    +0.000 NA
ATOM     14  C   UNL     1      46.641   5.749  13.032  0.00  0.00    +0.000 A 
BRANCH  12  15
ATOM     15  C   UNL     1      42.997   5.397  12.764  0.00  0.00    +0.000 C 
ATOM     16  N   UNL     1      42.059   5.851  11.872  0.00  0.00    +0.000 N 
ATOM     17  O   UNL     1      42.697   4.636  13.673  0.00  0.00    +0.000 OA
ATOM     18  H   UNL     1      42.336   6.492  11.136  0.00  0.00    +0.000 HD
ATOM     19  H   UNL     1      41.097   5.567  11.975  0.00  0.00    +0.000 HD
ENDBRANCH  12  15
ENDBRANCH   8   9
ENDBRANCH   5   7
BRANCH   1  20
ATOM     20  C   UNL     1      53.686   7.441  11.061  0.00  0.00    +0.000 C 
BRANCH  20  21
ATOM     21  N   UNL     1      53.285   6.091  10.668  0.00  0.00    +0.000 NA
ATOM     22  H   UNL     1      53.168   5.534  11.517  0.00  0.00    +0.000 HD
BRANCH  21  23
ATOM     23  C   UNL     1      54.343   5.442   9.879  0.00  0.00    +0.000 C 
BRANCH  23  24
ATOM     24  C   UNL     1      54.472   5.984   8.431  0.00  0.00    +0.000 C 
BRANCH  24  26
ATOM     25  C   UNL     1      52.909   6.947   6.855  0.00  0.00    +0.000 C 
ATOM     26  N   UNL     1      53.267   5.740   7.605  0.00  0.00    +0.000 NA
ATOM     27  C   UNL     1      53.517   4.640   6.667  0.00  0.00    +0.000 C 
ENDBRANCH  24  26
ENDBRANCH  23  24
ENDBRANCH  21  23
ENDBRANCH  20  21
ENDBRANCH   1  20
TORSDOF 8
ENDMDL
MODEL 9
REMARK VINA RESULT:    -4.966      2.793      3.379
REMARK INTER + INTRA:          -7.847
REMARK INTER:                  -7.268
REMARK INTRA:                  -0.579
REMARK UNBOUND:                -0.558
REMARK  Name = 
REMARK  10 active torsions:
REMARK  status: ('A' for Active; 'I' for Inactive)
REMARK    1  A    between atoms: C_1  and  N_2
REMARK    2  A    between atoms: N_2  and  C_3
REMARK    3  A    between atoms: N_2  and  C_4
REMARK    4  A    between atoms: C_4  and  C_5
REMARK    5  A    between atoms: C_5  and  N_6
REMARK    6  A    between atoms: N_6  and  C_7
REMARK    7  A    between atoms: C_7  and  C_8
REMARK    8  A    between atoms: C_12  and  C_13
REMARK    9  A    between atoms: C_14  and  C_15
REMARK   10  A    between atoms: C_18  and  C_19
REMARK                            x       y       z     vdW  Elec       q    Type
REMARK                         _______ _______ _______ _____ _____    ______ ____
ROOT
ATOM      1  C   UNL     1      45.540   5.056  11.135  0.00  0.00    +0.000 A 
ATOM      2  C   UNL     1      44.924   4.072  11.898  0.00  0.00    +0.000 A 
ATOM      3  N   UNL     1      45.136   3.904  13.220  0.00  0.00    +0.000 NA
ATOM      4  C   UNL     1      46.008   4.758  13.799  0.00  0.00    +0.000 A 
ATOM      5  C   UNL     1      46.683   5.785  13.144  0.00  0.00    +0.000 A 
ATOM      6  C   UNL     1      46.441   5.919  11.778  0.00  0.00    +0.000 A 
ENDROOT
BRANCH   5   7
ATOM      7  C   UNL     1      47.647   6.619  13.876  0.00  0.00    +0.000 C 
ATOM      8  C   UNL     1      48.270   6.257  15.012  0.00  0.00    +0.000 C 
BRANCH   8   9
ATOM      9  C   UNL     1      49.213   7.124  15.736  0.00  0.00    +0.000 A 
ATOM     10  C   UNL     1      48.937   8.464  16.020  0.00  0.00    +0.000 A 
ATOM     11  C   UNL     1      49.843   9.224  16.758  0.00  0.00    +0.000 A 
ATOM     12  C   UNL     1      51.006   8.613  17.204  0.00  0.00    +0.000 A 
ATOM     13  N   UNL     1      51.318   7.309  16.955  0.00  0.00    +0.000 NA
ATOM     14  C   UNL     1      50.410   6.604  16.234  0.00  0.00    +0.000 A 
BRANCH  12  15
ATOM     15  C   UNL     1      51.983   9.404  18.013  0.00  0.00    +0.000 C 
ATOM     16  N   UNL     1      51.921   9.208  19.369  0.00  0.00    +0.000 N 
ATOM     17  O   UNL     1      52.790  10.177  17.515  0.00  0.00    +0.000 OA
ATOM     18  H   UNL     1      51.233   8.569  19.753  0.00  0.00    +0.000 HD
ATOM     19  H   UNL     1      52.541   9.725  19.973  0.00  0.00    +0.000 HD
ENDBRANCH  12  15
ENDBRANCH   8   9
ENDBRANCH   5   7
BRANCH   1  20
ATOM     20  C   UNL     1      45.197   5.230   9.688  0.00  0.00    +0.000 C 
BRANCH  20  21
ATOM     21  N   UNL     1      44.211   4.249   9.237  0.00  0.00    +0.000 NA
ATOM     22  H   UNL     1      44.211   3.469   9.898  0.00  0.00    +0.000 HD
BRANCH  21  23
ATOM     23  C   UNL     1      44.590   3.693   7.930  0.00  0.00    +0.000 C 
BRANCH  23  24
ATOM     24  C   UNL     1      46.121   3.651   7.682  0.00  0.00    +0.000 C 
BRANCH  24  26
ATOM     25  C   UNL     1      48.008   2.458   6.748  0.00  0.00    +0.000 C 
ATOM     26  N   UNL     1      46.583   2.378   7.084  0.00  0.00    +0.000 NA
ATOM     27  C   UNL     1      46.367   1.275   8.026  0.00  0.00    +0.000 C 
ENDBRANCH  24  26
ENDBRANCH  23  24
ENDBRANCH  21  23
ENDBRANCH  20  21
ENDBRANCH   1  20
TORSDOF 8
ENDMDL
