MODEL 1
REMARK VINA RESULT:    -7.180      0.000      0.000
REMARK INTER + INTRA:          -9.697
REMARK INTER:                  -9.699
REMARK INTRA:                   0.002
REMARK UNBOUND:                 0.002
REMARK  Name = 
REMARK  10 active torsions:
REMARK  status: ('A' for Active; 'I' for Inactive)
REMARK    1  A    between atoms: C_1  and  C_2
REMARK    2  A    between atoms: C_2  and  N_3
REMARK    3  A    between atoms: C_2  and  C_11
REMARK    4  A    between atoms: C_4  and  O_6
REMARK    5  A    between atoms: O_6  and  C_7
REMARK    6  A    between atoms: C_7  and  C_8
REMARK    7  A    between atoms: C_7  and  C_9
REMARK    8  A    between atoms: C_7  and  C_10
REMARK    9  A    between atoms: C_14  and  C_15
REMARK   10  A    between atoms: C_15  and  C_16
REMARK                            x       y       z     vdW  Elec       q    Type
REMARK                         _______ _______ _______ _____ _____    ______ ____
ROOT
ATOM      1  C   UNL     1      45.100   7.019  12.052  0.00  0.00    +0.000 A 
ATOM      2  C   UNL     1      43.879   6.586  11.535  0.00  0.00    +0.000 A 
ATOM      3  C   UNL     1      43.704   5.248  11.189  0.00  0.00    +0.000 A 
ATOM      4  C   UNL     1      44.772   4.366  11.330  0.00  0.00    +0.000 A 
ATOM      5  N   UNL     1      45.955   4.750  11.859  0.00  0.00    +0.000 NA
ATOM      6  C   UNL     1      46.089   6.049  12.211  0.00  0.00    +0.000 A 
ENDROOT
BRANCH   1   8
ATOM      7  C   UNL     1      44.456   9.475  11.758  0.00  0.00    +0.000 C 
ATOM      8  C   UNL     1      45.409   8.455  12.394  0.00  0.00    +0.000 C 
BRANCH   8   9
ATOM      9  N   UNL     1      46.787   8.770  12.072  0.00  0.00    +0.000 N 
ATOM     10  C   UNL     1      47.697   8.988  13.068  0.00  0.00    +0.000 C 
ATOM     11  O   UNL     1      47.430   8.858  14.251  0.00  0.00    +0.000 OA
ATOM     12  H   UNL     1      47.087   8.924  11.118  0.00  0.00    +0.000 HD
BRANCH  10  13
ATOM     13  O   UNL     1      48.898   9.367  12.562  0.00  0.00    +0.000 OA
BRANCH  13  14
ATOM     14  C   UNL     1      49.976   8.386  12.538  0.00  0.00    +0.000 C 
ATOM     15  C   UNL     1      50.896   8.618  11.330  0.00  0.00    +0.000 C 
ATOM     16  C   UNL     1      50.803   8.610  13.815  0.00  0.00    +0.000 C 
ATOM     17  C   UNL     1      49.430   6.951  12.586  0.00  0.00    +0.000 C 
ENDBRANCH  13  14
ENDBRANCH  10  13
ENDBRANCH   8   9
ENDBRANCH   1   8
BRANCH   4  18
ATOM     18  C   UNL     1      44.697   2.965  10.764  0.00  0.00    +0.000 C 
BRANCH  18  19
ATOM     19  C   UNL     1      44.495   2.991   9.241  0.00  0.00    +0.000 C 
ATOM     20  C   UNL     1      44.529   4.411   8.623  0.00  0.00    +0.000 C 
ATOM     21  C   UNL     1      45.957   4.658   8.126  0.00  0.00    +0.000 C 
ATOM     22  C   UNL     1      46.390   3.265   7.799  0.00  0.00    +0.000 A 
ATOM     23  C   UNL     1      47.432   2.875   6.975  0.00  0.00    +0.000 A 
ATOM     24  C   UNL     1      47.669   1.511   6.810  0.00  0.00    +0.000 A 
ATOM     25  C   UNL     1      46.882   0.562   7.481  0.00  0.00    +0.000 A 
ATOM     26  C   UNL     1      45.840   0.965   8.320  0.00  0.00    +0.000 A 
ATOM     27  C   UNL     1      45.598   2.321   8.465  0.00  0.00    +0.000 A 
ENDBRANCH  18  19
ENDBRANCH   4  18
TORSDOF 6
ENDMDL
MODEL 2
REMARK VINA RESULT:    -7.040      2.802      7.290
REMARK INTER + INTRA:          -9.507
REMARK INTER:                  -8.933
REMARK INTRA:                  -0.574
REMARK UNBOUND:                 0.002
REMARK  Name = 
REMARK  10 active torsions:
REMARK  status: ('A' for Active; 'I' for Inactive)
REMARK    1  A    between atoms: C_1  and  C_2
REMARK    2  A    between atoms: C_2  and  N_3
REMARK    3  A    between atoms: C_2  and  C_11
REMARK    4  A    between atoms: C_4  and  O_6
REMARK    5  A    between atoms: O_6  and  C_7
REMARK    6  A    between atoms: C_7  and  C_8
REMARK    7  A    between atoms: C_7  and  C_9
REMARK    8  A    between atoms: C_7  and  C_10
REMARK    9  A    between atoms: C_14  and  C_15
REMARK   10  A    between atoms: C_15  and  C_16
REMARK                            x       y       z     vdW  Elec       q    Type
REMARK                         _______ _______ _______ _____ _____    ______ ____
ROOT
ATOM      1  C   UNL     1      44.873   4.430  11.687  0.00  0.00    +0.000 A 
ATOM      2  C   UNL     1      45.663   4.210  12.815  0.00  0.00    +0.000 A 
ATOM      3  C   UNL     1      46.377   5.264  13.382  0.00  0.00    +0.000 A 
ATOM      4  C   UNL     1      46.320   6.520  12.784  0.00  0.00    +0.000 A 
ATOM      5  N   UNL     1      45.537   6.770  11.710  0.00  0.00    +0.000 NA
ATOM      6  C   UNL     1      44.834   5.735  11.197  0.00  0.00    +0.000 A 
ENDROOT
BRANCH   1   8
ATOM      7  C   UNL     1      43.395   2.354  11.887  0.00  0.00    +0.000 C 
ATOM      8  C   UNL     1      44.117   3.343  10.964  0.00  0.00    +0.000 C 
BRANCH   8   9
ATOM      9  N   UNL     1      44.991   2.642  10.044  0.00  0.00    +0.000 N 
ATOM     10  C   UNL     1      44.963   2.931   8.708  0.00  0.00    +0.000 C 
ATOM     11  O   UNL     1      44.278   3.823   8.236  0.00  0.00    +0.000 OA
ATOM     12  H   UNL     1      45.570   1.869  10.347  0.00  0.00    +0.000 HD
BRANCH  10  13
ATOM     13  O   UNL     1      45.776   2.099   8.008  0.00  0.00    +0.000 OA
BRANCH  13  14
ATOM     14  C   UNL     1      46.704   2.687   7.051  0.00  0.00    +0.000 C 
ATOM     15  C   UNL     1      47.089   4.113   7.470  0.00  0.00    +0.000 C 
ATOM     16  C   UNL     1      47.976   1.823   7.084  0.00  0.00    +0.000 C 
ATOM     17  C   UNL     1      46.145   2.632   5.621  0.00  0.00    +0.000 C 
ENDBRANCH  13  14
ENDBRANCH  10  13
ENDBRANCH   8   9
ENDBRANCH   1   8
BRANCH   4  18
ATOM     18  C   UNL     1      47.245   7.631  13.230  0.00  0.00    +0.000 C 
BRANCH  18  19
ATOM     19  C   UNL     1      47.646   8.528  12.047  0.00  0.00    +0.000 C 
ATOM     20  C   UNL     1      47.265  10.018  12.227  0.00  0.00    +0.000 C 
ATOM     21  C   UNL     1      48.495  10.738  12.789  0.00  0.00    +0.000 C 
ATOM     22  C   UNL     1      49.598   9.908  12.218  0.00  0.00    +0.000 A 
ATOM     23  C   UNL     1      50.928  10.260  12.062  0.00  0.00    +0.000 A 
ATOM     24  C   UNL     1      51.800   9.324  11.505  0.00  0.00    +0.000 A 
ATOM     25  C   UNL     1      51.339   8.051  11.134  0.00  0.00    +0.000 A 
ATOM     26  C   UNL     1      49.997   7.700  11.306  0.00  0.00    +0.000 A 
ATOM     27  C   UNL     1      49.133   8.641  11.842  0.00  0.00    +0.000 A 
ENDBRANCH  18  19
ENDBRANCH   4  18
TORSDOF 6
ENDMDL
MODEL 3
REMARK VINA RESULT:    -6.604      4.566      8.642
REMARK INTER + INTRA:          -8.918
REMARK INTER:                  -8.190
REMARK INTRA:                  -0.728
REMARK UNBOUND:                 0.002
REMARK  Name = 
REMARK  10 active torsions:
REMARK  status: ('A' for Active; 'I' for Inactive)
REMARK    1  A    between atoms: C_1  and  C_2
REMARK    2  A    between atoms: C_2  and  N_3
REMARK    3  A    between atoms: C_2  and  C_11
REMARK    4  A    between atoms: C_4  and  O_6
REMARK    5  A    between atoms: O_6  and  C_7
REMARK    6  A    between atoms: C_7  and  C_8
REMARK    7  A    between atoms: C_7  and  C_9
REMARK    8  A    between atoms: C_7  and  C_10
REMARK    9  A    between atoms: C_14  and  C_15
REMARK   10  A    between atoms: C_15  and  C_16
REMARK                            x       y       z     vdW  Elec       q    Type
REMARK                         _______ _______ _______ _____ _____    ______ ____
ROOT
ATOM      1  C   UNL     1      47.222   7.568  13.394  0.00  0.00    +0.000 A 
ATOM      2  C   UNL     1      47.812   8.596  14.129  0.00  0.00    +0.000 A 
ATOM      3  C   UNL     1      48.782   8.301  15.086  0.00  0.00    +0.000 A 
ATOM      4  C   UNL     1      49.119   6.972  15.321  0.00  0.00    +0.000 A 
ATOM      5  N   UNL     1      48.589   5.958  14.600  0.00  0.00    +0.000 NA
ATOM      6  C   UNL     1      47.670   6.275  13.660  0.00  0.00    +0.000 A 
ENDROOT
BRANCH   1   8
ATOM      7  C   UNL     1      45.349   9.094  12.558  0.00  0.00    +0.000 C 
ATOM      8  C   UNL     1      46.120   7.779  12.386  0.00  0.00    +0.000 C 
BRANCH   8   9
ATOM      9  N   UNL     1      45.211   6.649  12.382  0.00  0.00    +0.000 N 
ATOM     10  C   UNL     1      45.133   5.829  11.291  0.00  0.00    +0.000 C 
ATOM     11  O   UNL     1      45.857   5.950  10.317  0.00  0.00    +0.000 OA
ATOM     12  H   UNL     1      44.556   6.492  13.137  0.00  0.00    +0.000 HD
BRANCH  10  13
ATOM     13  O   UNL     1      44.157   4.898  11.445  0.00  0.00    +0.000 OA
BRANCH  13  14
ATOM     14  C   UNL     1      44.546   3.495  11.508  0.00  0.00    +0.000 C 
ATOM     15  C   UNL     1      45.726   3.300  12.472  0.00  0.00    +0.000 C 
ATOM     16  C   UNL     1      43.338   2.729  12.075  0.00  0.00    +0.000 C 
ATOM     17  C   UNL     1      44.837   2.930  10.110  0.00  0.00    +0.000 C 
ENDBRANCH  13  14
ENDBRANCH  10  13
ENDBRANCH   8   9
ENDBRANCH   1   8
BRANCH   4  18
ATOM     18  C   UNL     1      49.997   6.592  16.492  0.00  0.00    +0.000 C 
BRANCH  18  19
ATOM     19  C   UNL     1      49.511   5.292  17.152  0.00  0.00    +0.000 C 
ATOM     20  C   UNL     1      50.649   4.307  17.521  0.00  0.00    +0.000 C 
ATOM     21  C   UNL     1      51.007   4.554  18.990  0.00  0.00    +0.000 C 
ATOM     22  C   UNL     1      49.696   5.029  19.527  0.00  0.00    +0.000 A 
ATOM     23  C   UNL     1      49.285   5.058  20.849  0.00  0.00    +0.000 A 
ATOM     24  C   UNL     1      48.010   5.549  21.135  0.00  0.00    +0.000 A 
ATOM     25  C   UNL     1      47.179   6.020  20.107  0.00  0.00    +0.000 A 
ATOM     26  C   UNL     1      47.607   5.998  18.777  0.00  0.00    +0.000 A 
ATOM     27  C   UNL     1      48.866   5.492  18.498  0.00  0.00    +0.000 A 
ENDBRANCH  18  19
ENDBRANCH   4  18
TORSDOF 6
ENDMDL
MODEL 4
REMARK VINA RESULT:    -6.499      2.916      7.783
REMARK INTER + INTRA:          -8.777
REMARK INTER:                  -8.219
REMARK INTRA:                  -0.558
REMARK UNBOUND:                 0.002
REMARK  Name = 
REMARK  10 active torsions:
REMARK  status: ('A' for Active; 'I' for Inactive)
REMARK    1  A    between atoms: C_1  and  C_2
REMARK    2  A    between atoms: C_2  and  N_3
REMARK    3  A    between atoms: C_2  and  C_11
REMARK    4  A    between atoms: C_4  and  O_6
REMARK    5  A    between atoms: O_6  and  C_7
REMARK    6  A    between atoms: C_7  and  C_8
REMARK    7  A    between atoms: C_7  and  C_9
REMARK    8  A    between atoms: C_7  and  C_10
REMARK    9  A    between atoms: C_14  and  C_15
REMARK   10  A    between atoms: C_15  and  C_16
REMARK                            x       y       z     vdW  Elec       q    Type
REMARK                         _______ _______ _______ _____ _____    ______ ____
ROOT
ATOM      1  C   UNL     1      44.699   4.453  11.505  0.00  0.00    +0.000 A 
ATOM      2  C   UNL     1      45.766   4.377  12.399  0.00  0.00    +0.000 A 
ATOM      3  C   UNL     1      46.383   5.542  12.849  0.00  0.00    +0.000 A 
ATOM      4  C   UNL     1      45.946   6.772  12.363  0.00  0.00    +0.000 A 
ATOM      5  N   UNL     1      44.893   6.878  11.521  0.00  0.00    +0.000 NA
ATOM      6  C   UNL     1      44.296   5.732  11.122  0.00  0.00    +0.000 A 
ENDROOT
BRANCH   1   8
ATOM      7  C   UNL     1      43.440   2.273  11.947  0.00  0.00    +0.000 C 
ATOM      8  C   UNL     1      44.009   3.250  10.911  0.00  0.00    +0.000 C 
BRANCH   8   9
ATOM      9  N   UNL     1      44.892   2.562   9.989  0.00  0.00    +0.000 N 
ATOM     10  C   UNL     1      44.909   2.903   8.665  0.00  0.00    +0.000 C 
ATOM     11  O   UNL     1      44.261   3.831   8.210  0.00  0.00    +0.000 OA
ATOM     12  H   UNL     1      45.442   1.763  10.277  0.00  0.00    +0.000 HD
BRANCH  10  13
ATOM     13  O   UNL     1      45.722   2.078   7.956  0.00  0.00    +0.000 OA
BRANCH  13  14
ATOM     14  C   UNL     1      46.693   2.679   7.051  0.00  0.00    +0.000 C 
ATOM     15  C   UNL     1      47.057   4.099   7.507  0.00  0.00    +0.000 C 
ATOM     16  C   UNL     1      47.963   1.814   7.133  0.00  0.00    +0.000 C 
ATOM     17  C   UNL     1      46.202   2.643   5.596  0.00  0.00    +0.000 C 
ENDBRANCH  13  14
ENDBRANCH  10  13
ENDBRANCH   8   9
ENDBRANCH   1   8
BRANCH   4  18
ATOM     18  C   UNL     1      46.724   8.037  12.649  0.00  0.00    +0.000 C 
BRANCH  18  19
ATOM     19  C   UNL     1      48.226   7.745  12.795  0.00  0.00    +0.000 C 
ATOM     20  C   UNL     1      49.101   8.367  11.678  0.00  0.00    +0.000 C 
ATOM     21  C   UNL     1      49.626   9.707  12.204  0.00  0.00    +0.000 C 
ATOM     22  C   UNL     1      49.680   9.436  13.673  0.00  0.00    +0.000 A 
ATOM     23  C   UNL     1      50.407  10.119  14.632  0.00  0.00    +0.000 A 
ATOM     24  C   UNL     1      50.309   9.701  15.960  0.00  0.00    +0.000 A 
ATOM     25  C   UNL     1      49.476   8.627  16.310  0.00  0.00    +0.000 A 
ATOM     26  C   UNL     1      48.736   7.951  15.337  0.00  0.00    +0.000 A 
ATOM     27  C   UNL     1      48.853   8.360  14.018  0.00  0.00    +0.000 A 
ENDBRANCH  18  19
ENDBRANCH   4  18
TORSDOF 6
ENDMDL
MODEL 5
REMARK VINA RESULT:    -6.474      3.909      7.571
REMARK INTER + INTRA:          -8.742
REMARK INTER:                  -8.321
REMARK INTRA:                  -0.421
REMARK UNBOUND:                 0.002
REMARK  Name = 
REMARK  10 active torsions:
REMARK  status: ('A' for Active; 'I' for Inactive)
REMARK    1  A    between atoms: C_1  and  C_2
REMARK    2  A    between atoms: C_2  and  N_3
REMARK    3  A    between atoms: C_2  and  C_11
REMARK    4  A    between atoms: C_4  and  O_6
REMARK    5  A    between atoms: O_6  and  C_7
REMARK    6  A    between atoms: C_7  and  C_8
REMARK    7  A    between atoms: C_7  and  C_9
REMARK    8  A    between atoms: C_7  and  C_10
REMARK    9  A    between atoms: C_14  and  C_15
REMARK   10  A    between atoms: C_15  and  C_16
REMARK                            x       y       z     vdW  Elec       q    Type
REMARK                         _______ _______ _______ _____ _____    ______ ____
ROOT
ATOM      1  C   UNL     1      47.260   7.851  13.241  0.00  0.00    +0.000 A 
ATOM      2  C   UNL     1      47.514   8.684  14.331  0.00  0.00    +0.000 A 
ATOM      3  C   UNL     1      48.608   8.437  15.157  0.00  0.00    +0.000 A 
ATOM      4  C   UNL     1      49.414   7.331  14.903  0.00  0.00    +0.000 A 
ATOM      5  N   UNL     1      49.212   6.526  13.835  0.00  0.00    +0.000 NA
ATOM      6  C   UNL     1      48.158   6.805  13.034  0.00  0.00    +0.000 A 
ENDROOT
BRANCH   1   8
ATOM      7  C   UNL     1      45.259   9.281  12.547  0.00  0.00    +0.000 C 
ATOM      8  C   UNL     1      46.067   7.996  12.329  0.00  0.00    +0.000 C 
BRANCH   8   9
ATOM      9  N   UNL     1      45.211   6.829  12.422  0.00  0.00    +0.000 N 
ATOM     10  C   UNL     1      45.111   5.961  11.372  0.00  0.00    +0.000 C 
ATOM     11  O   UNL     1      45.776   6.070  10.355  0.00  0.00    +0.000 OA
ATOM     12  H   UNL     1      44.605   6.678  13.219  0.00  0.00    +0.000 HD
BRANCH  10  13
ATOM     13  O   UNL     1      44.188   4.996  11.618  0.00  0.00    +0.000 OA
BRANCH  13  14
ATOM     14  C   UNL     1      44.639   3.613  11.694  0.00  0.00    +0.000 C 
ATOM     15  C   UNL     1      45.858   3.489  12.620  0.00  0.00    +0.000 C 
ATOM     16  C   UNL     1      43.486   2.808  12.318  0.00  0.00    +0.000 C 
ATOM     17  C   UNL     1      44.907   3.031  10.298  0.00  0.00    +0.000 C 
ENDBRANCH  13  14
ENDBRANCH  10  13
ENDBRANCH   8   9
ENDBRANCH   1   8
BRANCH   4  18
ATOM     18  C   UNL     1      50.472   6.901  15.894  0.00  0.00    +0.000 C 
BRANCH  18  19
ATOM     19  C   UNL     1      49.845   6.182  17.099  0.00  0.00    +0.000 C 
ATOM     20  C   UNL     1      48.299   6.090  17.045  0.00  0.00    +0.000 C 
ATOM     21  C   UNL     1      47.945   4.727  16.442  0.00  0.00    +0.000 C 
ATOM     22  C   UNL     1      49.118   3.909  16.875  0.00  0.00    +0.000 A 
ATOM     23  C   UNL     1      49.204   2.530  16.955  0.00  0.00    +0.000 A 
ATOM     24  C   UNL     1      50.405   1.965  17.384  0.00  0.00    +0.000 A 
ATOM     25  C   UNL     1      51.503   2.779  17.704  0.00  0.00    +0.000 A 
ATOM     26  C   UNL     1      51.412   4.170  17.609  0.00  0.00    +0.000 A 
ATOM     27  C   UNL     1      50.209   4.725  17.201  0.00  0.00    +0.000 A 
ENDBRANCH  18  19
ENDBRANCH   4  18
TORSDOF 6
ENDMDL
MODEL 6
REMARK VINA RESULT:    -6.442      4.824      6.279
REMARK INTER + INTRA:          -8.700
REMARK INTER:                  -8.229
REMARK INTRA:                  -0.471
REMARK UNBOUND:                 0.002
REMARK  Name = 
REMARK  10 active torsions:
REMARK  status: ('A' for Active; 'I' for Inactive)
REMARK    1  A    between atoms: C_1  and  C_2
REMARK    2  A    between atoms: C_2  and  N_3
REMARK    3  A    between atoms: C_2  and  C_11
REMARK    4  A    between atoms: C_4  and  O_6
REMARK    5  A    between atoms: O_6  and  C_7
REMARK    6  A    between atoms: C_7  and  C_8
REMARK    7  A    between atoms: C_7  and  C_9
REMARK    8  A    between atoms: C_7  and  C_10
REMARK    9  A    between atoms: C_14  and  C_15
REMARK   10  A    between atoms: C_15  and  C_16
REMARK                            x       y       z     vdW  Elec       q    Type
REMARK                         _______ _______ _______ _____ _____    ______ ____
ROOT
ATOM      1  C   UNL     1      48.218   5.247  17.591  0.00  0.00    +0.000 A 
ATOM      2  C   UNL     1      48.614   5.957  16.458  0.00  0.00    +0.000 A 
ATOM      3  C   UNL     1      48.111   5.608  15.206  0.00  0.00    +0.000 A 
ATOM      4  C   UNL     1      47.247   4.522  15.101  0.00  0.00    +0.000 A 
ATOM      5  N   UNL     1      46.821   3.836  16.186  0.00  0.00    +0.000 NA
ATOM      6  C   UNL     1      47.304   4.214  17.392  0.00  0.00    +0.000 A 
ENDROOT
BRANCH   1   8
ATOM      7  C   UNL     1      48.683   4.296  19.918  0.00  0.00    +0.000 C 
ATOM      8  C   UNL     1      48.755   5.505  18.977  0.00  0.00    +0.000 C 
BRANCH   8   9
ATOM      9  N   UNL     1      48.101   6.655  19.570  0.00  0.00    +0.000 N 
ATOM     10  C   UNL     1      48.834   7.741  19.961  0.00  0.00    +0.000 C 
ATOM     11  O   UNL     1      50.035   7.836  19.768  0.00  0.00    +0.000 OA
ATOM     12  H   UNL     1      47.113   6.649  19.790  0.00  0.00    +0.000 HD
BRANCH  10  13
ATOM     13  O   UNL     1      48.054   8.663  20.581  0.00  0.00    +0.000 OA
BRANCH  13  14
ATOM     14  C   UNL     1      47.745   9.896  19.868  0.00  0.00    +0.000 C 
ATOM     15  C   UNL     1      47.701   9.653  18.353  0.00  0.00    +0.000 C 
ATOM     16  C   UNL     1      46.338  10.325  20.321  0.00  0.00    +0.000 C 
ATOM     17  C   UNL     1      48.717  11.023  20.249  0.00  0.00    +0.000 C 
ENDBRANCH  13  14
ENDBRANCH  10  13
ENDBRANCH   8   9
ENDBRANCH   1   8
BRANCH   4  18
ATOM     18  C   UNL     1      46.854   3.974  13.748  0.00  0.00    +0.000 C 
BRANCH  18  19
ATOM     19  C   UNL     1      45.651   4.734  13.168  0.00  0.00    +0.000 C 
ATOM     20  C   UNL     1      45.928   6.232  12.883  0.00  0.00    +0.000 C 
ATOM     21  C   UNL     1      46.320   6.350  11.407  0.00  0.00    +0.000 C 
ATOM     22  C   UNL     1      45.567   5.201  10.819  0.00  0.00    +0.000 A 
ATOM     23  C   UNL     1      45.224   5.006   9.491  0.00  0.00    +0.000 A 
ATOM     24  C   UNL     1      44.516   3.852   9.154  0.00  0.00    +0.000 A 
ATOM     25  C   UNL     1      44.183   2.905  10.135  0.00  0.00    +0.000 A 
ATOM     26  C   UNL     1      44.544   3.105  11.470  0.00  0.00    +0.000 A 
ATOM     27  C   UNL     1      45.229   4.262  11.802  0.00  0.00    +0.000 A 
ENDBRANCH  18  19
ENDBRANCH   4  18
TORSDOF 6
ENDMDL
MODEL 7
REMARK VINA RESULT:    -6.179      4.685      6.024
REMARK INTER + INTRA:          -8.345
REMARK INTER:                  -8.014
REMARK INTRA:                  -0.331
REMARK UNBOUND:                 0.002
REMARK  Name = 
REMARK  10 active torsions:
REMARK  status: ('A' for Active; 'I' for Inactive)
REMARK    1  A    between atoms: C_1  and  C_2
REMARK    2  A    between atoms: C_2  and  N_3
REMARK    3  A    between atoms: C_2  and  C_11
REMARK    4  A    between atoms: C_4  and  O_6
REMARK    5  A    between atoms: O_6  and  C_7
REMARK    6  A    between atoms: C_7  and  C_8
REMARK    7  A    between atoms: C_7  and  C_9
REMARK    8  A    between atoms: C_7  and  C_10
REMARK    9  A    between atoms: C_14  and  C_15
REMARK   10  A    between atoms: C_15  and  C_16
REMARK                            x       y       z     vdW  Elec       q    Type
REMARK                         _______ _______ _______ _____ _____    ______ ____
ROOT
ATOM      1  C   UNL     1      48.152   5.029  17.702  0.00  0.00    +0.000 A 
ATOM      2  C   UNL     1      48.508   5.875  16.651  0.00  0.00    +0.000 A 
ATOM      3  C   UNL     1      48.054   5.611  15.361  0.00  0.00    +0.000 A 
ATOM      4  C   UNL     1      47.280   4.477  15.133  0.00  0.00    +0.000 A 
ATOM      5  N   UNL     1      46.892   3.659  16.137  0.00  0.00    +0.000 NA
ATOM      6  C   UNL     1      47.325   3.953  17.384  0.00  0.00    +0.000 A 
ENDROOT
BRANCH   1   8
ATOM      7  C   UNL     1      47.704   5.992  20.027  0.00  0.00    +0.000 C 
ATOM      8  C   UNL     1      48.645   5.192  19.119  0.00  0.00    +0.000 C 
BRANCH   8   9
ATOM      9  N   UNL     1      49.978   5.762  19.131  0.00  0.00    +0.000 N 
ATOM     10  C   UNL     1      51.061   4.994  18.808  0.00  0.00    +0.000 C 
ATOM     11  O   UNL     1      50.966   3.839  18.427  0.00  0.00    +0.000 OA
ATOM     12  H   UNL     1      50.149   6.704  19.460  0.00  0.00    +0.000 HD
BRANCH  10  13
ATOM     13  O   UNL     1      52.219   5.682  18.978  0.00  0.00    +0.000 OA
BRANCH  13  14
ATOM     14  C   UNL     1      53.017   5.990  17.798  0.00  0.00    +0.000 C 
ATOM     15  C   UNL     1      52.116   6.398  16.623  0.00  0.00    +0.000 C 
ATOM     16  C   UNL     1      53.894   7.200  18.165  0.00  0.00    +0.000 C 
ATOM     17  C   UNL     1      53.956   4.831  17.436  0.00  0.00    +0.000 C 
ENDBRANCH  13  14
ENDBRANCH  10  13
ENDBRANCH   8   9
ENDBRANCH   1   8
BRANCH   4  18
ATOM     18  C   UNL     1      46.953   4.034  13.724  0.00  0.00    +0.000 C 
BRANCH  18  19
ATOM     19  C   UNL     1      45.723   4.778  13.179  0.00  0.00    +0.000 C 
ATOM     20  C   UNL     1      45.969   6.281  12.894  0.00  0.00    +0.000 C 
ATOM     21  C   UNL     1      46.320   6.411  11.408  0.00  0.00    +0.000 C 
ATOM     22  C   UNL     1      45.570   5.253  10.835  0.00  0.00    +0.000 A 
ATOM     23  C   UNL     1      45.195   5.058   9.516  0.00  0.00    +0.000 A 
ATOM     24  C   UNL     1      44.497   3.894   9.192  0.00  0.00    +0.000 A 
ATOM     25  C   UNL     1      44.204   2.939  10.178  0.00  0.00    +0.000 A 
ATOM     26  C   UNL     1      44.597   3.139  11.504  0.00  0.00    +0.000 A 
ATOM     27  C   UNL     1      45.273   4.305  11.822  0.00  0.00    +0.000 A 
ENDBRANCH  18  19
ENDBRANCH   4  18
TORSDOF 6
ENDMDL
MODEL 8
REMARK VINA RESULT:    -5.969      2.875      7.316
REMARK INTER + INTRA:          -8.060
REMARK INTER:                  -7.542
REMARK INTRA:                  -0.519
REMARK UNBOUND:                 0.002
REMARK  Name = 
REMARK  10 active torsions:
REMARK  status: ('A' for Active; 'I' for Inactive)
REMARK    1  A    between atoms: C_1  and  C_2
REMARK    2  A    between atoms: C_2  and  N_3
REMARK    3  A    between atoms: C_2  and  C_11
REMARK    4  A    between atoms: C_4  and  O_6
REMARK    5  A    between atoms: O_6  and  C_7
REMARK    6  A    between atoms: C_7  and  C_8
REMARK    7  A    between atoms: C_7  and  C_9
REMARK    8  A    between atoms: C_7  and  C_10
REMARK    9  A    between atoms: C_14  and  C_15
REMARK   10  A    between atoms: C_15  and  C_16
REMARK                            x       y       z     vdW  Elec       q    Type
REMARK                         _______ _______ _______ _____ _____    ______ ____
ROOT
ATOM      1  C   UNL     1      47.910   5.879  14.438  0.00  0.00    +0.000 A 
ATOM      2  C   UNL     1      48.752   6.537  15.335  0.00  0.00    +0.000 A 
ATOM      3  C   UNL     1      49.650   7.496  14.871  0.00  0.00    +0.000 A 
ATOM      4  C   UNL     1      49.719   7.756  13.505  0.00  0.00    +0.000 A 
ATOM      5  N   UNL     1      48.892   7.158  12.618  0.00  0.00    +0.000 NA
ATOM      6  C   UNL     1      48.012   6.250  13.099  0.00  0.00    +0.000 A 
ENDROOT
BRANCH   1   8
ATOM      7  C   UNL     1      47.510   3.801  15.871  0.00  0.00    +0.000 C 
ATOM      8  C   UNL     1      46.953   4.782  14.833  0.00  0.00    +0.000 C 
BRANCH   8   9
ATOM      9  N   UNL     1      46.480   4.073  13.660  0.00  0.00    +0.000 N 
ATOM     10  C   UNL     1      45.241   4.336  13.146  0.00  0.00    +0.000 C 
ATOM     11  O   UNL     1      44.513   5.211  13.585  0.00  0.00    +0.000 OA
ATOM     12  H   UNL     1      47.009   3.313  13.250  0.00  0.00    +0.000 HD
BRANCH  10  13
ATOM     13  O   UNL     1      44.948   3.501  12.117  0.00  0.00    +0.000 OA
BRANCH  13  14
ATOM     14  C   UNL     1      44.509   4.087  10.857  0.00  0.00    +0.000 C 
ATOM     15  C   UNL     1      45.495   5.165  10.384  0.00  0.00    +0.000 C 
ATOM     16  C   UNL     1      44.514   2.952   9.818  0.00  0.00    +0.000 C 
ATOM     17  C   UNL     1      43.071   4.617  10.955  0.00  0.00    +0.000 C 
ENDBRANCH  13  14
ENDBRANCH  10  13
ENDBRANCH   8   9
ENDBRANCH   1   8
BRANCH   4  18
ATOM     18  C   UNL     1      50.823   8.620  12.937  0.00  0.00    +0.000 C 
BRANCH  18  19
ATOM     19  C   UNL     1      50.610   8.877  11.437  0.00  0.00    +0.000 C 
ATOM     20  C   UNL     1      50.611  10.377  11.047  0.00  0.00    +0.000 C 
ATOM     21  C   UNL     1      52.030  10.728  10.590  0.00  0.00    +0.000 C 
ATOM     22  C   UNL     1      52.490   9.413  10.050  0.00  0.00    +0.000 A 
ATOM     23  C   UNL     1      53.535   9.178   9.172  0.00  0.00    +0.000 A 
ATOM     24  C   UNL     1      53.800   7.861   8.796  0.00  0.00    +0.000 A 
ATOM     25  C   UNL     1      53.036   6.803   9.314  0.00  0.00    +0.000 A 
ATOM     26  C   UNL     1      51.991   7.048  10.209  0.00  0.00    +0.000 A 
ATOM     27  C   UNL     1      51.722   8.360  10.563  0.00  0.00    +0.000 A 
ENDBRANCH  18  19
ENDBRANCH   4  18
TORSDOF 6
ENDMDL
MODEL 9
REMARK VINA RESULT:    -5.916      4.690      9.312
REMARK INTER + INTRA:          -7.989
REMARK INTER:                  -7.269
REMARK INTRA:                  -0.720
REMARK UNBOUND:                 0.002
REMARK  Name = 
REMARK  10 active torsions:
REMARK  status: ('A' for Active; 'I' for Inactive)
REMARK    1  A    between atoms: C_1  and  C_2
REMARK    2  A    between atoms: C_2  and  N_3
REMARK    3  A    between atoms: C_2  and  C_11
REMARK    4  A    between atoms: C_4  and  O_6
REMARK    5  A    between atoms: O_6  and  C_7
REMARK    6  A    between atoms: C_7  and  C_8
REMARK    7  A    between atoms: C_7  and  C_9
REMARK    8  A    between atoms: C_7  and  C_10
REMARK    9  A    between atoms: C_14  and  C_15
REMARK   10  A    between atoms: C_15  and  C_16
REMARK                            x       y       z     vdW  Elec       q    Type
REMARK                         _______ _______ _______ _____ _____    ______ ____
ROOT
ATOM      1  C   UNL     1      48.354   6.789  13.770  0.00  0.00    +0.000 A 
ATOM      2  C   UNL     1      49.301   7.574  14.429  0.00  0.00    +0.000 A 
ATOM      3  C   UNL     1      49.682   7.259  15.731  0.00  0.00    +0.000 A 
ATOM      4  C   UNL     1      49.078   6.182  16.373  0.00  0.00    +0.000 A 
ATOM      5  N   UNL     1      48.183   5.384  15.748  0.00  0.00    +0.000 NA
ATOM      6  C   UNL     1      47.851   5.696  14.474  0.00  0.00    +0.000 A 
ENDROOT
BRANCH   1   8
ATOM      7  C   UNL     1      48.253   8.450  11.830  0.00  0.00    +0.000 C 
ATOM      8  C   UNL     1      47.829   7.086  12.387  0.00  0.00    +0.000 C 
BRANCH   8   9
ATOM      9  N   UNL     1      46.387   6.942  12.349  0.00  0.00    +0.000 N 
ATOM     10  C   UNL     1      45.775   6.403  11.251  0.00  0.00    +0.000 C 
ATOM     11  O   UNL     1      46.393   5.954  10.301  0.00  0.00    +0.000 OA
ATOM     12  H   UNL     1      45.797   7.313  13.083  0.00  0.00    +0.000 HD
BRANCH  10  13
ATOM     13  O   UNL     1      44.424   6.450  11.370  0.00  0.00    +0.000 OA
BRANCH  13  14
ATOM     14  C   UNL     1      43.704   5.196  11.551  0.00  0.00    +0.000 C 
ATOM     15  C   UNL     1      44.212   4.451  12.795  0.00  0.00    +0.000 C 
ATOM     16  C   UNL     1      42.230   5.565  11.789  0.00  0.00    +0.000 C 
ATOM     17  C   UNL     1      43.765   4.325  10.287  0.00  0.00    +0.000 C 
ENDBRANCH  13  14
ENDBRANCH  10  13
ENDBRANCH   8   9
ENDBRANCH   1   8
BRANCH   4  18
ATOM     18  C   UNL     1      49.296   5.940  17.849  0.00  0.00    +0.000 C 
BRANCH  18  19
ATOM     19  C   UNL     1      48.016   6.217  18.653  0.00  0.00    +0.000 C 
ATOM     20  C   UNL     1      47.949   5.474  20.011  0.00  0.00    +0.000 C 
ATOM     21  C   UNL     1      48.462   6.441  21.084  0.00  0.00    +0.000 C 
ATOM     22  C   UNL     1      48.081   7.757  20.488  0.00  0.00    +0.000 A 
ATOM     23  C   UNL     1      47.945   8.972  21.139  0.00  0.00    +0.000 A 
ATOM     24  C   UNL     1      47.582  10.089  20.386  0.00  0.00    +0.000 A 
ATOM     25  C   UNL     1      47.383   9.982  19.000  0.00  0.00    +0.000 A 
ATOM     26  C   UNL     1      47.534   8.754  18.350  0.00  0.00    +0.000 A 
ATOM     27  C   UNL     1      47.875   7.646  19.107  0.00  0.00    +0.000 A 
ENDBRANCH  18  19
ENDBRANCH   4  18
TORSDOF 6
ENDMDL
