MODEL 1
REMARK VINA RESULT:    -8.134      0.000      0.000
REMARK INTER + INTRA:          -9.976
REMARK INTER:                  -9.561
REMARK INTRA:                  -0.415
REMARK UNBOUND:                -0.415
REMARK  Name = 
REMARK  4 active torsions:
REMARK  status: ('A' for Active; 'I' for Inactive)
REMARK    1  A    between atoms: C_1  and  C_2
REMARK    2  A    between atoms: N_5  and  C_6
REMARK    3  A    between atoms: C_6  and  C_7
REMARK    4  A    between atoms: C_11  and  C_12
REMARK                            x       y       z     vdW  Elec       q    Type
REMARK                         _______ _______ _______ _____ _____    ______ ____
ROOT
ATOM      1  C   UNL     1      43.961   4.689  10.825  0.00  0.00    +0.000 A 
ATOM      2  C   UNL     1      43.294   3.645  11.450  0.00  0.00    +0.000 A 
ATOM      3  N   UNL     1      43.370   2.359  11.054  0.00  0.00    +0.000 NA
ATOM      4  C   UNL     1      44.159   2.093   9.982  0.00  0.00    +0.000 A 
ATOM      5  C   UNL     1      44.891   3.044   9.266  0.00  0.00    +0.000 A 
ATOM      6  C   UNL     1      44.753   4.371   9.710  0.00  0.00    +0.000 A 
ENDROOT
BRANCH   5   7
ATOM      7  C   UNL     1      45.778   2.679   8.143  0.00  0.00    +0.000 A 
ATOM      8  C   UNL     1      46.084   3.572   7.105  0.00  0.00    +0.000 A 
ATOM      9  C   UNL     1      46.965   3.209   6.086  0.00  0.00    +0.000 A 
ATOM     10  C   UNL     1      47.520   1.943   6.116  0.00  0.00    +0.000 A 
ATOM     11  N   UNL     1      47.252   1.040   7.078  0.00  0.00    +0.000 NA
ATOM     12  C   UNL     1      46.400   1.428   8.059  0.00  0.00    +0.000 A 
ENDBRANCH   5   7
BRANCH   1  13
ATOM     13  C   UNL     1      43.839   6.105  11.328  0.00  0.00    +0.000 C 
BRANCH  13  18
ATOM     14  C   UNL     1      47.095   4.941  14.828  0.00  0.00    +0.000 C 
ATOM     15  C   UNL     1      47.155   5.878  13.662  0.00  0.00    +0.000 A 
ATOM     16  N   UNL     1      46.055   5.963  12.862  0.00  0.00    +0.000 NA
ATOM     17  C   UNL     1      46.098   6.788  11.793  0.00  0.00    +0.000 A 
ATOM     18  N   UNL     1      45.005   6.877  10.915  0.00  0.00    +0.000 N 
ATOM     19  C   UNL     1      47.242   7.529  11.492  0.00  0.00    +0.000 A 
ATOM     20  C   UNL     1      48.362   7.439  12.316  0.00  0.00    +0.000 A 
ATOM     21  C   UNL     1      48.313   6.603  13.417  0.00  0.00    +0.000 A 
ATOM     22  F   UNL     1      49.380   6.492  14.220  0.00  0.00    +0.000 F 
ATOM     23  H   UNL     1      44.780   7.856  10.760  0.00  0.00    +0.000 HD
ENDBRANCH  13  18
ENDBRANCH   1  13
TORSDOF 3
ENDMDL
MODEL 2
REMARK VINA RESULT:    -7.742      1.701      2.218
REMARK INTER + INTRA:          -9.514
REMARK INTER:                  -8.897
REMARK INTRA:                  -0.618
REMARK UNBOUND:                -0.415
REMARK  Name = 
REMARK  4 active torsions:
REMARK  status: ('A' for Active; 'I' for Inactive)
REMARK    1  A    between atoms: C_1  and  C_2
REMARK    2  A    between atoms: N_5  and  C_6
REMARK    3  A    between atoms: C_6  and  C_7
REMARK    4  A    between atoms: C_11  and  C_12
REMARK                            x       y       z     vdW  Elec       q    Type
REMARK                         _______ _______ _______ _____ _____    ______ ____
ROOT
ATOM      1  C   UNL     1      44.737   4.364  12.313  0.00  0.00    +0.000 A 
ATOM      2  C   UNL     1      43.589   3.629  12.574  0.00  0.00    +0.000 A 
ATOM      3  N   UNL     1      43.060   2.730  11.719  0.00  0.00    +0.000 NA
ATOM      4  C   UNL     1      43.712   2.547  10.543  0.00  0.00    +0.000 A 
ATOM      5  C   UNL     1      44.878   3.212  10.156  0.00  0.00    +0.000 A 
ATOM      6  C   UNL     1      45.369   4.154  11.077  0.00  0.00    +0.000 A 
ENDROOT
BRANCH   5   7
ATOM      7  C   UNL     1      45.570   2.922   8.884  0.00  0.00    +0.000 A 
ATOM      8  C   UNL     1      45.857   3.918   7.939  0.00  0.00    +0.000 A 
ATOM      9  C   UNL     1      46.556   3.616   6.770  0.00  0.00    +0.000 A 
ATOM     10  C   UNL     1      46.949   2.307   6.559  0.00  0.00    +0.000 A 
ATOM     11  N   UNL     1      46.689   1.307   7.423  0.00  0.00    +0.000 NA
ATOM     12  C   UNL     1      46.017   1.638   8.554  0.00  0.00    +0.000 A 
ENDBRANCH   5   7
BRANCH   1  13
ATOM     13  C   UNL     1      45.280   5.346  13.320  0.00  0.00    +0.000 C 
BRANCH  13  18
ATOM     14  C   UNL     1      49.378   7.681  11.920  0.00  0.00    +0.000 C 
ATOM     15  C   UNL     1      47.965   8.141  12.108  0.00  0.00    +0.000 A 
ATOM     16  N   UNL     1      47.047   7.216  12.507  0.00  0.00    +0.000 NA
ATOM     17  C   UNL     1      45.764   7.608  12.661  0.00  0.00    +0.000 A 
ATOM     18  N   UNL     1      44.773   6.681  13.029  0.00  0.00    +0.000 N 
ATOM     19  C   UNL     1      45.369   8.921  12.404  0.00  0.00    +0.000 A 
ATOM     20  C   UNL     1      46.313   9.862  11.998  0.00  0.00    +0.000 A 
ATOM     21  C   UNL     1      47.629   9.463  11.851  0.00  0.00    +0.000 A 
ATOM     22  F   UNL     1      48.555  10.346  11.454  0.00  0.00    +0.000 F 
ATOM     23  H   UNL     1      44.231   7.061  13.800  0.00  0.00    +0.000 HD
ENDBRANCH  13  18
ENDBRANCH   1  13
TORSDOF 3
ENDMDL
MODEL 3
REMARK VINA RESULT:    -7.508      2.752      6.548
REMARK INTER + INTRA:          -9.240
REMARK INTER:                  -8.664
REMARK INTRA:                  -0.576
REMARK UNBOUND:                -0.415
REMARK  Name = 
REMARK  4 active torsions:
REMARK  status: ('A' for Active; 'I' for Inactive)
REMARK    1  A    between atoms: C_1  and  C_2
REMARK    2  A    between atoms: N_5  and  C_6
REMARK    3  A    between atoms: C_6  and  C_7
REMARK    4  A    between atoms: C_11  and  C_12
REMARK                            x       y       z     vdW  Elec       q    Type
REMARK                         _______ _______ _______ _____ _____    ______ ____
ROOT
ATOM      1  C   UNL     1      44.699   4.164  11.208  0.00  0.00    +0.000 A 
ATOM      2  C   UNL     1      44.372   3.573  12.420  0.00  0.00    +0.000 A 
ATOM      3  N   UNL     1      44.818   4.009  13.615  0.00  0.00    +0.000 NA
ATOM      4  C   UNL     1      45.629   5.097  13.606  0.00  0.00    +0.000 A 
ATOM      5  C   UNL     1      46.032   5.792  12.463  0.00  0.00    +0.000 A 
ATOM      6  C   UNL     1      45.554   5.277  11.245  0.00  0.00    +0.000 A 
ENDROOT
BRANCH   5   7
ATOM      7  C   UNL     1      46.870   7.007  12.529  0.00  0.00    +0.000 A 
ATOM      8  C   UNL     1      46.393   8.222  13.041  0.00  0.00    +0.000 A 
ATOM      9  C   UNL     1      47.227   9.337  13.133  0.00  0.00    +0.000 A 
ATOM     10  C   UNL     1      48.533   9.218  12.695  0.00  0.00    +0.000 A 
ATOM     11  N   UNL     1      49.042   8.082  12.181  0.00  0.00    +0.000 NA
ATOM     12  C   UNL     1      48.206   7.015  12.116  0.00  0.00    +0.000 A 
ENDBRANCH   5   7
BRANCH   1  13
ATOM     13  C   UNL     1      44.155   3.630   9.907  0.00  0.00    +0.000 C 
BRANCH  13  18
ATOM     14  C   UNL     1      46.762   0.043   7.775  0.00  0.00    +0.000 C 
ATOM     15  C   UNL     1      46.628   1.506   7.486  0.00  0.00    +0.000 A 
ATOM     16  N   UNL     1      45.796   2.235   8.282  0.00  0.00    +0.000 NA
ATOM     17  C   UNL     1      45.648   3.552   8.023  0.00  0.00    +0.000 A 
ATOM     18  N   UNL     1      44.768   4.336   8.790  0.00  0.00    +0.000 N 
ATOM     19  C   UNL     1      46.309   4.163   6.957  0.00  0.00    +0.000 A 
ATOM     20  C   UNL     1      47.159   3.412   6.148  0.00  0.00    +0.000 A 
ATOM     21  C   UNL     1      47.320   2.066   6.420  0.00  0.00    +0.000 A 
ATOM     22  F   UNL     1      48.126   1.320   5.652  0.00  0.00    +0.000 F 
ATOM     23  H   UNL     1      45.249   5.181   9.088  0.00  0.00    +0.000 HD
ENDBRANCH  13  18
ENDBRANCH   1  13
TORSDOF 3
ENDMDL
MODEL 4
REMARK VINA RESULT:    -7.284      1.685      2.456
REMARK INTER + INTRA:          -8.977
REMARK INTER:                  -8.572
REMARK INTRA:                  -0.405
REMARK UNBOUND:                -0.415
REMARK  Name = 
REMARK  4 active torsions:
REMARK  status: ('A' for Active; 'I' for Inactive)
REMARK    1  A    between atoms: C_1  and  C_2
REMARK    2  A    between atoms: N_5  and  C_6
REMARK    3  A    between atoms: C_6  and  C_7
REMARK    4  A    between atoms: C_11  and  C_12
REMARK                            x       y       z     vdW  Elec       q    Type
REMARK                         _______ _______ _______ _____ _____    ______ ____
ROOT
ATOM      1  C   UNL     1      45.031   4.107  11.685  0.00  0.00    +0.000 A 
ATOM      2  C   UNL     1      43.869   3.395  11.944  0.00  0.00    +0.000 A 
ATOM      3  N   UNL     1      43.333   2.494  11.097  0.00  0.00    +0.000 NA
ATOM      4  C   UNL     1      43.992   2.283   9.930  0.00  0.00    +0.000 A 
ATOM      5  C   UNL     1      45.174   2.923   9.545  0.00  0.00    +0.000 A 
ATOM      6  C   UNL     1      45.672   3.868  10.458  0.00  0.00    +0.000 A 
ENDROOT
BRANCH   5   7
ATOM      7  C   UNL     1      45.873   2.603   8.285  0.00  0.00    +0.000 A 
ATOM      8  C   UNL     1      46.054   3.548   7.264  0.00  0.00    +0.000 A 
ATOM      9  C   UNL     1      46.763   3.225   6.107  0.00  0.00    +0.000 A 
ATOM     10  C   UNL     1      47.273   1.945   5.983  0.00  0.00    +0.000 A 
ATOM     11  N   UNL     1      47.118   0.993   6.923  0.00  0.00    +0.000 NA
ATOM     12  C   UNL     1      46.433   1.344   8.040  0.00  0.00    +0.000 A 
ENDBRANCH   5   7
BRANCH   1  13
ATOM     13  C   UNL     1      45.582   5.093  12.684  0.00  0.00    +0.000 C 
BRANCH  13  18
ATOM     14  C   UNL     1      49.327   7.709  14.511  0.00  0.00    +0.000 C 
ATOM     15  C   UNL     1      48.603   6.496  15.007  0.00  0.00    +0.000 A 
ATOM     16  N   UNL     1      47.580   6.014  14.246  0.00  0.00    +0.000 NA
ATOM     17  C   UNL     1      46.903   4.933  14.688  0.00  0.00    +0.000 A 
ATOM     18  N   UNL     1      45.813   4.426  13.959  0.00  0.00    +0.000 N 
ATOM     19  C   UNL     1      47.218   4.323  15.903  0.00  0.00    +0.000 A 
ATOM     20  C   UNL     1      48.266   4.820  16.675  0.00  0.00    +0.000 A 
ATOM     21  C   UNL     1      48.967   5.920  16.217  0.00  0.00    +0.000 A 
ATOM     22  F   UNL     1      49.974   6.423  16.944  0.00  0.00    +0.000 F 
ATOM     23  H   UNL     1      45.923   3.421  13.851  0.00  0.00    +0.000 HD
ENDBRANCH  13  18
ENDBRANCH   1  13
TORSDOF 3
ENDMDL
MODEL 5
REMARK VINA RESULT:    -7.239      1.533      1.915
REMARK INTER + INTRA:          -8.923
REMARK INTER:                  -8.336
REMARK INTRA:                  -0.587
REMARK UNBOUND:                -0.415
REMARK  Name = 
REMARK  4 active torsions:
REMARK  status: ('A' for Active; 'I' for Inactive)
REMARK    1  A    between atoms: C_1  and  C_2
REMARK    2  A    between atoms: N_5  and  C_6
REMARK    3  A    between atoms: C_6  and  C_7
REMARK    4  A    between atoms: C_11  and  C_12
REMARK                            x       y       z     vdW  Elec       q    Type
REMARK                         _______ _______ _______ _____ _____    ______ ____
ROOT
ATOM      1  C   UNL     1      44.641   5.965  12.008  0.00  0.00    +0.000 A 
ATOM      2  C   UNL     1      43.415   5.454  12.408  0.00  0.00    +0.000 A 
ATOM      3  N   UNL     1      42.804   4.410  11.813  0.00  0.00    +0.000 NA
ATOM      4  C   UNL     1      43.450   3.837  10.766  0.00  0.00    +0.000 A 
ATOM      5  C   UNL     1      44.689   4.244  10.265  0.00  0.00    +0.000 A 
ATOM      6  C   UNL     1      45.266   5.352  10.910  0.00  0.00    +0.000 A 
ENDROOT
BRANCH   5   7
ATOM      7  C   UNL     1      45.366   3.538   9.158  0.00  0.00    +0.000 A 
ATOM      8  C   UNL     1      45.967   4.218   8.088  0.00  0.00    +0.000 A 
ATOM      9  C   UNL     1      46.640   3.521   7.085  0.00  0.00    +0.000 A 
ATOM     10  C   UNL     1      46.689   2.141   7.162  0.00  0.00    +0.000 A 
ATOM     11  N   UNL     1      46.119   1.435   8.156  0.00  0.00    +0.000 NA
ATOM     12  C   UNL     1      45.481   2.144   9.121  0.00  0.00    +0.000 A 
ENDBRANCH   5   7
BRANCH   1  13
ATOM     13  C   UNL     1      45.274   7.130  12.726  0.00  0.00    +0.000 C 
BRANCH  13  18
ATOM     14  C   UNL     1      49.122   6.632  15.751  0.00  0.00    +0.000 C 
ATOM     15  C   UNL     1      48.977   7.238  14.389  0.00  0.00    +0.000 A 
ATOM     16  N   UNL     1      47.744   7.204  13.810  0.00  0.00    +0.000 NA
ATOM     17  C   UNL     1      47.598   7.728  12.574  0.00  0.00    +0.000 A 
ATOM     18  N   UNL     1      46.356   7.678  11.918  0.00  0.00    +0.000 N 
ATOM     19  C   UNL     1      48.681   8.277  11.885  0.00  0.00    +0.000 A 
ATOM     20  C   UNL     1      49.939   8.309  12.483  0.00  0.00    +0.000 A 
ATOM     21  C   UNL     1      50.084   7.783  13.754  0.00  0.00    +0.000 A 
ATOM     22  F   UNL     1      51.285   7.795  14.348  0.00  0.00    +0.000 F 
ATOM     23  H   UNL     1      46.133   8.601  11.556  0.00  0.00    +0.000 HD
ENDBRANCH  13  18
ENDBRANCH   1  13
TORSDOF 3
ENDMDL
MODEL 6
REMARK VINA RESULT:    -7.153      2.074      3.003
REMARK INTER + INTRA:          -8.822
REMARK INTER:                  -8.245
REMARK INTRA:                  -0.577
REMARK UNBOUND:                -0.415
REMARK  Name = 
REMARK  4 active torsions:
REMARK  status: ('A' for Active; 'I' for Inactive)
REMARK    1  A    between atoms: C_1  and  C_2
REMARK    2  A    between atoms: N_5  and  C_6
REMARK    3  A    between atoms: C_6  and  C_7
REMARK    4  A    between atoms: C_11  and  C_12
REMARK                            x       y       z     vdW  Elec       q    Type
REMARK                         _______ _______ _______ _____ _____    ______ ____
ROOT
ATOM      1  C   UNL     1      44.940   6.234  11.692  0.00  0.00    +0.000 A 
ATOM      2  C   UNL     1      43.582   6.047  11.905  0.00  0.00    +0.000 A 
ATOM      3  N   UNL     1      42.831   5.152  11.232  0.00  0.00    +0.000 NA
ATOM      4  C   UNL     1      43.466   4.395  10.302  0.00  0.00    +0.000 A 
ATOM      5  C   UNL     1      44.826   4.474   9.992  0.00  0.00    +0.000 A 
ATOM      6  C   UNL     1      45.553   5.441  10.708  0.00  0.00    +0.000 A 
ENDROOT
BRANCH   5   7
ATOM      7  C   UNL     1      45.467   3.578   9.008  0.00  0.00    +0.000 A 
ATOM      8  C   UNL     1      46.151   4.063   7.883  0.00  0.00    +0.000 A 
ATOM      9  C   UNL     1      46.787   3.190   7.001  0.00  0.00    +0.000 A 
ATOM     10  C   UNL     1      46.716   1.832   7.254  0.00  0.00    +0.000 A 
ATOM     11  N   UNL     1      46.063   1.309   8.309  0.00  0.00    +0.000 NA
ATOM     12  C   UNL     1      45.465   2.187   9.153  0.00  0.00    +0.000 A 
ENDBRANCH   5   7
BRANCH   1  13
ATOM     13  C   UNL     1      45.722   7.248  12.488  0.00  0.00    +0.000 C 
BRANCH  13  18
ATOM     14  C   UNL     1      48.416  11.080  10.983  0.00  0.00    +0.000 C 
ATOM     15  C   UNL     1      48.785   9.714  11.475  0.00  0.00    +0.000 A 
ATOM     16  N   UNL     1      47.771   8.875  11.828  0.00  0.00    +0.000 NA
ATOM     17  C   UNL     1      48.086   7.646  12.293  0.00  0.00    +0.000 A 
ATOM     18  N   UNL     1      47.078   6.760  12.710  0.00  0.00    +0.000 N 
ATOM     19  C   UNL     1      49.414   7.239  12.433  0.00  0.00    +0.000 A 
ATOM     20  C   UNL     1      50.445   8.103  12.068  0.00  0.00    +0.000 A 
ATOM     21  C   UNL     1      50.122   9.356  11.581  0.00  0.00    +0.000 A 
ATOM     22  F   UNL     1      51.095  10.209  11.231  0.00  0.00    +0.000 F 
ATOM     23  H   UNL     1      47.233   5.852  12.280  0.00  0.00    +0.000 HD
ENDBRANCH  13  18
ENDBRANCH   1  13
TORSDOF 3
ENDMDL
MODEL 7
REMARK VINA RESULT:    -7.001      2.765      7.101
REMARK INTER + INTRA:          -8.644
REMARK INTER:                  -8.052
REMARK INTRA:                  -0.591
REMARK UNBOUND:                -0.415
REMARK  Name = 
REMARK  4 active torsions:
REMARK  status: ('A' for Active; 'I' for Inactive)
REMARK    1  A    between atoms: C_1  and  C_2
REMARK    2  A    between atoms: N_5  and  C_6
REMARK    3  A    between atoms: C_6  and  C_7
REMARK    4  A    between atoms: C_11  and  C_12
REMARK                            x       y       z     vdW  Elec       q    Type
REMARK                         _______ _______ _______ _____ _____    ______ ____
ROOT
ATOM      1  C   UNL     1      46.559   6.902  12.272  0.00  0.00    +0.000 A 
ATOM      2  C   UNL     1      47.674   7.666  11.956  0.00  0.00    +0.000 A 
ATOM      3  N   UNL     1      48.794   7.709  12.706  0.00  0.00    +0.000 NA
ATOM      4  C   UNL     1      48.810   6.947  13.828  0.00  0.00    +0.000 A 
ATOM      5  C   UNL     1      47.763   6.128  14.260  0.00  0.00    +0.000 A 
ATOM      6  C   UNL     1      46.614   6.142  13.451  0.00  0.00    +0.000 A 
ENDROOT
BRANCH   5   7
ATOM      7  C   UNL     1      47.868   5.277  15.463  0.00  0.00    +0.000 A 
ATOM      8  C   UNL     1      48.711   5.595  16.538  0.00  0.00    +0.000 A 
ATOM      9  C   UNL     1      48.748   4.794  17.680  0.00  0.00    +0.000 A 
ATOM     10  C   UNL     1      47.945   3.670  17.720  0.00  0.00    +0.000 A 
ATOM     11  N   UNL     1      47.128   3.307  16.713  0.00  0.00    +0.000 NA
ATOM     12  C   UNL     1      47.108   4.114  15.623  0.00  0.00    +0.000 A 
ENDBRANCH   5   7
BRANCH   1  13
ATOM     13  C   UNL     1      45.343   6.892  11.381  0.00  0.00    +0.000 C 
BRANCH  13  18
ATOM     14  C   UNL     1      43.432   2.363  11.589  0.00  0.00    +0.000 C 
ATOM     15  C   UNL     1      44.241   3.073  10.548  0.00  0.00    +0.000 A 
ATOM     16  N   UNL     1      44.613   4.359  10.805  0.00  0.00    +0.000 NA
ATOM     17  C   UNL     1      45.326   5.022   9.869  0.00  0.00    +0.000 A 
ATOM     18  N   UNL     1      45.697   6.363  10.070  0.00  0.00    +0.000 N 
ATOM     19  C   UNL     1      45.664   4.425   8.654  0.00  0.00    +0.000 A 
ATOM     20  C   UNL     1      45.280   3.110   8.398  0.00  0.00    +0.000 A 
ATOM     21  C   UNL     1      44.561   2.427   9.362  0.00  0.00    +0.000 A 
ATOM     22  F   UNL     1      44.173   1.164   9.137  0.00  0.00    +0.000 F 
ATOM     23  H   UNL     1      46.688   6.469   9.870  0.00  0.00    +0.000 HD
ENDBRANCH  13  18
ENDBRANCH   1  13
TORSDOF 3
ENDMDL
MODEL 8
REMARK VINA RESULT:    -6.712      3.172      5.721
REMARK INTER + INTRA:          -8.304
REMARK INTER:                  -7.698
REMARK INTRA:                  -0.606
REMARK UNBOUND:                -0.415
REMARK  Name = 
REMARK  4 active torsions:
REMARK  status: ('A' for Active; 'I' for Inactive)
REMARK    1  A    between atoms: C_1  and  C_2
REMARK    2  A    between atoms: N_5  and  C_6
REMARK    3  A    between atoms: C_6  and  C_7
REMARK    4  A    between atoms: C_11  and  C_12
REMARK                            x       y       z     vdW  Elec       q    Type
REMARK                         _______ _______ _______ _____ _____    ______ ____
ROOT
ATOM      1  C   UNL     1      47.665   7.147  13.835  0.00  0.00    +0.000 A 
ATOM      2  C   UNL     1      47.136   8.410  13.614  0.00  0.00    +0.000 A 
ATOM      3  N   UNL     1      46.004   8.641  12.919  0.00  0.00    +0.000 NA
ATOM      4  C   UNL     1      45.358   7.556  12.422  0.00  0.00    +0.000 A 
ATOM      5  C   UNL     1      45.774   6.231  12.575  0.00  0.00    +0.000 A 
ATOM      6  C   UNL     1      46.973   6.054  13.288  0.00  0.00    +0.000 A 
ENDROOT
BRANCH   5   7
ATOM      7  C   UNL     1      44.992   5.090  12.058  0.00  0.00    +0.000 A 
ATOM      8  C   UNL     1      44.846   4.840  10.685  0.00  0.00    +0.000 A 
ATOM      9  C   UNL     1      44.141   3.724  10.232  0.00  0.00    +0.000 A 
ATOM     10  C   UNL     1      43.576   2.878  11.169  0.00  0.00    +0.000 A 
ATOM     11  N   UNL     1      43.671   3.076  12.498  0.00  0.00    +0.000 NA
ATOM     12  C   UNL     1      44.373   4.164  12.904  0.00  0.00    +0.000 A 
ENDBRANCH   5   7
BRANCH   1  13
ATOM     13  C   UNL     1      48.932   6.960  14.632  0.00  0.00    +0.000 C 
BRANCH  13  18
ATOM     14  C   UNL     1      48.916   2.443  16.583  0.00  0.00    +0.000 C 
ATOM     15  C   UNL     1      48.661   3.799  17.167  0.00  0.00    +0.000 A 
ATOM     16  N   UNL     1      48.755   4.873  16.334  0.00  0.00    +0.000 NA
ATOM     17  C   UNL     1      48.548   6.106  16.847  0.00  0.00    +0.000 A 
ATOM     18  N   UNL     1      48.676   7.247  16.038  0.00  0.00    +0.000 N 
ATOM     19  C   UNL     1      48.262   6.291  18.200  0.00  0.00    +0.000 A 
ATOM     20  C   UNL     1      48.166   5.187  19.046  0.00  0.00    +0.000 A 
ATOM     21  C   UNL     1      48.366   3.925  18.517  0.00  0.00    +0.000 A 
ATOM     22  F   UNL     1      48.288   2.848  19.311  0.00  0.00    +0.000 F 
ATOM     23  H   UNL     1      47.859   7.840  16.165  0.00  0.00    +0.000 HD
ENDBRANCH  13  18
ENDBRANCH   1  13
TORSDOF 3
ENDMDL
MODEL 9
REMARK VINA RESULT:    -6.705      2.822      4.913
REMARK INTER + INTRA:          -8.296
REMARK INTER:                  -7.884
REMARK INTRA:                  -0.412
REMARK UNBOUND:                -0.415
REMARK  Name = 
REMARK  4 active torsions:
REMARK  status: ('A' for Active; 'I' for Inactive)
REMARK    1  A    between atoms: C_1  and  C_2
REMARK    2  A    between atoms: N_5  and  C_6
REMARK    3  A    between atoms: C_6  and  C_7
REMARK    4  A    between atoms: C_11  and  C_12
REMARK                            x       y       z     vdW  Elec       q    Type
REMARK                         _______ _______ _______ _____ _____    ______ ____
ROOT
ATOM      1  C   UNL     1      46.760   6.535  13.253  0.00  0.00    +0.000 A 
ATOM      2  C   UNL     1      46.217   7.792  13.027  0.00  0.00    +0.000 A 
ATOM      3  N   UNL     1      45.406   8.086  11.991  0.00  0.00    +0.000 NA
ATOM      4  C   UNL     1      45.113   7.074  11.136  0.00  0.00    +0.000 A 
ATOM      5  C   UNL     1      45.583   5.763  11.248  0.00  0.00    +0.000 A 
ATOM      6  C   UNL     1      46.443   5.522  12.334  0.00  0.00    +0.000 A 
ENDROOT
BRANCH   5   7
ATOM      7  C   UNL     1      45.177   4.694  10.314  0.00  0.00    +0.000 A 
ATOM      8  C   UNL     1      45.527   4.708   8.956  0.00  0.00    +0.000 A 
ATOM      9  C   UNL     1      45.168   3.656   8.113  0.00  0.00    +0.000 A 
ATOM     10  C   UNL     1      44.446   2.604   8.645  0.00  0.00    +0.000 A 
ATOM     11  N   UNL     1      44.069   2.543   9.937  0.00  0.00    +0.000 NA
ATOM     12  C   UNL     1      44.444   3.577  10.731  0.00  0.00    +0.000 A 
ENDBRANCH   5   7
BRANCH   1  13
ATOM     13  C   UNL     1      47.653   6.272  14.440  0.00  0.00    +0.000 C 
BRANCH  13  18
ATOM     14  C   UNL     1      49.492   6.691  18.984  0.00  0.00    +0.000 C 
ATOM     15  C   UNL     1      48.852   5.551  18.252  0.00  0.00    +0.000 A 
ATOM     16  N   UNL     1      48.436   5.776  16.974  0.00  0.00    +0.000 NA
ATOM     17  C   UNL     1      47.838   4.765  16.305  0.00  0.00    +0.000 A 
ATOM     18  N   UNL     1      47.353   4.961  15.001  0.00  0.00    +0.000 N 
ATOM     19  C   UNL     1      47.629   3.521  16.902  0.00  0.00    +0.000 A 
ATOM     20  C   UNL     1      48.060   3.299  18.209  0.00  0.00    +0.000 A 
ATOM     21  C   UNL     1      48.681   4.330  18.889  0.00  0.00    +0.000 A 
ATOM     22  F   UNL     1      49.097   4.144  20.149  0.00  0.00    +0.000 F 
ATOM     23  H   UNL     1      47.683   4.206  14.406  0.00  0.00    +0.000 HD
ENDBRANCH  13  18
ENDBRANCH   1  13
TORSDOF 3
ENDMDL
