MODEL 1
REMARK VINA RESULT:    -9.219      0.000      0.000
REMARK INTER + INTRA:         -12.927
REMARK INTER:                 -11.914
REMARK INTRA:                  -1.014
REMARK UNBOUND:                -1.014
REMARK  Name = 
REMARK  5 active torsions:
REMARK  status: ('A' for Active; 'I' for Inactive)
REMARK    1  A    between atoms: C_2  and  C_3
REMARK    2  A    between atoms: C_6  and  C_7
REMARK    3  A    between atoms: C_11  and  C_12
REMARK    4  A    between atoms: C_12  and  N_13
REMARK    5  A    between atoms: C_17  and  C_18
REMARK                            x       y       z     vdW  Elec       q    Type
REMARK                         _______ _______ _______ _____ _____    ______ ____
ROOT
ATOM      1  C   UNL     1      43.890   5.131  11.158  0.00  0.00    +0.000 C 
ATOM      2  C   UNL     1      42.614   5.832  11.608  0.00  0.00    +0.000 C 
ATOM      3  C   UNL     1      42.701   4.347  11.690  0.00  0.00    +0.000 C 
ENDROOT
BRANCH   1   4
ATOM      4  N   UNL     1      44.204   5.136   9.717  0.00  0.00    +0.000 N 
ATOM      5  C   UNL     1      45.001   4.166   9.092  0.00  0.00    +0.000 A 
ATOM      6  C   UNL     1      44.960   2.815   9.424  0.00  0.00    +0.000 A 
ATOM      7  C   UNL     1      45.712   1.891   8.694  0.00  0.00    +0.000 A 
ATOM      8  C   UNL     1      46.505   2.340   7.645  0.00  0.00    +0.000 A 
ATOM      9  C   UNL     1      46.488   3.698   7.367  0.00  0.00    +0.000 A 
ATOM     10  N   UNL     1      45.762   4.610   8.068  0.00  0.00    +0.000 NA
ATOM     11  H   UNL     1      44.506   6.027   9.328  0.00  0.00    +0.000 HD
BRANCH   8  12
ATOM     12  C   UNL     1      47.322   1.438   6.806  0.00  0.00    +0.000 C 
ATOM     13  N   UNL     1      48.350   1.998   6.097  0.00  0.00    +0.000 N 
ATOM     14  O   UNL     1      47.078   0.243   6.726  0.00  0.00    +0.000 OA
ATOM     15  H   UNL     1      48.451   2.992   5.958  0.00  0.00    +0.000 HD
ATOM     16  H   UNL     1      48.845   1.385   5.461  0.00  0.00    +0.000 HD
ENDBRANCH   8  12
ENDBRANCH   1   4
BRANCH   1  21
ATOM     17  C   UNL     1      47.194   6.561  12.557  0.00  0.00    +0.000 A 
ATOM     18  C   UNL     1      47.406   5.711  13.653  0.00  0.00    +0.000 A 
ATOM     19  C   UNL     1      46.496   4.698  13.960  0.00  0.00    +0.000 A 
ATOM     20  C   UNL     1      45.363   4.507  13.167  0.00  0.00    +0.000 A 
ATOM     21  C   UNL     1      45.112   5.322  12.053  0.00  0.00    +0.000 A 
ATOM     22  C   UNL     1      46.034   6.347  11.787  0.00  0.00    +0.000 A 
BRANCH  17  26
ATOM     23  C   UNL     1      49.929   9.605  11.435  0.00  0.00    +0.000 A 
ATOM     24  C   UNL     1      48.598   9.958  11.600  0.00  0.00    +0.000 A 
ATOM     25  C   UNL     1      47.691   8.969  11.991  0.00  0.00    +0.000 A 
ATOM     26  C   UNL     1      48.123   7.654  12.210  0.00  0.00    +0.000 A 
ATOM     27  C   UNL     1      49.493   7.430  12.040  0.00  0.00    +0.000 A 
ATOM     28  N   UNL     1      50.400   8.360  11.651  0.00  0.00    +0.000 NA
BRANCH  23  30
ATOM     29  N   UNL     1      51.705  11.332  10.644  0.00  0.00    +0.000 NA
ATOM     30  C   UNL     1      50.896  10.576  10.991  0.00  0.00    +0.000 C 
ENDBRANCH  23  30
ENDBRANCH  17  26
ENDBRANCH   1  21
TORSDOF 5
ENDMDL
MODEL 2
REMARK VINA RESULT:    -8.719      2.810      4.500
REMARK INTER + INTRA:         -12.282
REMARK INTER:                 -11.450
REMARK INTRA:                  -0.832
REMARK UNBOUND:                -1.014
REMARK  Name = 
REMARK  5 active torsions:
REMARK  status: ('A' for Active; 'I' for Inactive)
REMARK    1  A    between atoms: C_2  and  C_3
REMARK    2  A    between atoms: C_6  and  C_7
REMARK    3  A    between atoms: C_11  and  C_12
REMARK    4  A    between atoms: C_12  and  N_13
REMARK    5  A    between atoms: C_17  and  C_18
REMARK                            x       y       z     vdW  Elec       q    Type
REMARK                         _______ _______ _______ _____ _____    ______ ____
ROOT
ATOM      1  C   UNL     1      44.167   4.998  11.379  0.00  0.00    +0.000 C 
ATOM      2  C   UNL     1      42.884   5.452  12.063  0.00  0.00    +0.000 C 
ATOM      3  C   UNL     1      43.341   4.043  12.227  0.00  0.00    +0.000 C 
ENDROOT
BRANCH   1   4
ATOM      4  N   UNL     1      44.160   4.894   9.908  0.00  0.00    +0.000 N 
ATOM      5  C   UNL     1      44.966   4.001   9.188  0.00  0.00    +0.000 A 
ATOM      6  C   UNL     1      45.240   2.705   9.616  0.00  0.00    +0.000 A 
ATOM      7  C   UNL     1      45.971   1.837   8.801  0.00  0.00    +0.000 A 
ATOM      8  C   UNL     1      46.429   2.288   7.569  0.00  0.00    +0.000 A 
ATOM      9  C   UNL     1      46.110   3.588   7.206  0.00  0.00    +0.000 A 
ATOM     10  N   UNL     1      45.399   4.445   7.988  0.00  0.00    +0.000 NA
ATOM     11  H   UNL     1      44.207   5.774   9.397  0.00  0.00    +0.000 HD
BRANCH   8  12
ATOM     12  C   UNL     1      47.196   1.441   6.631  0.00  0.00    +0.000 C 
ATOM     13  N   UNL     1      48.158   2.053   5.874  0.00  0.00    +0.000 N 
ATOM     14  O   UNL     1      46.967   0.246   6.516  0.00  0.00    +0.000 OA
ATOM     15  H   UNL     1      48.232   3.054   5.774  0.00  0.00    +0.000 HD
ATOM     16  H   UNL     1      48.615   1.479   5.176  0.00  0.00    +0.000 HD
ENDBRANCH   8  12
ENDBRANCH   1   4
BRANCH   1  21
ATOM     17  C   UNL     1      47.091   5.663  13.813  0.00  0.00    +0.000 A 
ATOM     18  C   UNL     1      47.849   6.581  13.070  0.00  0.00    +0.000 A 
ATOM     19  C   UNL     1      47.446   6.975  11.794  0.00  0.00    +0.000 A 
ATOM     20  C   UNL     1      46.268   6.469  11.241  0.00  0.00    +0.000 A 
ATOM     21  C   UNL     1      45.467   5.559  11.948  0.00  0.00    +0.000 A 
ATOM     22  C   UNL     1      45.915   5.164  13.220  0.00  0.00    +0.000 A 
BRANCH  17  26
ATOM     23  C   UNL     1      48.216   4.512  17.740  0.00  0.00    +0.000 A 
ATOM     24  C   UNL     1      47.320   3.701  17.058  0.00  0.00    +0.000 A 
ATOM     25  C   UNL     1      46.958   4.058  15.756  0.00  0.00    +0.000 A 
ATOM     26  C   UNL     1      47.493   5.207  15.159  0.00  0.00    +0.000 A 
ATOM     27  C   UNL     1      48.407   5.925  15.936  0.00  0.00    +0.000 A 
ATOM     28  N   UNL     1      48.773   5.618  17.204  0.00  0.00    +0.000 NA
BRANCH  23  30
ATOM     29  N   UNL     1      48.847   3.975  20.205  0.00  0.00    +0.000 NA
ATOM     30  C   UNL     1      48.587   4.214  19.100  0.00  0.00    +0.000 C 
ENDBRANCH  23  30
ENDBRANCH  17  26
ENDBRANCH   1  21
TORSDOF 5
ENDMDL
MODEL 3
REMARK VINA RESULT:    -6.951      5.183      8.721
REMARK INTER + INTRA:          -9.997
REMARK INTER:                  -9.061
REMARK INTRA:                  -0.936
REMARK UNBOUND:                -1.014
REMARK  Name = 
REMARK  5 active torsions:
REMARK  status: ('A' for Active; 'I' for Inactive)
REMARK    1  A    between atoms: C_2  and  C_3
REMARK    2  A    between atoms: C_6  and  C_7
REMARK    3  A    between atoms: C_11  and  C_12
REMARK    4  A    between atoms: C_12  and  N_13
REMARK    5  A    between atoms: C_17  and  C_18
REMARK                            x       y       z     vdW  Elec       q    Type
REMARK                         _______ _______ _______ _____ _____    ______ ____
ROOT
ATOM      1  C   UNL     1      49.434   7.339  16.966  0.00  0.00    +0.000 C 
ATOM      2  C   UNL     1      48.940   8.620  17.627  0.00  0.00    +0.000 C 
ATOM      3  C   UNL     1      50.404   8.350  17.558  0.00  0.00    +0.000 C 
ENDROOT
BRANCH   1   4
ATOM      4  N   UNL     1      49.165   6.064  17.656  0.00  0.00    +0.000 N 
ATOM      5  C   UNL     1      50.009   4.946  17.581  0.00  0.00    +0.000 A 
ATOM      6  C   UNL     1      51.397   5.038  17.573  0.00  0.00    +0.000 A 
ATOM      7  C   UNL     1      52.177   3.879  17.595  0.00  0.00    +0.000 A 
ATOM      8  C   UNL     1      51.549   2.639  17.614  0.00  0.00    +0.000 A 
ATOM      9  C   UNL     1      50.162   2.626  17.630  0.00  0.00    +0.000 A 
ATOM     10  N   UNL     1      49.390   3.746  17.609  0.00  0.00    +0.000 NA
ATOM     11  H   UNL     1      48.220   5.696  17.564  0.00  0.00    +0.000 HD
BRANCH   8  12
ATOM     12  C   UNL     1      52.286   1.359  17.653  0.00  0.00    +0.000 C 
ATOM     13  N   UNL     1      51.613   0.258  18.108  0.00  0.00    +0.000 N 
ATOM     14  O   UNL     1      53.460   1.287  17.316  0.00  0.00    +0.000 OA
ATOM     15  H   UNL     1      50.732   0.310  18.597  0.00  0.00    +0.000 HD
ATOM     16  H   UNL     1      52.155  -0.591  18.211  0.00  0.00    +0.000 HD
ENDBRANCH   8  12
ENDBRANCH   1   4
BRANCH   1  21
ATOM     17  C   UNL     1      48.079   6.341  13.490  0.00  0.00    +0.000 A 
ATOM     18  C   UNL     1      48.950   7.054  12.652  0.00  0.00    +0.000 A 
ATOM     19  C   UNL     1      49.953   7.864  13.187  0.00  0.00    +0.000 A 
ATOM     20  C   UNL     1      50.113   7.965  14.570  0.00  0.00    +0.000 A 
ATOM     21  C   UNL     1      49.277   7.261  15.451  0.00  0.00    +0.000 A 
ATOM     22  C   UNL     1      48.262   6.476  14.880  0.00  0.00    +0.000 A 
BRANCH  17  26
ATOM     23  C   UNL     1      44.907   3.865  12.141  0.00  0.00    +0.000 A 
ATOM     24  C   UNL     1      45.095   5.083  11.504  0.00  0.00    +0.000 A 
ATOM     25  C   UNL     1      46.150   5.898  11.924  0.00  0.00    +0.000 A 
ATOM     26  C   UNL     1      46.995   5.488  12.965  0.00  0.00    +0.000 A 
ATOM     27  C   UNL     1      46.721   4.229  13.507  0.00  0.00    +0.000 A 
ATOM     28  N   UNL     1      45.702   3.416  13.134  0.00  0.00    +0.000 NA
BRANCH  23  30
ATOM     29  N   UNL     1      42.948   2.297  11.459  0.00  0.00    +0.000 NA
ATOM     30  C   UNL     1      43.808   3.008  11.777  0.00  0.00    +0.000 C 
ENDBRANCH  23  30
ENDBRANCH  17  26
ENDBRANCH   1  21
TORSDOF 5
ENDMDL
