MODEL 1
REMARK VINA RESULT:    -7.414      0.000      0.000
REMARK INTER + INTRA:         -11.079
REMARK INTER:                 -10.448
REMARK INTRA:                  -0.631
REMARK UNBOUND:                -0.631
REMARK  Name = 
REMARK  7 active torsions:
REMARK  status: ('A' for Active; 'I' for Inactive)
REMARK    1  A    between atoms: C_2  and  C_3
REMARK    2  A    between atoms: C_7  and  C_8
REMARK    3  A    between atoms: N_10  and  C_11
REMARK    4  A    between atoms: C_11  and  C_12
REMARK    5  A    between atoms: C_15  and  C_16
REMARK    6  A    between atoms: C_16  and  N_17
REMARK    7  A    between atoms: C_18  and  C_20
REMARK                            x       y       z     vdW  Elec       q    Type
REMARK                         _______ _______ _______ _____ _____    ______ ____
ROOT
ATOM      1  C   UNL     1      50.279   7.258  15.522  0.00  0.00    +0.000 A 
ATOM      2  C   UNL     1      48.927   6.949  15.315  0.00  0.00    +0.000 A 
ATOM      3  C   UNL     1      48.300   7.246  14.097  0.00  0.00    +0.000 A 
ATOM      4  C   UNL     1      49.016   7.839  13.049  0.00  0.00    +0.000 A 
ATOM      5  C   UNL     1      50.362   8.163  13.260  0.00  0.00    +0.000 A 
ATOM      6  C   UNL     1      50.989   7.868  14.479  0.00  0.00    +0.000 A 
ENDROOT
BRANCH   1   7
ATOM      7  C   UNL     1      50.942   6.962  16.846  0.00  0.00    +0.000 C 
BRANCH   7  10
ATOM      8  C   UNL     1      50.266   4.806  17.797  0.00  0.00    +0.000 C 
ATOM      9  O   UNL     1      51.083   4.217  17.095  0.00  0.00    +0.000 OA
ATOM     10  N   UNL     1      50.111   6.177  17.744  0.00  0.00    +0.000 N 
ATOM     11  H   UNL     1      49.627   6.671  18.482  0.00  0.00    +0.000 HD
BRANCH   8  16
ATOM     12  C   UNL     1      48.297   3.129  18.152  0.00  0.00    +0.000 C 
ATOM     13  C   UNL     1      47.156   4.053  17.728  0.00  0.00    +0.000 C 
ATOM     14  C   UNL     1      47.256   5.286  18.626  0.00  0.00    +0.000 C 
ATOM     15  C   UNL     1      48.457   5.055  19.541  0.00  0.00    +0.000 C 
ATOM     16  C   UNL     1      49.348   4.062  18.789  0.00  0.00    +0.000 C 
BRANCH  12  18
ATOM     17  N   UNL     1      49.410   1.775  15.992  0.00  0.00    +0.000 NA
ATOM     18  C   UNL     1      48.905   2.389  16.971  0.00  0.00    +0.000 C 
ENDBRANCH  12  18
ENDBRANCH   8  16
ENDBRANCH   7  10
ENDBRANCH   1   7
BRANCH   4  19
ATOM     19  C   UNL     1      48.354   8.143  11.725  0.00  0.00    +0.000 C 
BRANCH  19  20
ATOM     20  N   UNL     1      47.637   7.004  11.209  0.00  0.00    +0.000 N 
ATOM     21  C   UNL     1      46.266   6.939  11.267  0.00  0.00    +0.000 C 
ATOM     22  O   UNL     1      45.587   7.860  11.709  0.00  0.00    +0.000 OA
ATOM     23  H   UNL     1      48.169   6.152  11.071  0.00  0.00    +0.000 HD
BRANCH  21  24
ATOM     24  C   UNL     1      45.645   5.729  10.711  0.00  0.00    +0.000 A 
ATOM     25  C   UNL     1      45.786   5.435   9.361  0.00  0.00    +0.000 A 
ATOM     26  S   UNL     1      45.052   3.966   8.899  0.00  0.00    +0.000 S 
ATOM     27  C   UNL     1      44.469   3.699  10.475  0.00  0.00    +0.000 A 
ATOM     28  N   UNL     1      43.720   2.601  10.768  0.00  0.00    +0.000 NA
ATOM     29  C   UNL     1      43.319   2.542  11.991  0.00  0.00    +0.000 A 
ATOM     30  N   UNL     1      43.601   3.477  12.954  0.00  0.00    +0.000 N 
ATOM     31  C   UNL     1      44.373   4.590  12.711  0.00  0.00    +0.000 A 
ATOM     32  O   UNL     1      44.634   5.390  13.602  0.00  0.00    +0.000 OA
ATOM     33  C   UNL     1      44.842   4.707  11.344  0.00  0.00    +0.000 A 
ATOM     34  H   UNL     1      43.260   3.369  13.896  0.00  0.00    +0.000 HD
ENDBRANCH  21  24
ENDBRANCH  19  20
ENDBRANCH   4  19
TORSDOF 7
ENDMDL
MODEL 2
REMARK VINA RESULT:    -7.354      3.652      8.858
REMARK INTER + INTRA:         -10.994
REMARK INTER:                 -10.555
REMARK INTRA:                  -0.439
REMARK UNBOUND:                -0.631
REMARK  Name = 
REMARK  7 active torsions:
REMARK  status: ('A' for Active; 'I' for Inactive)
REMARK    1  A    between atoms: C_2  and  C_3
REMARK    2  A    between atoms: C_7  and  C_8
REMARK    3  A    between atoms: N_10  and  C_11
REMARK    4  A    between atoms: C_11  and  C_12
REMARK    5  A    between atoms: C_15  and  C_16
REMARK    6  A    between atoms: C_16  and  N_17
REMARK    7  A    between atoms: C_18  and  C_20
REMARK                            x       y       z     vdW  Elec       q    Type
REMARK                         _______ _______ _______ _____ _____    ______ ____
ROOT
ATOM      1  C   UNL     1      45.639   5.741  11.701  0.00  0.00    +0.000 A 
ATOM      2  C   UNL     1      46.888   6.233  12.108  0.00  0.00    +0.000 A 
ATOM      3  C   UNL     1      47.473   5.805  13.308  0.00  0.00    +0.000 A 
ATOM      4  C   UNL     1      46.833   4.860  14.120  0.00  0.00    +0.000 A 
ATOM      5  C   UNL     1      45.577   4.380  13.723  0.00  0.00    +0.000 A 
ATOM      6  C   UNL     1      44.992   4.809  12.524  0.00  0.00    +0.000 A 
ENDROOT
BRANCH   1   7
ATOM      7  C   UNL     1      45.001   6.226  10.421  0.00  0.00    +0.000 C 
BRANCH   7  10
ATOM      8  C   UNL     1      45.497   4.704   8.564  0.00  0.00    +0.000 C 
ATOM      9  O   UNL     1      46.610   5.203   8.426  0.00  0.00    +0.000 OA
ATOM     10  N   UNL     1      44.612   5.147   9.527  0.00  0.00    +0.000 N 
ATOM     11  H   UNL     1      43.815   4.584   9.795  0.00  0.00    +0.000 HD
BRANCH   8  16
ATOM     12  C   UNL     1      44.805   2.193   8.388  0.00  0.00    +0.000 C 
ATOM     13  C   UNL     1      46.204   1.585   8.462  0.00  0.00    +0.000 C 
ATOM     14  C   UNL     1      47.001   2.219   7.322  0.00  0.00    +0.000 C 
ATOM     15  C   UNL     1      46.052   3.189   6.622  0.00  0.00    +0.000 C 
ATOM     16  C   UNL     1      44.998   3.548   7.673  0.00  0.00    +0.000 C 
BRANCH  12  18
ATOM     17  N   UNL     1      43.699   2.596  10.908  0.00  0.00    +0.000 NA
ATOM     18  C   UNL     1      44.200   2.413   9.765  0.00  0.00    +0.000 C 
ENDBRANCH  12  18
ENDBRANCH   8  16
ENDBRANCH   7  10
ENDBRANCH   1   7
BRANCH   4  19
ATOM     19  C   UNL     1      47.466   4.378  15.404  0.00  0.00    +0.000 C 
BRANCH  19  20
ATOM     20  N   UNL     1      47.531   5.422  16.396  0.00  0.00    +0.000 N 
ATOM     21  C   UNL     1      48.726   5.797  16.958  0.00  0.00    +0.000 C 
ATOM     22  O   UNL     1      49.794   5.305  16.610  0.00  0.00    +0.000 OA
ATOM     23  H   UNL     1      46.664   5.663  16.864  0.00  0.00    +0.000 HD
BRANCH  21  24
ATOM     24  C   UNL     1      48.669   6.872  17.958  0.00  0.00    +0.000 A 
ATOM     25  C   UNL     1      48.844   6.577  19.304  0.00  0.00    +0.000 A 
ATOM     26  S   UNL     1      48.807   7.949  20.317  0.00  0.00    +0.000 S 
ATOM     27  C   UNL     1      48.498   8.981  19.000  0.00  0.00    +0.000 A 
ATOM     28  N   UNL     1      48.331  10.319  19.183  0.00  0.00    +0.000 NA
ATOM     29  C   UNL     1      48.072  10.975  18.104  0.00  0.00    +0.000 A 
ATOM     30  N   UNL     1      47.970  10.419  16.854  0.00  0.00    +0.000 N 
ATOM     31  C   UNL     1      48.155   9.075  16.617  0.00  0.00    +0.000 A 
ATOM     32  O   UNL     1      48.090   8.614  15.484  0.00  0.00    +0.000 OA
ATOM     33  C   UNL     1      48.440   8.291  17.803  0.00  0.00    +0.000 A 
ATOM     34  H   UNL     1      47.769  10.988  16.048  0.00  0.00    +0.000 HD
ENDBRANCH  21  24
ENDBRANCH  19  20
ENDBRANCH   4  19
TORSDOF 7
ENDMDL
MODEL 3
REMARK VINA RESULT:    -6.961      3.492      8.426
REMARK INTER + INTRA:         -10.440
REMARK INTER:                 -10.156
REMARK INTRA:                  -0.284
REMARK UNBOUND:                -0.631
REMARK  Name = 
REMARK  7 active torsions:
REMARK  status: ('A' for Active; 'I' for Inactive)
REMARK    1  A    between atoms: C_2  and  C_3
REMARK    2  A    between atoms: C_7  and  C_8
REMARK    3  A    between atoms: N_10  and  C_11
REMARK    4  A    between atoms: C_11  and  C_12
REMARK    5  A    between atoms: C_15  and  C_16
REMARK    6  A    between atoms: C_16  and  N_17
REMARK    7  A    between atoms: C_18  and  C_20
REMARK                            x       y       z     vdW  Elec       q    Type
REMARK                         _______ _______ _______ _____ _____    ______ ____
ROOT
ATOM      1  C   UNL     1      44.695   4.667  10.809  0.00  0.00    +0.000 A 
ATOM      2  C   UNL     1      45.712   5.446  10.237  0.00  0.00    +0.000 A 
ATOM      3  C   UNL     1      46.376   6.425  10.989  0.00  0.00    +0.000 A 
ATOM      4  C   UNL     1      46.054   6.635  12.335  0.00  0.00    +0.000 A 
ATOM      5  C   UNL     1      45.026   5.870  12.903  0.00  0.00    +0.000 A 
ATOM      6  C   UNL     1      44.361   4.891  12.151  0.00  0.00    +0.000 A 
ENDROOT
BRANCH   1   7
ATOM      7  C   UNL     1      43.964   3.632   9.987  0.00  0.00    +0.000 C 
BRANCH   7  10
ATOM      8  C   UNL     1      45.339   2.574   8.255  0.00  0.00    +0.000 C 
ATOM      9  O   UNL     1      45.779   1.767   9.070  0.00  0.00    +0.000 OA
ATOM     10  N   UNL     1      44.432   3.552   8.613  0.00  0.00    +0.000 N 
ATOM     11  H   UNL     1      43.896   4.042   7.909  0.00  0.00    +0.000 HD
BRANCH   8  16
ATOM     12  C   UNL     1      46.947   1.630   6.429  0.00  0.00    +0.000 C 
ATOM     13  C   UNL     1      48.196   2.418   6.821  0.00  0.00    +0.000 C 
ATOM     14  C   UNL     1      47.797   3.893   6.772  0.00  0.00    +0.000 C 
ATOM     15  C   UNL     1      46.325   3.926   6.365  0.00  0.00    +0.000 C 
ATOM     16  C   UNL     1      45.765   2.561   6.773  0.00  0.00    +0.000 C 
BRANCH  12  18
ATOM     17  N   UNL     1      46.723  -0.756   7.841  0.00  0.00    +0.000 NA
ATOM     18  C   UNL     1      46.825   0.326   7.200  0.00  0.00    +0.000 C 
ENDBRANCH  12  18
ENDBRANCH   8  16
ENDBRANCH   7  10
ENDBRANCH   1   7
BRANCH   4  19
ATOM     19  C   UNL     1      46.778   7.675  13.159  0.00  0.00    +0.000 C 
BRANCH  19  20
ATOM     20  N   UNL     1      47.290   7.125  14.388  0.00  0.00    +0.000 N 
ATOM     21  C   UNL     1      48.604   6.740  14.504  0.00  0.00    +0.000 C 
ATOM     22  O   UNL     1      49.412   6.892  13.594  0.00  0.00    +0.000 OA
ATOM     23  H   UNL     1      46.609   6.770  15.050  0.00  0.00    +0.000 HD
BRANCH  21  24
ATOM     24  C   UNL     1      49.013   6.192  15.805  0.00  0.00    +0.000 A 
ATOM     25  C   UNL     1      50.062   6.774  16.504  0.00  0.00    +0.000 A 
ATOM     26  S   UNL     1      50.363   6.049  18.018  0.00  0.00    +0.000 S 
ATOM     27  C   UNL     1      49.138   4.894  17.770  0.00  0.00    +0.000 A 
ATOM     28  N   UNL     1      48.881   3.934  18.700  0.00  0.00    +0.000 NA
ATOM     29  C   UNL     1      47.950   3.107  18.367  0.00  0.00    +0.000 A 
ATOM     30  N   UNL     1      47.245   3.153  17.192  0.00  0.00    +0.000 N 
ATOM     31  C   UNL     1      47.453   4.118  16.233  0.00  0.00    +0.000 A 
ATOM     32  O   UNL     1      46.783   4.151  15.207  0.00  0.00    +0.000 OA
ATOM     33  C   UNL     1      48.499   5.069  16.556  0.00  0.00    +0.000 A 
ATOM     34  H   UNL     1      46.524   2.478  16.994  0.00  0.00    +0.000 HD
ENDBRANCH  21  24
ENDBRANCH  19  20
ENDBRANCH   4  19
TORSDOF 7
ENDMDL
MODEL 4
REMARK VINA RESULT:    -6.901      3.327      9.116
REMARK INTER + INTRA:         -10.357
REMARK INTER:                 -10.374
REMARK INTRA:                   0.018
REMARK UNBOUND:                -0.631
REMARK  Name = 
REMARK  7 active torsions:
REMARK  status: ('A' for Active; 'I' for Inactive)
REMARK    1  A    between atoms: C_2  and  C_3
REMARK    2  A    between atoms: C_7  and  C_8
REMARK    3  A    between atoms: N_10  and  C_11
REMARK    4  A    between atoms: C_11  and  C_12
REMARK    5  A    between atoms: C_15  and  C_16
REMARK    6  A    between atoms: C_16  and  N_17
REMARK    7  A    between atoms: C_18  and  C_20
REMARK                            x       y       z     vdW  Elec       q    Type
REMARK                         _______ _______ _______ _____ _____    ______ ____
ROOT
ATOM      1  C   UNL     1      45.840   5.635  11.820  0.00  0.00    +0.000 A 
ATOM      2  C   UNL     1      46.965   6.191  12.445  0.00  0.00    +0.000 A 
ATOM      3  C   UNL     1      47.425   5.695  13.673  0.00  0.00    +0.000 A 
ATOM      4  C   UNL     1      46.782   4.617  14.296  0.00  0.00    +0.000 A 
ATOM      5  C   UNL     1      45.647   4.072  13.681  0.00  0.00    +0.000 A 
ATOM      6  C   UNL     1      45.187   4.568  12.454  0.00  0.00    +0.000 A 
ENDROOT
BRANCH   1   7
ATOM      7  C   UNL     1      45.332   6.191  10.511  0.00  0.00    +0.000 C 
BRANCH   7  10
ATOM      8  C   UNL     1      45.681   4.743   8.564  0.00  0.00    +0.000 C 
ATOM      9  O   UNL     1      46.800   5.216   8.387  0.00  0.00    +0.000 OA
ATOM     10  N   UNL     1      44.863   5.166   9.593  0.00  0.00    +0.000 N 
ATOM     11  H   UNL     1      44.065   4.613   9.879  0.00  0.00    +0.000 HD
BRANCH   8  16
ATOM     12  C   UNL     1      44.766   2.307   8.350  0.00  0.00    +0.000 C 
ATOM     13  C   UNL     1      46.101   1.572   8.452  0.00  0.00    +0.000 C 
ATOM     14  C   UNL     1      46.981   2.138   7.338  0.00  0.00    +0.000 C 
ATOM     15  C   UNL     1      46.143   3.195   6.623  0.00  0.00    +0.000 C 
ATOM     16  C   UNL     1      45.101   3.643   7.651  0.00  0.00    +0.000 C 
BRANCH  12  18
ATOM     17  N   UNL     1      43.640   2.794  10.847  0.00  0.00    +0.000 NA
ATOM     18  C   UNL     1      44.151   2.573   9.714  0.00  0.00    +0.000 C 
ENDBRANCH  12  18
ENDBRANCH   8  16
ENDBRANCH   7  10
ENDBRANCH   1   7
BRANCH   4  19
ATOM     19  C   UNL     1      47.283   4.063  15.609  0.00  0.00    +0.000 C 
BRANCH  19  20
ATOM     20  N   UNL     1      47.790   5.100  16.471  0.00  0.00    +0.000 N 
ATOM     21  C   UNL     1      48.226   4.820  17.743  0.00  0.00    +0.000 C 
ATOM     22  O   UNL     1      48.255   3.677  18.186  0.00  0.00    +0.000 OA
ATOM     23  H   UNL     1      47.553   6.056  16.227  0.00  0.00    +0.000 HD
BRANCH  21  24
ATOM     24  C   UNL     1      48.721   5.958  18.531  0.00  0.00    +0.000 A 
ATOM     25  C   UNL     1      48.106   6.291  19.730  0.00  0.00    +0.000 A 
ATOM     26  S   UNL     1      48.845   7.597  20.540  0.00  0.00    +0.000 S 
ATOM     27  C   UNL     1      49.979   7.803  19.289  0.00  0.00    +0.000 A 
ATOM     28  N   UNL     1      50.913   8.791  19.345  0.00  0.00    +0.000 NA
ATOM     29  C   UNL     1      51.686   8.851  18.315  0.00  0.00    +0.000 A 
ATOM     30  N   UNL     1      51.619   8.009  17.234  0.00  0.00    +0.000 N 
ATOM     31  C   UNL     1      50.707   6.982  17.144  0.00  0.00    +0.000 A 
ATOM     32  O   UNL     1      50.694   6.226  16.179  0.00  0.00    +0.000 OA
ATOM     33  C   UNL     1      49.806   6.877  18.275  0.00  0.00    +0.000 A 
ATOM     34  H   UNL     1      52.257   8.106  16.462  0.00  0.00    +0.000 HD
ENDBRANCH  21  24
ENDBRANCH  19  20
ENDBRANCH   4  19
TORSDOF 7
ENDMDL
MODEL 5
REMARK VINA RESULT:    -6.844      1.448      2.088
REMARK INTER + INTRA:         -10.275
REMARK INTER:                  -9.572
REMARK INTRA:                  -0.703
REMARK UNBOUND:                -0.631
REMARK  Name = 
REMARK  7 active torsions:
REMARK  status: ('A' for Active; 'I' for Inactive)
REMARK    1  A    between atoms: C_2  and  C_3
REMARK    2  A    between atoms: C_7  and  C_8
REMARK    3  A    between atoms: N_10  and  C_11
REMARK    4  A    between atoms: C_11  and  C_12
REMARK    5  A    between atoms: C_15  and  C_16
REMARK    6  A    between atoms: C_16  and  N_17
REMARK    7  A    between atoms: C_18  and  C_20
REMARK                            x       y       z     vdW  Elec       q    Type
REMARK                         _______ _______ _______ _____ _____    ______ ____
ROOT
ATOM      1  C   UNL     1      50.121   7.543  15.355  0.00  0.00    +0.000 A 
ATOM      2  C   UNL     1      48.737   7.349  15.468  0.00  0.00    +0.000 A 
ATOM      3  C   UNL     1      47.905   7.429  14.342  0.00  0.00    +0.000 A 
ATOM      4  C   UNL     1      48.440   7.684  13.073  0.00  0.00    +0.000 A 
ATOM      5  C   UNL     1      49.820   7.896  12.961  0.00  0.00    +0.000 A 
ATOM      6  C   UNL     1      50.652   7.817  14.087  0.00  0.00    +0.000 A 
ENDROOT
BRANCH   1   7
ATOM      7  C   UNL     1      51.009   7.484  16.575  0.00  0.00    +0.000 C 
BRANCH   7  10
ATOM      8  C   UNL     1      50.595   5.428  17.845  0.00  0.00    +0.000 C 
ATOM      9  O   UNL     1      51.261   4.776  17.046  0.00  0.00    +0.000 OA
ATOM     10  N   UNL     1      50.401   6.788  17.696  0.00  0.00    +0.000 N 
ATOM     11  H   UNL     1      50.070   7.350  18.470  0.00  0.00    +0.000 HD
BRANCH   8  16
ATOM     12  C   UNL     1      48.620   4.003  18.784  0.00  0.00    +0.000 C 
ATOM     13  C   UNL     1      47.532   5.072  18.700  0.00  0.00    +0.000 C 
ATOM     14  C   UNL     1      48.044   6.261  19.512  0.00  0.00    +0.000 C 
ATOM     15  C   UNL     1      49.421   5.861  20.038  0.00  0.00    +0.000 C 
ATOM     16  C   UNL     1      49.921   4.783  19.073  0.00  0.00    +0.000 C 
BRANCH  12  18
ATOM     17  N   UNL     1      48.872   2.572  16.412  0.00  0.00    +0.000 NA
ATOM     18  C   UNL     1      48.758   3.221  17.488  0.00  0.00    +0.000 C 
ENDBRANCH  12  18
ENDBRANCH   8  16
ENDBRANCH   7  10
ENDBRANCH   1   7
BRANCH   4  19
ATOM     19  C   UNL     1      47.553   7.751  11.851  0.00  0.00    +0.000 C 
BRANCH  19  20
ATOM     20  N   UNL     1      46.858   6.510  11.623  0.00  0.00    +0.000 N 
ATOM     21  C   UNL     1      45.488   6.466  11.534  0.00  0.00    +0.000 C 
ATOM     22  O   UNL     1      44.797   7.479  11.590  0.00  0.00    +0.000 OA
ATOM     23  H   UNL     1      47.370   5.656  11.815  0.00  0.00    +0.000 HD
BRANCH  21  24
ATOM     24  C   UNL     1      44.889   5.144  11.300  0.00  0.00    +0.000 A 
ATOM     25  C   UNL     1      44.145   4.534  12.301  0.00  0.00    +0.000 A 
ATOM     26  S   UNL     1      43.476   3.034  11.840  0.00  0.00    +0.000 S 
ATOM     27  C   UNL     1      44.205   3.119  10.305  0.00  0.00    +0.000 A 
ATOM     28  N   UNL     1      44.050   2.116   9.399  0.00  0.00    +0.000 NA
ATOM     29  C   UNL     1      44.682   2.297   8.291  0.00  0.00    +0.000 A 
ATOM     30  N   UNL     1      45.454   3.393   7.999  0.00  0.00    +0.000 N 
ATOM     31  C   UNL     1      45.621   4.443   8.874  0.00  0.00    +0.000 A 
ATOM     32  O   UNL     1      46.290   5.424   8.570  0.00  0.00    +0.000 OA
ATOM     33  C   UNL     1      44.935   4.283  10.141  0.00  0.00    +0.000 A 
ATOM     34  H   UNL     1      45.919   3.477   7.110  0.00  0.00    +0.000 HD
ENDBRANCH  21  24
ENDBRANCH  19  20
ENDBRANCH   4  19
TORSDOF 7
ENDMDL
MODEL 6
REMARK VINA RESULT:    -6.801      3.285      9.058
REMARK INTER + INTRA:         -10.215
REMARK INTER:                 -10.066
REMARK INTRA:                  -0.149
REMARK UNBOUND:                -0.631
REMARK  Name = 
REMARK  7 active torsions:
REMARK  status: ('A' for Active; 'I' for Inactive)
REMARK    1  A    between atoms: C_2  and  C_3
REMARK    2  A    between atoms: C_7  and  C_8
REMARK    3  A    between atoms: N_10  and  C_11
REMARK    4  A    between atoms: C_11  and  C_12
REMARK    5  A    between atoms: C_15  and  C_16
REMARK    6  A    between atoms: C_16  and  N_17
REMARK    7  A    between atoms: C_18  and  C_20
REMARK                            x       y       z     vdW  Elec       q    Type
REMARK                         _______ _______ _______ _____ _____    ______ ____
ROOT
ATOM      1  C   UNL     1      45.742   5.709  11.825  0.00  0.00    +0.000 A 
ATOM      2  C   UNL     1      47.024   5.981  12.324  0.00  0.00    +0.000 A 
ATOM      3  C   UNL     1      47.418   5.515  13.586  0.00  0.00    +0.000 A 
ATOM      4  C   UNL     1      46.548   4.747  14.370  0.00  0.00    +0.000 A 
ATOM      5  C   UNL     1      45.260   4.489  13.880  0.00  0.00    +0.000 A 
ATOM      6  C   UNL     1      44.865   4.957  12.619  0.00  0.00    +0.000 A 
ENDROOT
BRANCH   1   7
ATOM      7  C   UNL     1      45.312   6.237  10.477  0.00  0.00    +0.000 C 
BRANCH   7  10
ATOM      8  C   UNL     1      45.655   4.733   8.572  0.00  0.00    +0.000 C 
ATOM      9  O   UNL     1      46.787   5.176   8.400  0.00  0.00    +0.000 OA
ATOM     10  N   UNL     1      44.832   5.201   9.578  0.00  0.00    +0.000 N 
ATOM     11  H   UNL     1      44.018   4.674   9.866  0.00  0.00    +0.000 HD
BRANCH   8  16
ATOM     12  C   UNL     1      44.770   2.283   8.388  0.00  0.00    +0.000 C 
ATOM     13  C   UNL     1      46.119   1.569   8.447  0.00  0.00    +0.000 C 
ATOM     14  C   UNL     1      46.954   2.147   7.304  0.00  0.00    +0.000 C 
ATOM     15  C   UNL     1      46.076   3.191   6.617  0.00  0.00    +0.000 C 
ATOM     16  C   UNL     1      45.062   3.624   7.679  0.00  0.00    +0.000 C 
BRANCH  12  18
ATOM     17  N   UNL     1      43.719   2.754  10.920  0.00  0.00    +0.000 NA
ATOM     18  C   UNL     1      44.196   2.541   9.772  0.00  0.00    +0.000 C 
ENDBRANCH  12  18
ENDBRANCH   8  16
ENDBRANCH   7  10
ENDBRANCH   1   7
BRANCH   4  19
ATOM     19  C   UNL     1      46.972   4.223  15.722  0.00  0.00    +0.000 C 
BRANCH  19  20
ATOM     20  N   UNL     1      48.341   4.557  16.022  0.00  0.00    +0.000 N 
ATOM     21  C   UNL     1      48.774   4.691  17.319  0.00  0.00    +0.000 C 
ATOM     22  O   UNL     1      48.037   4.485  18.278  0.00  0.00    +0.000 OA
ATOM     23  H   UNL     1      48.889   4.963  15.271  0.00  0.00    +0.000 HD
BRANCH  21  24
ATOM     24  C   UNL     1      50.191   5.035  17.503  0.00  0.00    +0.000 A 
ATOM     25  C   UNL     1      50.579   6.367  17.560  0.00  0.00    +0.000 A 
ATOM     26  S   UNL     1      52.249   6.583  17.837  0.00  0.00    +0.000 S 
ATOM     27  C   UNL     1      52.522   4.903  17.833  0.00  0.00    +0.000 A 
ATOM     28  N   UNL     1      53.774   4.396  17.999  0.00  0.00    +0.000 NA
ATOM     29  C   UNL     1      53.839   3.110  17.943  0.00  0.00    +0.000 A 
ATOM     30  N   UNL     1      52.766   2.279  17.742  0.00  0.00    +0.000 N 
ATOM     31  C   UNL     1      51.479   2.744  17.593  0.00  0.00    +0.000 A 
ATOM     32  O   UNL     1      50.537   1.974  17.448  0.00  0.00    +0.000 OA
ATOM     33  C   UNL     1      51.354   4.188  17.640  0.00  0.00    +0.000 A 
ATOM     34  H   UNL     1      52.884   1.280  17.713  0.00  0.00    +0.000 HD
ENDBRANCH  21  24
ENDBRANCH  19  20
ENDBRANCH   4  19
TORSDOF 7
ENDMDL
MODEL 7
REMARK VINA RESULT:    -6.524      3.215      7.914
REMARK INTER + INTRA:          -9.825
REMARK INTER:                  -9.074
REMARK INTRA:                  -0.750
REMARK UNBOUND:                -0.631
REMARK  Name = 
REMARK  7 active torsions:
REMARK  status: ('A' for Active; 'I' for Inactive)
REMARK    1  A    between atoms: C_2  and  C_3
REMARK    2  A    between atoms: C_7  and  C_8
REMARK    3  A    between atoms: N_10  and  C_11
REMARK    4  A    between atoms: C_11  and  C_12
REMARK    5  A    between atoms: C_15  and  C_16
REMARK    6  A    between atoms: C_16  and  N_17
REMARK    7  A    between atoms: C_18  and  C_20
REMARK                            x       y       z     vdW  Elec       q    Type
REMARK                         _______ _______ _______ _____ _____    ______ ____
ROOT
ATOM      1  C   UNL     1      47.840   7.931  13.582  0.00  0.00    +0.000 A 
ATOM      2  C   UNL     1      48.974   7.121  13.740  0.00  0.00    +0.000 A 
ATOM      3  C   UNL     1      49.810   7.264  14.856  0.00  0.00    +0.000 A 
ATOM      4  C   UNL     1      49.522   8.207  15.851  0.00  0.00    +0.000 A 
ATOM      5  C   UNL     1      48.399   9.029  15.686  0.00  0.00    +0.000 A 
ATOM      6  C   UNL     1      47.563   8.887  14.569  0.00  0.00    +0.000 A 
ENDROOT
BRANCH   1   7
ATOM      7  C   UNL     1      46.958   7.791  12.364  0.00  0.00    +0.000 C 
BRANCH   7  10
ATOM      8  C   UNL     1      45.543   5.953  11.573  0.00  0.00    +0.000 C 
ATOM      9  O   UNL     1      46.173   5.894  10.520  0.00  0.00    +0.000 OA
ATOM     10  N   UNL     1      45.850   6.870  12.558  0.00  0.00    +0.000 N 
ATOM     11  H   UNL     1      45.501   6.753  13.500  0.00  0.00    +0.000 HD
BRANCH   8  16
ATOM     12  C   UNL     1      44.736   3.536  12.142  0.00  0.00    +0.000 C 
ATOM     13  C   UNL     1      44.920   2.922  10.755  0.00  0.00    +0.000 C 
ATOM     14  C   UNL     1      44.090   3.779   9.800  0.00  0.00    +0.000 C 
ATOM     15  C   UNL     1      43.454   4.876  10.650  0.00  0.00    +0.000 C 
ATOM     16  C   UNL     1      44.360   5.010  11.876  0.00  0.00    +0.000 C 
BRANCH  12  18
ATOM     17  N   UNL     1      47.058   3.405  13.667  0.00  0.00    +0.000 NA
ATOM     18  C   UNL     1      46.005   3.464  12.975  0.00  0.00    +0.000 C 
ENDBRANCH  12  18
ENDBRANCH   8  16
ENDBRANCH   7  10
ENDBRANCH   1   7
BRANCH   4  19
ATOM     19  C   UNL     1      50.406   8.354  17.067  0.00  0.00    +0.000 C 
BRANCH  19  20
ATOM     20  N   UNL     1      51.205   7.177  17.296  0.00  0.00    +0.000 N 
ATOM     21  C   UNL     1      50.825   6.224  18.209  0.00  0.00    +0.000 C 
ATOM     22  O   UNL     1      49.771   6.301  18.832  0.00  0.00    +0.000 OA
ATOM     23  H   UNL     1      52.170   7.211  16.987  0.00  0.00    +0.000 HD
BRANCH  21  24
ATOM     24  C   UNL     1      51.719   5.067  18.358  0.00  0.00    +0.000 A 
ATOM     25  C   UNL     1      52.973   5.229  18.932  0.00  0.00    +0.000 A 
ATOM     26  S   UNL     1      53.852   3.775  19.080  0.00  0.00    +0.000 S 
ATOM     27  C   UNL     1      52.611   2.884  18.331  0.00  0.00    +0.000 A 
ATOM     28  N   UNL     1      52.737   1.546  18.120  0.00  0.00    +0.000 NA
ATOM     29  C   UNL     1      51.736   1.006  17.515  0.00  0.00    +0.000 A 
ATOM     30  N   UNL     1      50.613   1.678  17.104  0.00  0.00    +0.000 N 
ATOM     31  C   UNL     1      50.430   3.025  17.316  0.00  0.00    +0.000 A 
ATOM     32  O   UNL     1      49.401   3.590  16.966  0.00  0.00    +0.000 OA
ATOM     33  C   UNL     1      51.535   3.683  17.987  0.00  0.00    +0.000 A 
ATOM     34  H   UNL     1      49.861   1.195  16.639  0.00  0.00    +0.000 HD
ENDBRANCH  21  24
ENDBRANCH  19  20
ENDBRANCH   4  19
TORSDOF 7
ENDMDL
MODEL 8
REMARK VINA RESULT:    -6.341      3.057      4.389
REMARK INTER + INTRA:          -9.568
REMARK INTER:                  -9.082
REMARK INTRA:                  -0.486
REMARK UNBOUND:                -0.631
REMARK  Name = 
REMARK  7 active torsions:
REMARK  status: ('A' for Active; 'I' for Inactive)
REMARK    1  A    between atoms: C_2  and  C_3
REMARK    2  A    between atoms: C_7  and  C_8
REMARK    3  A    between atoms: N_10  and  C_11
REMARK    4  A    between atoms: C_11  and  C_12
REMARK    5  A    between atoms: C_15  and  C_16
REMARK    6  A    between atoms: C_16  and  N_17
REMARK    7  A    between atoms: C_18  and  C_20
REMARK                            x       y       z     vdW  Elec       q    Type
REMARK                         _______ _______ _______ _____ _____    ______ ____
ROOT
ATOM      1  C   UNL     1      47.548   6.361  14.018  0.00  0.00    +0.000 A 
ATOM      2  C   UNL     1      47.182   5.112  14.538  0.00  0.00    +0.000 A 
ATOM      3  C   UNL     1      46.236   4.310  13.884  0.00  0.00    +0.000 A 
ATOM      4  C   UNL     1      45.648   4.729  12.684  0.00  0.00    +0.000 A 
ATOM      5  C   UNL     1      46.000   5.986  12.172  0.00  0.00    +0.000 A 
ATOM      6  C   UNL     1      46.945   6.788  12.826  0.00  0.00    +0.000 A 
ENDROOT
BRANCH   1   7
ATOM      7  C   UNL     1      48.547   7.234  14.740  0.00  0.00    +0.000 C 
BRANCH   7  10
ATOM      8  C   UNL     1      49.818   6.453  16.685  0.00  0.00    +0.000 C 
ATOM      9  O   UNL     1      50.800   6.233  15.981  0.00  0.00    +0.000 OA
ATOM     10  N   UNL     1      48.639   6.947  16.162  0.00  0.00    +0.000 N 
ATOM     11  H   UNL     1      47.936   7.352  16.766  0.00  0.00    +0.000 HD
BRANCH   8  16
ATOM     12  C   UNL     1      49.154   4.877  18.658  0.00  0.00    +0.000 C 
ATOM     13  C   UNL     1      47.658   5.182  18.675  0.00  0.00    +0.000 C 
ATOM     14  C   UNL     1      47.537   6.695  18.857  0.00  0.00    +0.000 C 
ATOM     15  C   UNL     1      48.964   7.234  18.930  0.00  0.00    +0.000 C 
ATOM     16  C   UNL     1      49.823   6.193  18.206  0.00  0.00    +0.000 C 
BRANCH  12  18
ATOM     17  N   UNL     1      49.790   2.829  16.885  0.00  0.00    +0.000 NA
ATOM     18  C   UNL     1      49.502   3.758  17.689  0.00  0.00    +0.000 C 
ENDBRANCH  12  18
ENDBRANCH   8  16
ENDBRANCH   7  10
ENDBRANCH   1   7
BRANCH   4  19
ATOM     19  C   UNL     1      44.643   3.863  11.962  0.00  0.00    +0.000 C 
BRANCH  19  20
ATOM     20  N   UNL     1      45.267   3.039  10.958  0.00  0.00    +0.000 N 
ATOM     21  C   UNL     1      44.851   3.071   9.650  0.00  0.00    +0.000 C 
ATOM     22  O   UNL     1      43.972   3.834   9.263  0.00  0.00    +0.000 OA
ATOM     23  H   UNL     1      45.809   2.247  11.287  0.00  0.00    +0.000 HD
BRANCH  21  24
ATOM     24  C   UNL     1      45.561   2.187   8.715  0.00  0.00    +0.000 A 
ATOM     25  C   UNL     1      45.422   0.809   8.822  0.00  0.00    +0.000 A 
ATOM     26  S   UNL     1      46.267  -0.061   7.623  0.00  0.00    +0.000 S 
ATOM     27  C   UNL     1      46.897   1.370   6.951  0.00  0.00    +0.000 A 
ATOM     28  N   UNL     1      47.738   1.331   5.882  0.00  0.00    +0.000 NA
ATOM     29  C   UNL     1      48.163   2.486   5.498  0.00  0.00    +0.000 A 
ATOM     30  N   UNL     1      47.821   3.680   6.079  0.00  0.00    +0.000 N 
ATOM     31  C   UNL     1      46.956   3.771   7.146  0.00  0.00    +0.000 A 
ATOM     32  O   UNL     1      46.644   4.856   7.622  0.00  0.00    +0.000 OA
ATOM     33  C   UNL     1      46.455   2.496   7.623  0.00  0.00    +0.000 A 
ATOM     34  H   UNL     1      48.185   4.551   5.727  0.00  0.00    +0.000 HD
ENDBRANCH  21  24
ENDBRANCH  19  20
ENDBRANCH   4  19
TORSDOF 7
ENDMDL
MODEL 9
REMARK VINA RESULT:    -6.268      3.396      7.580
REMARK INTER + INTRA:          -9.464
REMARK INTER:                  -8.334
REMARK INTRA:                  -1.130
REMARK UNBOUND:                -0.631
REMARK  Name = 
REMARK  7 active torsions:
REMARK  status: ('A' for Active; 'I' for Inactive)
REMARK    1  A    between atoms: C_2  and  C_3
REMARK    2  A    between atoms: C_7  and  C_8
REMARK    3  A    between atoms: N_10  and  C_11
REMARK    4  A    between atoms: C_11  and  C_12
REMARK    5  A    between atoms: C_15  and  C_16
REMARK    6  A    between atoms: C_16  and  N_17
REMARK    7  A    between atoms: C_18  and  C_20
REMARK                            x       y       z     vdW  Elec       q    Type
REMARK                         _______ _______ _______ _____ _____    ______ ____
ROOT
ATOM      1  C   UNL     1      47.307   8.808  12.387  0.00  0.00    +0.000 A 
ATOM      2  C   UNL     1      48.095   7.829  11.765  0.00  0.00    +0.000 A 
ATOM      3  C   UNL     1      49.484   7.800  11.951  0.00  0.00    +0.000 A 
ATOM      4  C   UNL     1      50.116   8.735  12.780  0.00  0.00    +0.000 A 
ATOM      5  C   UNL     1      49.332   9.724  13.389  0.00  0.00    +0.000 A 
ATOM      6  C   UNL     1      47.943   9.754  13.202  0.00  0.00    +0.000 A 
ENDROOT
BRANCH   1   7
ATOM      7  C   UNL     1      45.814   8.853  12.162  0.00  0.00    +0.000 C 
BRANCH   7  10
ATOM      8  C   UNL     1      44.732   6.654  12.105  0.00  0.00    +0.000 C 
ATOM      9  O   UNL     1      44.980   6.540  10.907  0.00  0.00    +0.000 OA
ATOM     10  N   UNL     1      45.099   7.774  12.824  0.00  0.00    +0.000 N 
ATOM     11  H   UNL     1      45.115   7.757  13.835  0.00  0.00    +0.000 HD
BRANCH   8  16
ATOM     12  C   UNL     1      44.787   4.261  13.147  0.00  0.00    +0.000 C 
ATOM     13  C   UNL     1      44.657   3.465  11.850  0.00  0.00    +0.000 C 
ATOM     14  C   UNL     1      43.373   3.956  11.180  0.00  0.00    +0.000 C 
ATOM     15  C   UNL     1      42.796   5.033  12.096  0.00  0.00    +0.000 C 
ATOM     16  C   UNL     1      43.989   5.559  12.898  0.00  0.00    +0.000 C 
BRANCH  12  18
ATOM     17  N   UNL     1      47.434   4.871  13.744  0.00  0.00    +0.000 NA
ATOM     18  C   UNL     1      46.234   4.594  13.473  0.00  0.00    +0.000 C 
ENDBRANCH  12  18
ENDBRANCH   8  16
ENDBRANCH   7  10
ENDBRANCH   1   7
BRANCH   4  19
ATOM     19  C   UNL     1      51.610   8.697  13.002  0.00  0.00    +0.000 C 
BRANCH  19  20
ATOM     20  N   UNL     1      51.981   7.724  13.998  0.00  0.00    +0.000 N 
ATOM     21  C   UNL     1      52.472   8.107  15.221  0.00  0.00    +0.000 C 
ATOM     22  O   UNL     1      52.571   9.286  15.545  0.00  0.00    +0.000 OA
ATOM     23  H   UNL     1      52.138   6.775  13.675  0.00  0.00    +0.000 HD
BRANCH  21  24
ATOM     24  C   UNL     1      52.818   7.027  16.156  0.00  0.00    +0.000 A 
ATOM     25  C   UNL     1      54.137   6.844  16.548  0.00  0.00    +0.000 A 
ATOM     26  S   UNL     1      54.348   5.585  17.680  0.00  0.00    +0.000 S 
ATOM     27  C   UNL     1      52.691   5.200  17.643  0.00  0.00    +0.000 A 
ATOM     28  N   UNL     1      52.193   4.174  18.385  0.00  0.00    +0.000 NA
ATOM     29  C   UNL     1      50.928   3.975  18.236  0.00  0.00    +0.000 A 
ATOM     30  N   UNL     1      50.110   4.710  17.416  0.00  0.00    +0.000 N 
ATOM     31  C   UNL     1      50.564   5.771  16.665  0.00  0.00    +0.000 A 
ATOM     32  O   UNL     1      49.801   6.429  15.968  0.00  0.00    +0.000 OA
ATOM     33  C   UNL     1      51.985   6.031  16.791  0.00  0.00    +0.000 A 
ATOM     34  H   UNL     1      49.127   4.505  17.348  0.00  0.00    +0.000 HD
ENDBRANCH  21  24
ENDBRANCH  19  20
ENDBRANCH   4  19
TORSDOF 7
ENDMDL
