MODEL 1
REMARK VINA RESULT:    -8.048      0.000      0.000
REMARK INTER + INTRA:         -12.424
REMARK INTER:                 -11.341
REMARK INTRA:                  -1.083
REMARK UNBOUND:                -1.083
REMARK  Name = 
REMARK  8 active torsions:
REMARK  status: ('A' for Active; 'I' for Inactive)
REMARK    1  A    between atoms: C_1  and  C_2
REMARK    2  A    between atoms: C_2  and  N_3
REMARK    3  A    between atoms: C_2  and  C_25
REMARK    4  A    between atoms: N_3  and  C_4
REMARK    5  A    between atoms: C_4  and  C_5
REMARK    6  A    between atoms: C_8  and  C_9
REMARK    7  A    between atoms: C_9  and  N_10
REMARK    8  A    between atoms: C_11  and  C_13
REMARK                            x       y       z     vdW  Elec       q    Type
REMARK                         _______ _______ _______ _____ _____    ______ ____
ROOT
ATOM      1  C   UNL     1      43.762   6.300  11.739  0.00  0.00    +0.000 C 
ATOM      2  C   UNL     1      44.309   5.872  13.114  0.00  0.00    +0.000 C 
ATOM      3  C   UNL     1      45.588   5.046  13.008  0.00  0.00    +0.000 C 
ATOM      4  C   UNL     1      46.695   5.778  12.232  0.00  0.00    +0.000 C 
ATOM      5  C   UNL     1      46.175   6.217  10.855  0.00  0.00    +0.000 C 
ATOM      6  C   UNL     1      44.867   7.006  10.930  0.00  0.00    +0.000 C 
ENDROOT
BRANCH   1   7
ATOM      7  C   UNL     1      43.112   5.141  10.938  0.00  0.00    +0.000 C 
BRANCH   7   8
ATOM      8  N   UNL     1      44.020   4.710   9.874  0.00  0.00    +0.000 NA
ATOM      9  H   UNL     1      43.704   5.100   8.986  0.00  0.00    +0.000 HD
BRANCH   8  11
ATOM     10  C   UNL     1      44.289   2.460  10.965  0.00  0.00    +0.000 C 
ATOM     11  C   UNL     1      44.106   3.251   9.666  0.00  0.00    +0.000 C 
BRANCH  11  12
ATOM     12  C   UNL     1      45.266   2.946   8.709  0.00  0.00    +0.000 A 
ATOM     13  C   UNL     1      45.801   3.955   7.902  0.00  0.00    +0.000 A 
ATOM     14  C   UNL     1      46.822   3.642   7.010  0.00  0.00    +0.000 A 
ATOM     15  C   UNL     1      47.282   2.335   6.937  0.00  0.00    +0.000 A 
ATOM     16  C   UNL     1      46.698   1.392   7.764  0.00  0.00    +0.000 A 
ATOM     17  N   UNL     1      45.704   1.662   8.642  0.00  0.00    +0.000 NA
ENDBRANCH  11  12
ENDBRANCH   8  11
ENDBRANCH   7   8
ENDBRANCH   1   7
BRANCH   4  18
ATOM     18  C   UNL     1      47.273   6.980  13.001  0.00  0.00    +0.000 C 
BRANCH  18  19
ATOM     19  N   UNL     1      47.518   6.674  14.391  0.00  0.00    +0.000 N 
ATOM     20  C   UNL     1      48.791   6.675  14.905  0.00  0.00    +0.000 C 
ATOM     21  O   UNL     1      49.768   6.983  14.225  0.00  0.00    +0.000 OA
ATOM     22  H   UNL     1      46.783   6.195  14.905  0.00  0.00    +0.000 HD
BRANCH  20  23
ATOM     23  C   UNL     1      48.924   6.337  16.325  0.00  0.00    +0.000 A 
ATOM     24  C   UNL     1      49.440   7.281  17.203  0.00  0.00    +0.000 A 
ATOM     25  S   UNL     1      49.522   6.740  18.817  0.00  0.00    +0.000 S 
ATOM     26  C   UNL     1      48.911   5.209  18.391  0.00  0.00    +0.000 A 
ATOM     27  N   UNL     1      48.766   4.233  19.327  0.00  0.00    +0.000 NA
ATOM     28  C   UNL     1      48.319   3.114  18.862  0.00  0.00    +0.000 A 
ATOM     29  N   UNL     1      47.993   2.886  17.550  0.00  0.00    +0.000 N 
ATOM     30  C   UNL     1      48.079   3.855  16.579  0.00  0.00    +0.000 A 
ATOM     31  O   UNL     1      47.703   3.643  15.433  0.00  0.00    +0.000 OA
ATOM     32  C   UNL     1      48.613   5.124  17.043  0.00  0.00    +0.000 A 
ATOM     33  H   UNL     1      47.630   1.991  17.257  0.00  0.00    +0.000 HD
ENDBRANCH  20  23
ENDBRANCH  18  19
ENDBRANCH   4  18
TORSDOF 7
ENDMDL
MODEL 2
REMARK VINA RESULT:    -7.799      2.229      2.724
REMARK INTER + INTRA:         -12.074
REMARK INTER:                 -11.335
REMARK INTRA:                  -0.739
REMARK UNBOUND:                -1.083
REMARK  Name = 
REMARK  8 active torsions:
REMARK  status: ('A' for Active; 'I' for Inactive)
REMARK    1  A    between atoms: C_1  and  C_2
REMARK    2  A    between atoms: C_2  and  N_3
REMARK    3  A    between atoms: C_2  and  C_25
REMARK    4  A    between atoms: N_3  and  C_4
REMARK    5  A    between atoms: C_4  and  C_5
REMARK    6  A    between atoms: C_8  and  C_9
REMARK    7  A    between atoms: C_9  and  N_10
REMARK    8  A    between atoms: C_11  and  C_13
REMARK                            x       y       z     vdW  Elec       q    Type
REMARK                         _______ _______ _______ _____ _____    ______ ____
ROOT
ATOM      1  C   UNL     1      45.370   6.575  12.698  0.00  0.00    +0.000 C 
ATOM      2  C   UNL     1      45.957   5.381  13.476  0.00  0.00    +0.000 C 
ATOM      3  C   UNL     1      47.471   5.265  13.320  0.00  0.00    +0.000 C 
ATOM      4  C   UNL     1      48.203   6.550  13.741  0.00  0.00    +0.000 C 
ATOM      5  C   UNL     1      47.636   7.757  12.979  0.00  0.00    +0.000 C 
ATOM      6  C   UNL     1      46.113   7.868  13.080  0.00  0.00    +0.000 C 
ENDROOT
BRANCH   1   7
ATOM      7  C   UNL     1      45.335   6.361  11.162  0.00  0.00    +0.000 C 
BRANCH   7   8
ATOM      8  N   UNL     1      45.628   4.960  10.855  0.00  0.00    +0.000 NA
ATOM      9  H   UNL     1      46.519   4.906  10.361  0.00  0.00    +0.000 HD
BRANCH   8  11
ATOM     10  C   UNL     1      43.712   3.336  10.752  0.00  0.00    +0.000 C 
ATOM     11  C   UNL     1      44.645   4.281   9.989  0.00  0.00    +0.000 C 
BRANCH  11  12
ATOM     12  C   UNL     1      45.388   3.502   8.897  0.00  0.00    +0.000 A 
ATOM     13  C   UNL     1      45.536   2.115   8.993  0.00  0.00    +0.000 A 
ATOM     14  C   UNL     1      46.254   1.437   8.013  0.00  0.00    +0.000 A 
ATOM     15  C   UNL     1      46.812   2.154   6.964  0.00  0.00    +0.000 A 
ATOM     16  C   UNL     1      46.627   3.525   6.940  0.00  0.00    +0.000 A 
ATOM     17  N   UNL     1      45.935   4.214   7.878  0.00  0.00    +0.000 NA
ENDBRANCH  11  12
ENDBRANCH   8  11
ENDBRANCH   7   8
ENDBRANCH   1   7
BRANCH   4  18
ATOM     18  C   UNL     1      48.157   6.797  15.260  0.00  0.00    +0.000 C 
BRANCH  18  19
ATOM     19  N   UNL     1      49.262   6.173  15.950  0.00  0.00    +0.000 N 
ATOM     20  C   UNL     1      49.058   5.133  16.821  0.00  0.00    +0.000 C 
ATOM     21  O   UNL     1      47.943   4.655  17.017  0.00  0.00    +0.000 OA
ATOM     22  H   UNL     1      50.140   6.684  15.993  0.00  0.00    +0.000 HD
BRANCH  20  23
ATOM     23  C   UNL     1      50.250   4.583  17.475  0.00  0.00    +0.000 A 
ATOM     24  C   UNL     1      51.049   5.418  18.244  0.00  0.00    +0.000 A 
ATOM     25  S   UNL     1      52.388   4.628  18.943  0.00  0.00    +0.000 S 
ATOM     26  C   UNL     1      51.970   3.152  18.206  0.00  0.00    +0.000 A 
ATOM     27  N   UNL     1      52.746   2.047  18.370  0.00  0.00    +0.000 NA
ATOM     28  C   UNL     1      52.328   1.004  17.734  0.00  0.00    +0.000 A 
ATOM     29  N   UNL     1      51.198   0.962  16.959  0.00  0.00    +0.000 N 
ATOM     30  C   UNL     1      50.358   2.038  16.802  0.00  0.00    +0.000 A 
ATOM     31  O   UNL     1      49.314   1.944  16.169  0.00  0.00    +0.000 OA
ATOM     32  C   UNL     1      50.804   3.250  17.468  0.00  0.00    +0.000 A 
ATOM     33  H   UNL     1      50.917   0.106  16.504  0.00  0.00    +0.000 HD
ENDBRANCH  20  23
ENDBRANCH  18  19
ENDBRANCH   4  18
TORSDOF 7
ENDMDL
MODEL 3
REMARK VINA RESULT:    -7.348      3.032      8.186
REMARK INTER + INTRA:         -11.438
REMARK INTER:                 -10.207
REMARK INTRA:                  -1.230
REMARK UNBOUND:                -1.083
REMARK  Name = 
REMARK  8 active torsions:
REMARK  status: ('A' for Active; 'I' for Inactive)
REMARK    1  A    between atoms: C_1  and  C_2
REMARK    2  A    between atoms: C_2  and  N_3
REMARK    3  A    between atoms: C_2  and  C_25
REMARK    4  A    between atoms: N_3  and  C_4
REMARK    5  A    between atoms: C_4  and  C_5
REMARK    6  A    between atoms: C_8  and  C_9
REMARK    7  A    between atoms: C_9  and  N_10
REMARK    8  A    between atoms: C_11  and  C_13
REMARK                            x       y       z     vdW  Elec       q    Type
REMARK                         _______ _______ _______ _____ _____    ______ ____
ROOT
ATOM      1  C   UNL     1      48.588   8.014  15.186  0.00  0.00    +0.000 C 
ATOM      2  C   UNL     1      48.301   9.282  14.359  0.00  0.00    +0.000 C 
ATOM      3  C   UNL     1      48.945   9.240  12.976  0.00  0.00    +0.000 C 
ATOM      4  C   UNL     1      48.517   8.003  12.168  0.00  0.00    +0.000 C 
ATOM      5  C   UNL     1      48.792   6.724  12.972  0.00  0.00    +0.000 C 
ATOM      6  C   UNL     1      48.198   6.761  14.381  0.00  0.00    +0.000 C 
ENDROOT
BRANCH   1   7
ATOM      7  C   UNL     1      50.044   7.931  15.714  0.00  0.00    +0.000 C 
BRANCH   7   8
ATOM      8  N   UNL     1      50.478   6.533  15.740  0.00  0.00    +0.000 NA
ATOM      9  H   UNL     1      49.820   5.969  15.202  0.00  0.00    +0.000 HD
BRANCH   8  11
ATOM     10  C   UNL     1      51.898   5.266  17.383  0.00  0.00    +0.000 C 
ATOM     11  C   UNL     1      50.543   5.913  17.077  0.00  0.00    +0.000 C 
BRANCH  11  12
ATOM     12  C   UNL     1      49.430   4.865  17.202  0.00  0.00    +0.000 A 
ATOM     13  C   UNL     1      48.156   5.235  17.642  0.00  0.00    +0.000 A 
ATOM     14  C   UNL     1      47.177   4.258  17.790  0.00  0.00    +0.000 A 
ATOM     15  C   UNL     1      47.489   2.936  17.503  0.00  0.00    +0.000 A 
ATOM     16  C   UNL     1      48.774   2.648  17.078  0.00  0.00    +0.000 A 
ATOM     17  N   UNL     1      49.749   3.574  16.924  0.00  0.00    +0.000 NA
ENDBRANCH  11  12
ENDBRANCH   8  11
ENDBRANCH   7   8
ENDBRANCH   1   7
BRANCH   4  18
ATOM     18  C   UNL     1      47.044   8.058  11.723  0.00  0.00    +0.000 C 
BRANCH  18  19
ATOM     19  N   UNL     1      46.493   6.742  11.496  0.00  0.00    +0.000 N 
ATOM     20  C   UNL     1      45.138   6.549  11.391  0.00  0.00    +0.000 C 
ATOM     21  O   UNL     1      44.340   7.483  11.436  0.00  0.00    +0.000 OA
ATOM     22  H   UNL     1      47.089   5.942  11.688  0.00  0.00    +0.000 HD
BRANCH  20  23
ATOM     23  C   UNL     1      44.688   5.171  11.173  0.00  0.00    +0.000 A 
ATOM     24  C   UNL     1      43.902   4.551  12.134  0.00  0.00    +0.000 A 
ATOM     25  S   UNL     1      43.454   2.958  11.729  0.00  0.00    +0.000 S 
ATOM     26  C   UNL     1      44.332   3.025  10.272  0.00  0.00    +0.000 A 
ATOM     27  N   UNL     1      44.396   1.945   9.447  0.00  0.00    +0.000 NA
ATOM     28  C   UNL     1      45.118   2.125   8.392  0.00  0.00    +0.000 A 
ATOM     29  N   UNL     1      45.772   3.289   8.080  0.00  0.00    +0.000 N 
ATOM     30  C   UNL     1      45.698   4.419   8.858  0.00  0.00    +0.000 A 
ATOM     31  O   UNL     1      46.227   5.468   8.509  0.00  0.00    +0.000 OA
ATOM     32  C   UNL     1      44.927   4.259  10.079  0.00  0.00    +0.000 A 
ATOM     33  H   UNL     1      46.304   3.368   7.226  0.00  0.00    +0.000 HD
ENDBRANCH  20  23
ENDBRANCH  18  19
ENDBRANCH   4  18
TORSDOF 7
ENDMDL
MODEL 4
REMARK VINA RESULT:    -7.107      1.877      2.639
REMARK INTER + INTRA:         -11.099
REMARK INTER:                 -10.358
REMARK INTRA:                  -0.741
REMARK UNBOUND:                -1.083
REMARK  Name = 
REMARK  8 active torsions:
REMARK  status: ('A' for Active; 'I' for Inactive)
REMARK    1  A    between atoms: C_1  and  C_2
REMARK    2  A    between atoms: C_2  and  N_3
REMARK    3  A    between atoms: C_2  and  C_25
REMARK    4  A    between atoms: N_3  and  C_4
REMARK    5  A    between atoms: C_4  and  C_5
REMARK    6  A    between atoms: C_8  and  C_9
REMARK    7  A    between atoms: C_9  and  N_10
REMARK    8  A    between atoms: C_11  and  C_13
REMARK                            x       y       z     vdW  Elec       q    Type
REMARK                         _______ _______ _______ _____ _____    ______ ____
ROOT
ATOM      1  C   UNL     1      45.697   6.532  12.002  0.00  0.00    +0.000 C 
ATOM      2  C   UNL     1      46.175   5.847  13.297  0.00  0.00    +0.000 C 
ATOM      3  C   UNL     1      47.674   5.558  13.291  0.00  0.00    +0.000 C 
ATOM      4  C   UNL     1      48.514   6.823  13.050  0.00  0.00    +0.000 C 
ATOM      5  C   UNL     1      48.056   7.526  11.764  0.00  0.00    +0.000 C 
ATOM      6  C   UNL     1      46.549   7.785  11.724  0.00  0.00    +0.000 C 
ENDROOT
BRANCH   1   7
ATOM      7  C   UNL     1      45.650   5.582  10.776  0.00  0.00    +0.000 C 
BRANCH   7   8
ATOM      8  N   UNL     1      44.282   5.518  10.258  0.00  0.00    +0.000 NA
ATOM      9  H   UNL     1      43.641   5.890  10.958  0.00  0.00    +0.000 HD
BRANCH   8  11
ATOM     10  C   UNL     1      43.576   3.285  11.172  0.00  0.00    +0.000 C 
ATOM     11  C   UNL     1      43.789   4.165   9.936  0.00  0.00    +0.000 C 
BRANCH  11  12
ATOM     12  C   UNL     1      44.775   3.482   8.980  0.00  0.00    +0.000 A 
ATOM     13  C   UNL     1      45.118   2.139   9.157  0.00  0.00    +0.000 A 
ATOM     14  C   UNL     1      46.049   1.556   8.304  0.00  0.00    +0.000 A 
ATOM     15  C   UNL     1      46.622   2.323   7.299  0.00  0.00    +0.000 A 
ATOM     16  C   UNL     1      46.235   3.647   7.190  0.00  0.00    +0.000 A 
ATOM     17  N   UNL     1      45.333   4.245   8.004  0.00  0.00    +0.000 NA
ENDBRANCH  11  12
ENDBRANCH   8  11
ENDBRANCH   7   8
ENDBRANCH   1   7
BRANCH   4  18
ATOM     18  C   UNL     1      48.483   7.799  14.241  0.00  0.00    +0.000 C 
BRANCH  18  19
ATOM     19  N   UNL     1      48.292   7.119  15.501  0.00  0.00    +0.000 N 
ATOM     20  C   UNL     1      49.349   6.553  16.169  0.00  0.00    +0.000 C 
ATOM     21  O   UNL     1      50.504   6.640  15.756  0.00  0.00    +0.000 OA
ATOM     22  H   UNL     1      47.348   6.829  15.741  0.00  0.00    +0.000 HD
BRANCH  20  23
ATOM     23  C   UNL     1      49.039   5.877  17.432  0.00  0.00    +0.000 A 
ATOM     24  C   UNL     1      49.281   4.516  17.553  0.00  0.00    +0.000 A 
ATOM     25  S   UNL     1      48.876   3.882  19.082  0.00  0.00    +0.000 S 
ATOM     26  C   UNL     1      48.323   5.398  19.623  0.00  0.00    +0.000 A 
ATOM     27  N   UNL     1      47.797   5.543  20.869  0.00  0.00    +0.000 NA
ATOM     28  C   UNL     1      47.392   6.739  21.139  0.00  0.00    +0.000 A 
ATOM     29  N   UNL     1      47.475   7.806  20.281  0.00  0.00    +0.000 N 
ATOM     30  C   UNL     1      48.041   7.717  19.032  0.00  0.00    +0.000 A 
ATOM     31  O   UNL     1      48.173   8.707  18.322  0.00  0.00    +0.000 OA
ATOM     32  C   UNL     1      48.480   6.383  18.663  0.00  0.00    +0.000 A 
ATOM     33  H   UNL     1      47.156   8.720  20.564  0.00  0.00    +0.000 HD
ENDBRANCH  20  23
ENDBRANCH  18  19
ENDBRANCH   4  18
TORSDOF 7
ENDMDL
MODEL 5
REMARK VINA RESULT:    -7.023      3.461      9.160
REMARK INTER + INTRA:         -10.980
REMARK INTER:                  -9.245
REMARK INTRA:                  -1.735
REMARK UNBOUND:                -1.083
REMARK  Name = 
REMARK  8 active torsions:
REMARK  status: ('A' for Active; 'I' for Inactive)
REMARK    1  A    between atoms: C_1  and  C_2
REMARK    2  A    between atoms: C_2  and  N_3
REMARK    3  A    between atoms: C_2  and  C_25
REMARK    4  A    between atoms: N_3  and  C_4
REMARK    5  A    between atoms: C_4  and  C_5
REMARK    6  A    between atoms: C_8  and  C_9
REMARK    7  A    between atoms: C_9  and  N_10
REMARK    8  A    between atoms: C_11  and  C_13
REMARK                            x       y       z     vdW  Elec       q    Type
REMARK                         _______ _______ _______ _____ _____    ______ ____
ROOT
ATOM      1  C   UNL     1      50.791   4.787  17.615  0.00  0.00    +0.000 C 
ATOM      2  C   UNL     1      50.256   3.359  17.836  0.00  0.00    +0.000 C 
ATOM      3  C   UNL     1      48.891   3.341  18.519  0.00  0.00    +0.000 C 
ATOM      4  C   UNL     1      47.841   4.160  17.752  0.00  0.00    +0.000 C 
ATOM      5  C   UNL     1      48.350   5.589  17.518  0.00  0.00    +0.000 C 
ATOM      6  C   UNL     1      49.738   5.635  16.877  0.00  0.00    +0.000 C 
ENDROOT
BRANCH   1   7
ATOM      7  C   UNL     1      51.279   5.477  18.916  0.00  0.00    +0.000 C 
BRANCH   7   8
ATOM      8  N   UNL     1      51.597   6.879  18.639  0.00  0.00    +0.000 NA
ATOM      9  H   UNL     1      52.611   6.993  18.614  0.00  0.00    +0.000 HD
BRANCH   8  11
ATOM     10  C   UNL     1      50.801   7.221  20.999  0.00  0.00    +0.000 C 
ATOM     11  C   UNL     1      51.107   7.850  19.636  0.00  0.00    +0.000 C 
BRANCH  11  12
ATOM     12  C   UNL     1      49.849   8.539  19.091  0.00  0.00    +0.000 A 
ATOM     13  C   UNL     1      48.649   8.491  19.807  0.00  0.00    +0.000 A 
ATOM     14  C   UNL     1      47.512   9.084  19.271  0.00  0.00    +0.000 A 
ATOM     15  C   UNL     1      47.592   9.707  18.033  0.00  0.00    +0.000 A 
ATOM     16  C   UNL     1      48.813   9.709  17.382  0.00  0.00    +0.000 A 
ATOM     17  N   UNL     1      49.938   9.140  17.876  0.00  0.00    +0.000 NA
ENDBRANCH  11  12
ENDBRANCH   8  11
ENDBRANCH   7   8
ENDBRANCH   1   7
BRANCH   4  18
ATOM     18  C   UNL     1      47.428   3.507  16.419  0.00  0.00    +0.000 C 
BRANCH  18  19
ATOM     19  N   UNL     1      46.751   4.435  15.543  0.00  0.00    +0.000 N 
ATOM     20  C   UNL     1      46.851   4.324  14.178  0.00  0.00    +0.000 C 
ATOM     21  O   UNL     1      47.474   3.410  13.642  0.00  0.00    +0.000 OA
ATOM     22  H   UNL     1      46.436   5.315  15.941  0.00  0.00    +0.000 HD
BRANCH  20  23
ATOM     23  C   UNL     1      46.133   5.326  13.386  0.00  0.00    +0.000 A 
ATOM     24  C   UNL     1      46.712   6.571  13.177  0.00  0.00    +0.000 A 
ATOM     25  S   UNL     1      45.758   7.618  12.230  0.00  0.00    +0.000 S 
ATOM     26  C   UNL     1      44.518   6.460  12.102  0.00  0.00    +0.000 A 
ATOM     27  N   UNL     1      43.367   6.743  11.433  0.00  0.00    +0.000 NA
ATOM     28  C   UNL     1      42.501   5.785  11.437  0.00  0.00    +0.000 A 
ATOM     29  N   UNL     1      42.685   4.566  12.038  0.00  0.00    +0.000 N 
ATOM     30  C   UNL     1      43.848   4.219  12.683  0.00  0.00    +0.000 A 
ATOM     31  O   UNL     1      44.011   3.093  13.138  0.00  0.00    +0.000 OA
ATOM     32  C   UNL     1      44.843   5.276  12.740  0.00  0.00    +0.000 A 
ATOM     33  H   UNL     1      41.973   3.853  11.986  0.00  0.00    +0.000 HD
ENDBRANCH  20  23
ENDBRANCH  18  19
ENDBRANCH   4  18
TORSDOF 7
ENDMDL
MODEL 6
REMARK VINA RESULT:    -6.961      2.182      2.574
REMARK INTER + INTRA:         -10.893
REMARK INTER:                  -9.419
REMARK INTRA:                  -1.473
REMARK UNBOUND:                -1.083
REMARK  Name = 
REMARK  8 active torsions:
REMARK  status: ('A' for Active; 'I' for Inactive)
REMARK    1  A    between atoms: C_1  and  C_2
REMARK    2  A    between atoms: C_2  and  N_3
REMARK    3  A    between atoms: C_2  and  C_25
REMARK    4  A    between atoms: N_3  and  C_4
REMARK    5  A    between atoms: C_4  and  C_5
REMARK    6  A    between atoms: C_8  and  C_9
REMARK    7  A    between atoms: C_9  and  N_10
REMARK    8  A    between atoms: C_11  and  C_13
REMARK                            x       y       z     vdW  Elec       q    Type
REMARK                         _______ _______ _______ _____ _____    ______ ____
ROOT
ATOM      1  C   UNL     1      45.761   6.533  11.424  0.00  0.00    +0.000 C 
ATOM      2  C   UNL     1      46.067   8.009  11.746  0.00  0.00    +0.000 C 
ATOM      3  C   UNL     1      46.250   8.259  13.241  0.00  0.00    +0.000 C 
ATOM      4  C   UNL     1      47.346   7.372  13.854  0.00  0.00    +0.000 C 
ATOM      5  C   UNL     1      47.064   5.894  13.546  0.00  0.00    +0.000 C 
ATOM      6  C   UNL     1      46.830   5.624  12.059  0.00  0.00    +0.000 C 
ENDROOT
BRANCH   1   7
ATOM      7  C   UNL     1      44.325   6.096  11.814  0.00  0.00    +0.000 C 
BRANCH   7   8
ATOM      8  N   UNL     1      43.653   5.522  10.647  0.00  0.00    +0.000 NA
ATOM      9  H   UNL     1      42.690   5.857  10.618  0.00  0.00    +0.000 HD
BRANCH   8  11
ATOM     10  C   UNL     1      43.843   3.401  11.983  0.00  0.00    +0.000 C 
ATOM     11  C   UNL     1      43.570   4.049  10.623  0.00  0.00    +0.000 C 
BRANCH  11  12
ATOM     12  C   UNL     1      44.560   3.506   9.584  0.00  0.00    +0.000 A 
ATOM     13  C   UNL     1      45.160   4.366   8.660  0.00  0.00    +0.000 A 
ATOM     14  C   UNL     1      46.019   3.842   7.700  0.00  0.00    +0.000 A 
ATOM     15  C   UNL     1      46.257   2.474   7.677  0.00  0.00    +0.000 A 
ATOM     16  C   UNL     1      45.622   1.687   8.622  0.00  0.00    +0.000 A 
ATOM     17  N   UNL     1      44.781   2.165   9.568  0.00  0.00    +0.000 NA
ENDBRANCH  11  12
ENDBRANCH   8  11
ENDBRANCH   7   8
ENDBRANCH   1   7
BRANCH   4  18
ATOM     18  C   UNL     1      48.762   7.761  13.391  0.00  0.00    +0.000 C 
BRANCH  18  19
ATOM     19  N   UNL     1      49.790   7.147  14.198  0.00  0.00    +0.000 N 
ATOM     20  C   UNL     1      50.400   7.837  15.216  0.00  0.00    +0.000 C 
ATOM     21  O   UNL     1      50.070   8.982  15.518  0.00  0.00    +0.000 OA
ATOM     22  H   UNL     1      50.240   6.312  13.833  0.00  0.00    +0.000 HD
BRANCH  20  23
ATOM     23  C   UNL     1      51.438   7.119  15.963  0.00  0.00    +0.000 A 
ATOM     24  C   UNL     1      52.736   7.612  15.968  0.00  0.00    +0.000 A 
ATOM     25  S   UNL     1      53.820   6.673  16.887  0.00  0.00    +0.000 S 
ATOM     26  C   UNL     1      52.602   5.550  17.275  0.00  0.00    +0.000 A 
ATOM     27  N   UNL     1      52.882   4.450  18.025  0.00  0.00    +0.000 NA
ATOM     28  C   UNL     1      51.873   3.668  18.220  0.00  0.00    +0.000 A 
ATOM     29  N   UNL     1      50.606   3.892  17.744  0.00  0.00    +0.000 N 
ATOM     30  C   UNL     1      50.266   5.012  17.023  0.00  0.00    +0.000 A 
ATOM     31  O   UNL     1      49.108   5.221  16.682  0.00  0.00    +0.000 OA
ATOM     32  C   UNL     1      51.375   5.906  16.743  0.00  0.00    +0.000 A 
ATOM     33  H   UNL     1      49.857   3.249  17.951  0.00  0.00    +0.000 HD
ENDBRANCH  20  23
ENDBRANCH  18  19
ENDBRANCH   4  18
TORSDOF 7
ENDMDL
MODEL 7
REMARK VINA RESULT:    -6.608      4.867      7.951
REMARK INTER + INTRA:         -10.396
REMARK INTER:                  -9.055
REMARK INTRA:                  -1.341
REMARK UNBOUND:                -1.083
REMARK  Name = 
REMARK  8 active torsions:
REMARK  status: ('A' for Active; 'I' for Inactive)
REMARK    1  A    between atoms: C_1  and  C_2
REMARK    2  A    between atoms: C_2  and  N_3
REMARK    3  A    between atoms: C_2  and  C_25
REMARK    4  A    between atoms: N_3  and  C_4
REMARK    5  A    between atoms: C_4  and  C_5
REMARK    6  A    between atoms: C_8  and  C_9
REMARK    7  A    between atoms: C_9  and  N_10
REMARK    8  A    between atoms: C_11  and  C_13
REMARK                            x       y       z     vdW  Elec       q    Type
REMARK                         _______ _______ _______ _____ _____    ______ ____
ROOT
ATOM      1  C   UNL     1      50.252   8.899  11.482  0.00  0.00    +0.000 C 
ATOM      2  C   UNL     1      49.621   7.495  11.406  0.00  0.00    +0.000 C 
ATOM      3  C   UNL     1      48.865   7.121  12.678  0.00  0.00    +0.000 C 
ATOM      4  C   UNL     1      47.775   8.145  13.035  0.00  0.00    +0.000 C 
ATOM      5  C   UNL     1      48.378   9.554  13.116  0.00  0.00    +0.000 C 
ATOM      6  C   UNL     1      49.182   9.937  11.872  0.00  0.00    +0.000 C 
ENDROOT
BRANCH   1   7
ATOM      7  C   UNL     1      51.494   8.975  12.408  0.00  0.00    +0.000 C 
BRANCH   7   8
ATOM      8  N   UNL     1      52.402   7.868  12.103  0.00  0.00    +0.000 NA
ATOM      9  H   UNL     1      52.805   7.517  12.972  0.00  0.00    +0.000 HD
BRANCH   8  11
ATOM     10  C   UNL     1      53.635   9.698  10.898  0.00  0.00    +0.000 C 
ATOM     11  C   UNL     1      53.546   8.206  11.234  0.00  0.00    +0.000 C 
BRANCH  11  12
ATOM     12  C   UNL     1      53.454   7.390   9.939  0.00  0.00    +0.000 A 
ATOM     13  C   UNL     1      52.782   7.903   8.825  0.00  0.00    +0.000 A 
ATOM     14  C   UNL     1      52.674   7.125   7.678  0.00  0.00    +0.000 A 
ATOM     15  C   UNL     1      53.230   5.853   7.665  0.00  0.00    +0.000 A 
ATOM     16  C   UNL     1      53.875   5.414   8.808  0.00  0.00    +0.000 A 
ATOM     17  N   UNL     1      53.997   6.145   9.941  0.00  0.00    +0.000 NA
ENDBRANCH  11  12
ENDBRANCH   8  11
ENDBRANCH   7   8
ENDBRANCH   1   7
BRANCH   4  18
ATOM     18  C   UNL     1      46.586   8.120  12.057  0.00  0.00    +0.000 C 
BRANCH  18  19
ATOM     19  N   UNL     1      46.142   6.776  11.770  0.00  0.00    +0.000 N 
ATOM     20  C   UNL     1      44.830   6.512  11.464  0.00  0.00    +0.000 C 
ATOM     21  O   UNL     1      43.989   7.404  11.372  0.00  0.00    +0.000 OA
ATOM     22  H   UNL     1      46.740   6.009  12.064  0.00  0.00    +0.000 HD
BRANCH  20  23
ATOM     23  C   UNL     1      44.488   5.110  11.202  0.00  0.00    +0.000 A 
ATOM     24  C   UNL     1      43.695   4.423  12.111  0.00  0.00    +0.000 A 
ATOM     25  S   UNL     1      43.381   2.810  11.659  0.00  0.00    +0.000 S 
ATOM     26  C   UNL     1      44.329   2.962  10.254  0.00  0.00    +0.000 A 
ATOM     27  N   UNL     1      44.511   1.903   9.419  0.00  0.00    +0.000 NA
ATOM     28  C   UNL     1      45.275   2.149   8.408  0.00  0.00    +0.000 A 
ATOM     29  N   UNL     1      45.863   3.361   8.148  0.00  0.00    +0.000 N 
ATOM     30  C   UNL     1      45.670   4.470   8.936  0.00  0.00    +0.000 A 
ATOM     31  O   UNL     1      46.144   5.557   8.632  0.00  0.00    +0.000 OA
ATOM     32  C   UNL     1      44.848   4.236  10.111  0.00  0.00    +0.000 A 
ATOM     33  H   UNL     1      46.434   3.490   7.326  0.00  0.00    +0.000 HD
ENDBRANCH  20  23
ENDBRANCH  18  19
ENDBRANCH   4  18
TORSDOF 7
ENDMDL
MODEL 8
REMARK VINA RESULT:    -6.474      3.698      9.098
REMARK INTER + INTRA:         -10.206
REMARK INTER:                  -8.134
REMARK INTRA:                  -2.072
REMARK UNBOUND:                -1.083
REMARK  Name = 
REMARK  8 active torsions:
REMARK  status: ('A' for Active; 'I' for Inactive)
REMARK    1  A    between atoms: C_1  and  C_2
REMARK    2  A    between atoms: C_2  and  N_3
REMARK    3  A    between atoms: C_2  and  C_25
REMARK    4  A    between atoms: N_3  and  C_4
REMARK    5  A    between atoms: C_4  and  C_5
REMARK    6  A    between atoms: C_8  and  C_9
REMARK    7  A    between atoms: C_9  and  N_10
REMARK    8  A    between atoms: C_11  and  C_13
REMARK                            x       y       z     vdW  Elec       q    Type
REMARK                         _______ _______ _______ _____ _____    ______ ____
ROOT
ATOM      1  C   UNL     1      50.720   4.861  17.714  0.00  0.00    +0.000 C 
ATOM      2  C   UNL     1      50.194   3.422  17.882  0.00  0.00    +0.000 C 
ATOM      3  C   UNL     1      48.784   3.375  18.466  0.00  0.00    +0.000 C 
ATOM      4  C   UNL     1      47.778   4.186  17.633  0.00  0.00    +0.000 C 
ATOM      5  C   UNL     1      48.280   5.626  17.450  0.00  0.00    +0.000 C 
ATOM      6  C   UNL     1      49.709   5.700  16.910  0.00  0.00    +0.000 C 
ENDROOT
BRANCH   1   7
ATOM      7  C   UNL     1      51.103   5.544  19.053  0.00  0.00    +0.000 C 
BRANCH   7   8
ATOM      8  N   UNL     1      51.706   6.850  18.783  0.00  0.00    +0.000 NA
ATOM      9  H   UNL     1      52.705   6.806  18.989  0.00  0.00    +0.000 HD
BRANCH   8  11
ATOM     10  C   UNL     1      50.742   7.560  20.994  0.00  0.00    +0.000 C 
ATOM     11  C   UNL     1      51.178   7.971  19.584  0.00  0.00    +0.000 C 
BRANCH  11  12
ATOM     12  C   UNL     1      49.994   8.606  18.843  0.00  0.00    +0.000 A 
ATOM     13  C   UNL     1      48.722   8.621  19.423  0.00  0.00    +0.000 A 
ATOM     14  C   UNL     1      47.657   9.163  18.712  0.00  0.00    +0.000 A 
ATOM     15  C   UNL     1      47.879   9.670  17.439  0.00  0.00    +0.000 A 
ATOM     16  C   UNL     1      49.165   9.615  16.931  0.00  0.00    +0.000 A 
ATOM     17  N   UNL     1      50.223   9.095  17.597  0.00  0.00    +0.000 NA
ENDBRANCH  11  12
ENDBRANCH   8  11
ENDBRANCH   7   8
ENDBRANCH   1   7
BRANCH   4  18
ATOM     18  C   UNL     1      47.472   3.542  16.268  0.00  0.00    +0.000 C 
BRANCH  18  19
ATOM     19  N   UNL     1      46.707   4.416  15.409  0.00  0.00    +0.000 N 
ATOM     20  C   UNL     1      46.508   4.114  14.085  0.00  0.00    +0.000 C 
ATOM     21  O   UNL     1      46.925   3.072  13.584  0.00  0.00    +0.000 OA
ATOM     22  H   UNL     1      46.559   5.372  15.722  0.00  0.00    +0.000 HD
BRANCH  20  23
ATOM     23  C   UNL     1      45.727   5.078  13.304  0.00  0.00    +0.000 A 
ATOM     24  C   UNL     1      44.547   4.666  12.700  0.00  0.00    +0.000 A 
ATOM     25  S   UNL     1      43.752   5.904  11.839  0.00  0.00    +0.000 S 
ATOM     26  C   UNL     1      44.981   7.022  12.207  0.00  0.00    +0.000 A 
ATOM     27  N   UNL     1      44.931   8.294  11.728  0.00  0.00    +0.000 NA
ATOM     28  C   UNL     1      45.940   9.028  12.060  0.00  0.00    +0.000 A 
ATOM     29  N   UNL     1      46.989   8.609  12.839  0.00  0.00    +0.000 N 
ATOM     30  C   UNL     1      47.059   7.349  13.383  0.00  0.00    +0.000 A 
ATOM     31  O   UNL     1      47.969   7.033  14.141  0.00  0.00    +0.000 OA
ATOM     32  C   UNL     1      45.965   6.470  13.008  0.00  0.00    +0.000 A 
ATOM     33  H   UNL     1      47.738   9.242  13.078  0.00  0.00    +0.000 HD
ENDBRANCH  20  23
ENDBRANCH  18  19
ENDBRANCH   4  18
TORSDOF 7
ENDMDL
MODEL 9
REMARK VINA RESULT:    -6.353      3.505      9.039
REMARK INTER + INTRA:         -10.036
REMARK INTER:                  -8.524
REMARK INTRA:                  -1.511
REMARK UNBOUND:                -1.083
REMARK  Name = 
REMARK  8 active torsions:
REMARK  status: ('A' for Active; 'I' for Inactive)
REMARK    1  A    between atoms: C_1  and  C_2
REMARK    2  A    between atoms: C_2  and  N_3
REMARK    3  A    between atoms: C_2  and  C_25
REMARK    4  A    between atoms: N_3  and  C_4
REMARK    5  A    between atoms: C_4  and  C_5
REMARK    6  A    between atoms: C_8  and  C_9
REMARK    7  A    between atoms: C_9  and  N_10
REMARK    8  A    between atoms: C_11  and  C_13
REMARK                            x       y       z     vdW  Elec       q    Type
REMARK                         _______ _______ _______ _____ _____    ______ ____
ROOT
ATOM      1  C   UNL     1      50.801   4.419  17.893  0.00  0.00    +0.000 C 
ATOM      2  C   UNL     1      50.062   3.084  18.109  0.00  0.00    +0.000 C 
ATOM      3  C   UNL     1      48.655   3.274  18.670  0.00  0.00    +0.000 C 
ATOM      4  C   UNL     1      47.792   4.191  17.788  0.00  0.00    +0.000 C 
ATOM      5  C   UNL     1      48.507   5.530  17.556  0.00  0.00    +0.000 C 
ATOM      6  C   UNL     1      49.937   5.366  17.039  0.00  0.00    +0.000 C 
ENDROOT
BRANCH   1   7
ATOM      7  C   UNL     1      51.267   5.093  19.210  0.00  0.00    +0.000 C 
BRANCH   7   8
ATOM      8  N   UNL     1      52.726   5.218  19.207  0.00  0.00    +0.000 NA
ATOM      9  H   UNL     1      53.098   4.800  20.060  0.00  0.00    +0.000 HD
BRANCH   8  11
ATOM     10  C   UNL     1      52.581   7.523  20.201  0.00  0.00    +0.000 C 
ATOM     11  C   UNL     1      53.244   6.599  19.175  0.00  0.00    +0.000 C 
BRANCH  11  12
ATOM     12  C   UNL     1      53.057   7.174  17.765  0.00  0.00    +0.000 A 
ATOM     13  C   UNL     1      52.244   8.293  17.559  0.00  0.00    +0.000 A 
ATOM     14  C   UNL     1      52.054   8.768  16.266  0.00  0.00    +0.000 A 
ATOM     15  C   UNL     1      52.671   8.117  15.207  0.00  0.00    +0.000 A 
ATOM     16  C   UNL     1      53.457   7.013  15.490  0.00  0.00    +0.000 A 
ATOM     17  N   UNL     1      53.661   6.525  16.736  0.00  0.00    +0.000 NA
ENDBRANCH  11  12
ENDBRANCH   8  11
ENDBRANCH   7   8
ENDBRANCH   1   7
BRANCH   4  18
ATOM     18  C   UNL     1      47.408   3.543  16.445  0.00  0.00    +0.000 C 
BRANCH  18  19
ATOM     19  N   UNL     1      46.760   4.476  15.552  0.00  0.00    +0.000 N 
ATOM     20  C   UNL     1      46.816   4.311  14.191  0.00  0.00    +0.000 C 
ATOM     21  O   UNL     1      47.371   3.344  13.673  0.00  0.00    +0.000 OA
ATOM     22  H   UNL     1      46.507   5.387  15.926  0.00  0.00    +0.000 HD
BRANCH  20  23
ATOM     23  C   UNL     1      46.135   5.325  13.380  0.00  0.00    +0.000 A 
ATOM     24  C   UNL     1      46.766   6.536  13.134  0.00  0.00    +0.000 A 
ATOM     25  S   UNL     1      45.849   7.602  12.171  0.00  0.00    +0.000 S 
ATOM     26  C   UNL     1      44.558   6.497  12.084  0.00  0.00    +0.000 A 
ATOM     27  N   UNL     1      43.413   6.814  11.420  0.00  0.00    +0.000 NA
ATOM     28  C   UNL     1      42.505   5.897  11.457  0.00  0.00    +0.000 A 
ATOM     29  N   UNL     1      42.642   4.686  12.087  0.00  0.00    +0.000 N 
ATOM     30  C   UNL     1      43.795   4.303  12.729  0.00  0.00    +0.000 A 
ATOM     31  O   UNL     1      43.913   3.183  13.210  0.00  0.00    +0.000 OA
ATOM     32  C   UNL     1      44.836   5.316  12.749  0.00  0.00    +0.000 A 
ATOM     33  H   UNL     1      41.898   4.005  12.060  0.00  0.00    +0.000 HD
ENDBRANCH  20  23
ENDBRANCH  18  19
ENDBRANCH   4  18
TORSDOF 7
ENDMDL
