MODEL 1
REMARK VINA RESULT:    -7.564      0.000      0.000
REMARK INTER + INTRA:         -10.855
REMARK INTER:                  -9.996
REMARK INTRA:                  -0.859
REMARK UNBOUND:                -0.859
REMARK  Name = 
REMARK  6 active torsions:
REMARK  status: ('A' for Active; 'I' for Inactive)
REMARK    1  A    between atoms: C_2  and  C_3
REMARK    2  A    between atoms: C_6  and  C_7
REMARK    3  A    between atoms: C_7  and  N_8
REMARK    4  A    between atoms: N_8  and  C_9
REMARK    5  A    between atoms: C_12  and  C_13
REMARK    6  A    between atoms: C_17  and  N_18
REMARK                            x       y       z     vdW  Elec       q    Type
REMARK                         _______ _______ _______ _____ _____    ______ ____
ROOT
ATOM      1  N   UNL     1      43.924   4.947  10.195  0.00  0.00    +0.000 N 
ATOM      2  H   UNL     1      42.964   5.004   9.895  0.00  0.00    +0.000 HD
ENDROOT
BRANCH   1   3
ATOM      3  C   UNL     1      44.730   4.181   9.323  0.00  0.00    +0.000 A 
ATOM      4  N   UNL     1      45.517   4.782   8.404  0.00  0.00    +0.000 NA
ATOM      5  C   UNL     1      46.342   3.993   7.661  0.00  0.00    +0.000 A 
ATOM      6  C   UNL     1      46.451   2.611   7.809  0.00  0.00    +0.000 A 
ATOM      7  C   UNL     1      45.652   2.011   8.775  0.00  0.00    +0.000 A 
ATOM      8  C   UNL     1      44.740   2.773   9.515  0.00  0.00    +0.000 A 
BRANCH   6   9
ATOM      9  C   UNL     1      47.401   1.868   6.947  0.00  0.00    +0.000 C 
ATOM     10  N   UNL     1      48.526   2.511   6.502  0.00  0.00    +0.000 N 
ATOM     11  O   UNL     1      47.199   0.701   6.641  0.00  0.00    +0.000 OA
ATOM     12  H   UNL     1      48.774   3.469   6.691  0.00  0.00    +0.000 HD
ATOM     13  H   UNL     1      49.153   1.978   5.912  0.00  0.00    +0.000 HD
ENDBRANCH   6   9
BRANCH   8  14
ATOM     14  N   UNL     1      44.048   2.139  10.568  0.00  0.00    +0.000 N 
ATOM     15  H   UNL     1      43.990   2.680  11.423  0.00  0.00    +0.000 HD
ATOM     16  H   UNL     1      44.313   1.179  10.743  0.00  0.00    +0.000 HD
ENDBRANCH   8  14
ENDBRANCH   1   3
BRANCH   1  17
ATOM     17  C   UNL     1      44.422   6.024  11.054  0.00  0.00    +0.000 C 
ATOM     18  C   UNL     1      44.761   7.403  10.515  0.00  0.00    +0.000 C 
ATOM     19  C   UNL     1      43.476   7.202  11.245  0.00  0.00    +0.000 C 
BRANCH  17  23
ATOM     20  C   UNL     1      46.795   4.375  14.210  0.00  0.00    +0.000 A 
ATOM     21  C   UNL     1      47.381   5.295  13.353  0.00  0.00    +0.000 A 
ATOM     22  C   UNL     1      46.592   5.857  12.354  0.00  0.00    +0.000 A 
ATOM     23  C   UNL     1      45.243   5.501  12.215  0.00  0.00    +0.000 A 
ATOM     24  C   UNL     1      44.763   4.575  13.146  0.00  0.00    +0.000 A 
ATOM     25  F   UNL     1      43.481   4.180  13.058  0.00  0.00    +0.000 F 
ATOM     26  N   UNL     1      45.494   4.011  14.139  0.00  0.00    +0.000 NA
BRANCH  20  28
ATOM     27  N   UNL     1      48.242   3.178  16.006  0.00  0.00    +0.000 NA
ATOM     28  C   UNL     1      47.583   3.733  15.224  0.00  0.00    +0.000 C 
ENDBRANCH  20  28
ENDBRANCH  17  23
ENDBRANCH   1  17
TORSDOF 6
ENDMDL
MODEL 2
REMARK VINA RESULT:    -7.435      1.968      2.366
REMARK INTER + INTRA:         -10.686
REMARK INTER:                 -11.109
REMARK INTRA:                   0.424
REMARK UNBOUND:                -0.859
REMARK  Name = 
REMARK  6 active torsions:
REMARK  status: ('A' for Active; 'I' for Inactive)
REMARK    1  A    between atoms: C_2  and  C_3
REMARK    2  A    between atoms: C_6  and  C_7
REMARK    3  A    between atoms: C_7  and  N_8
REMARK    4  A    between atoms: N_8  and  C_9
REMARK    5  A    between atoms: C_12  and  C_13
REMARK    6  A    between atoms: C_17  and  N_18
REMARK                            x       y       z     vdW  Elec       q    Type
REMARK                         _______ _______ _______ _____ _____    ______ ____
ROOT
ATOM      1  N   UNL     1      43.775   4.783  10.108  0.00  0.00    +0.000 N 
ATOM      2  H   UNL     1      43.267   5.508   9.629  0.00  0.00    +0.000 HD
ENDROOT
BRANCH   1   3
ATOM      3  C   UNL     1      44.650   4.069   9.259  0.00  0.00    +0.000 A 
ATOM      4  N   UNL     1      45.468   4.722   8.403  0.00  0.00    +0.000 NA
ATOM      5  C   UNL     1      46.355   3.981   7.683  0.00  0.00    +0.000 A 
ATOM      6  C   UNL     1      46.497   2.599   7.794  0.00  0.00    +0.000 A 
ATOM      7  C   UNL     1      45.664   1.945   8.695  0.00  0.00    +0.000 A 
ATOM      8  C   UNL     1      44.691   2.656   9.406  0.00  0.00    +0.000 A 
BRANCH   6   9
ATOM      9  C   UNL     1      47.515   1.912   6.963  0.00  0.00    +0.000 C 
ATOM     10  N   UNL     1      48.593   2.629   6.517  0.00  0.00    +0.000 N 
ATOM     11  O   UNL     1      47.408   0.726   6.683  0.00  0.00    +0.000 OA
ATOM     12  H   UNL     1      48.764   3.607   6.685  0.00  0.00    +0.000 HD
ATOM     13  H   UNL     1      49.268   2.133   5.949  0.00  0.00    +0.000 HD
ENDBRANCH   6   9
BRANCH   8  14
ATOM     14  N   UNL     1      43.962   1.969  10.398  0.00  0.00    +0.000 N 
ATOM     15  H   UNL     1      43.226   2.512  10.836  0.00  0.00    +0.000 HD
ATOM     16  H   UNL     1      44.521   1.471  11.078  0.00  0.00    +0.000 HD
ENDBRANCH   8  14
ENDBRANCH   1   3
BRANCH   1  17
ATOM     17  C   UNL     1      43.966   4.941  11.551  0.00  0.00    +0.000 C 
ATOM     18  C   UNL     1      42.820   5.271  12.492  0.00  0.00    +0.000 C 
ATOM     19  C   UNL     1      43.321   3.869  12.419  0.00  0.00    +0.000 C 
BRANCH  17  23
ATOM     20  C   UNL     1      47.749   6.577  12.699  0.00  0.00    +0.000 A 
ATOM     21  C   UNL     1      47.436   5.287  13.102  0.00  0.00    +0.000 A 
ATOM     22  C   UNL     1      46.222   4.748  12.691  0.00  0.00    +0.000 A 
ATOM     23  C   UNL     1      45.336   5.488  11.895  0.00  0.00    +0.000 A 
ATOM     24  C   UNL     1      45.767   6.769  11.541  0.00  0.00    +0.000 A 
ATOM     25  F   UNL     1      44.959   7.537  10.791  0.00  0.00    +0.000 F 
ATOM     26  N   UNL     1      46.946   7.329  11.912  0.00  0.00    +0.000 NA
BRANCH  20  28
ATOM     27  N   UNL     1      49.977   7.641  13.510  0.00  0.00    +0.000 NA
ATOM     28  C   UNL     1      48.969   7.193  13.140  0.00  0.00    +0.000 C 
ENDBRANCH  20  28
ENDBRANCH  17  23
ENDBRANCH   1  17
TORSDOF 6
ENDMDL
MODEL 3
REMARK VINA RESULT:    -7.022      2.005      2.665
REMARK INTER + INTRA:         -10.140
REMARK INTER:                  -9.690
REMARK INTRA:                  -0.449
REMARK UNBOUND:                -0.859
REMARK  Name = 
REMARK  6 active torsions:
REMARK  status: ('A' for Active; 'I' for Inactive)
REMARK    1  A    between atoms: C_2  and  C_3
REMARK    2  A    between atoms: C_6  and  C_7
REMARK    3  A    between atoms: C_7  and  N_8
REMARK    4  A    between atoms: N_8  and  C_9
REMARK    5  A    between atoms: C_12  and  C_13
REMARK    6  A    between atoms: C_17  and  N_18
REMARK                            x       y       z     vdW  Elec       q    Type
REMARK                         _______ _______ _______ _____ _____    ______ ____
ROOT
ATOM      1  N   UNL     1      43.804   4.687   9.995  0.00  0.00    +0.000 N 
ATOM      2  H   UNL     1      43.578   5.436   9.361  0.00  0.00    +0.000 HD
ENDROOT
BRANCH   1   3
ATOM      3  C   UNL     1      44.637   3.705   9.414  0.00  0.00    +0.000 A 
ATOM      4  N   UNL     1      44.306   2.396   9.473  0.00  0.00    +0.000 NA
ATOM      5  C   UNL     1      45.100   1.510   8.810  0.00  0.00    +0.000 A 
ATOM      6  C   UNL     1      46.211   1.867   8.048  0.00  0.00    +0.000 A 
ATOM      7  C   UNL     1      46.525   3.220   7.978  0.00  0.00    +0.000 A 
ATOM      8  C   UNL     1      45.778   4.159   8.699  0.00  0.00    +0.000 A 
BRANCH   6   9
ATOM      9  C   UNL     1      46.983   0.805   7.361  0.00  0.00    +0.000 C 
ATOM     10  N   UNL     1      46.712  -0.504   7.659  0.00  0.00    +0.000 N 
ATOM     11  O   UNL     1      47.843   1.081   6.535  0.00  0.00    +0.000 OA
ATOM     12  H   UNL     1      46.034  -0.829   8.329  0.00  0.00    +0.000 HD
ATOM     13  H   UNL     1      47.259  -1.206   7.176  0.00  0.00    +0.000 HD
ENDBRANCH   6   9
BRANCH   8  14
ATOM     14  N   UNL     1      46.057   5.526   8.492  0.00  0.00    +0.000 N 
ATOM     15  H   UNL     1      47.033   5.781   8.596  0.00  0.00    +0.000 HD
ATOM     16  H   UNL     1      45.444   6.170   8.975  0.00  0.00    +0.000 HD
ENDBRANCH   8  14
ENDBRANCH   1   3
BRANCH   1  17
ATOM     17  C   UNL     1      43.746   4.983  11.428  0.00  0.00    +0.000 C 
ATOM     18  C   UNL     1      42.501   5.547  12.092  0.00  0.00    +0.000 C 
ATOM     19  C   UNL     1      42.814   4.097  12.243  0.00  0.00    +0.000 C 
BRANCH  17  23
ATOM     20  C   UNL     1      47.441   6.247  13.176  0.00  0.00    +0.000 A 
ATOM     21  C   UNL     1      47.009   4.950  13.408  0.00  0.00    +0.000 A 
ATOM     22  C   UNL     1      45.827   4.534  12.804  0.00  0.00    +0.000 A 
ATOM     23  C   UNL     1      45.091   5.402  11.985  0.00  0.00    +0.000 A 
ATOM     24  C   UNL     1      45.633   6.679  11.815  0.00  0.00    +0.000 A 
ATOM     25  F   UNL     1      44.969   7.565  11.055  0.00  0.00    +0.000 F 
ATOM     26  N   UNL     1      46.785   7.122  12.377  0.00  0.00    +0.000 NA
BRANCH  20  28
ATOM     27  N   UNL     1      49.616   7.085  14.325  0.00  0.00    +0.000 NA
ATOM     28  C   UNL     1      48.629   6.737  13.818  0.00  0.00    +0.000 C 
ENDBRANCH  20  28
ENDBRANCH  17  23
ENDBRANCH   1  17
TORSDOF 6
ENDMDL
MODEL 4
REMARK VINA RESULT:    -6.712      3.322      6.737
REMARK INTER + INTRA:          -9.729
REMARK INTER:                 -10.281
REMARK INTRA:                   0.551
REMARK UNBOUND:                -0.859
REMARK  Name = 
REMARK  6 active torsions:
REMARK  status: ('A' for Active; 'I' for Inactive)
REMARK    1  A    between atoms: C_2  and  C_3
REMARK    2  A    between atoms: C_6  and  C_7
REMARK    3  A    between atoms: C_7  and  N_8
REMARK    4  A    between atoms: N_8  and  C_9
REMARK    5  A    between atoms: C_12  and  C_13
REMARK    6  A    between atoms: C_17  and  N_18
REMARK                            x       y       z     vdW  Elec       q    Type
REMARK                         _______ _______ _______ _____ _____    ______ ____
ROOT
ATOM      1  N   UNL     1      44.420   5.547  10.706  0.00  0.00    +0.000 N 
ATOM      2  H   UNL     1      43.555   5.969  10.410  0.00  0.00    +0.000 HD
ENDROOT
BRANCH   1   3
ATOM      3  C   UNL     1      45.175   6.377  11.565  0.00  0.00    +0.000 A 
ATOM      4  N   UNL     1      46.344   5.947  12.089  0.00  0.00    +0.000 NA
ATOM      5  C   UNL     1      47.070   6.830  12.830  0.00  0.00    +0.000 A 
ATOM      6  C   UNL     1      46.703   8.155  13.055  0.00  0.00    +0.000 A 
ATOM      7  C   UNL     1      45.509   8.589  12.490  0.00  0.00    +0.000 A 
ATOM      8  C   UNL     1      44.697   7.698  11.779  0.00  0.00    +0.000 A 
BRANCH   6   9
ATOM      9  C   UNL     1      47.593   9.019  13.867  0.00  0.00    +0.000 C 
ATOM     10  N   UNL     1      47.501   8.958  15.233  0.00  0.00    +0.000 N 
ATOM     11  O   UNL     1      48.402   9.770  13.339  0.00  0.00    +0.000 OA
ATOM     12  H   UNL     1      46.863   8.383  15.758  0.00  0.00    +0.000 HD
ATOM     13  H   UNL     1      48.119   9.564  15.759  0.00  0.00    +0.000 HD
ENDBRANCH   6   9
BRANCH   8  14
ATOM     14  N   UNL     1      43.564   8.217  11.118  0.00  0.00    +0.000 N 
ATOM     15  H   UNL     1      43.649   9.185  10.827  0.00  0.00    +0.000 HD
ATOM     16  H   UNL     1      42.678   8.035  11.571  0.00  0.00    +0.000 HD
ENDBRANCH   8  14
ENDBRANCH   1   3
BRANCH   1  17
ATOM     17  C   UNL     1      44.487   4.083  10.697  0.00  0.00    +0.000 C 
ATOM     18  C   UNL     1      44.546   3.264  11.974  0.00  0.00    +0.000 C 
ATOM     19  C   UNL     1      43.256   3.366  11.233  0.00  0.00    +0.000 C 
BRANCH  17  23
ATOM     20  C   UNL     1      46.745   2.572   7.391  0.00  0.00    +0.000 A 
ATOM     21  C   UNL     1      46.096   1.667   8.218  0.00  0.00    +0.000 A 
ATOM     22  C   UNL     1      45.331   2.168   9.267  0.00  0.00    +0.000 A 
ATOM     23  C   UNL     1      45.222   3.549   9.484  0.00  0.00    +0.000 A 
ATOM     24  C   UNL     1      45.909   4.360   8.578  0.00  0.00    +0.000 A 
ATOM     25  F   UNL     1      45.857   5.693   8.739  0.00  0.00    +0.000 F 
ATOM     26  N   UNL     1      46.657   3.915   7.538  0.00  0.00    +0.000 NA
BRANCH  20  28
ATOM     27  N   UNL     1      48.256   1.666   5.481  0.00  0.00    +0.000 NA
ATOM     28  C   UNL     1      47.585   2.101   6.326  0.00  0.00    +0.000 C 
ENDBRANCH  20  28
ENDBRANCH  17  23
ENDBRANCH   1  17
TORSDOF 6
ENDMDL
MODEL 5
REMARK VINA RESULT:    -6.689      1.710      1.952
REMARK INTER + INTRA:          -9.698
REMARK INTER:                  -9.188
REMARK INTRA:                  -0.511
REMARK UNBOUND:                -0.859
REMARK  Name = 
REMARK  6 active torsions:
REMARK  status: ('A' for Active; 'I' for Inactive)
REMARK    1  A    between atoms: C_2  and  C_3
REMARK    2  A    between atoms: C_6  and  C_7
REMARK    3  A    between atoms: C_7  and  N_8
REMARK    4  A    between atoms: N_8  and  C_9
REMARK    5  A    between atoms: C_12  and  C_13
REMARK    6  A    between atoms: C_17  and  N_18
REMARK                            x       y       z     vdW  Elec       q    Type
REMARK                         _______ _______ _______ _____ _____    ______ ____
ROOT
ATOM      1  N   UNL     1      44.175   4.005  10.897  0.00  0.00    +0.000 N 
ATOM      2  H   UNL     1      43.469   3.310  11.075  0.00  0.00    +0.000 HD
ENDROOT
BRANCH   1   3
ATOM      3  C   UNL     1      44.874   3.784   9.690  0.00  0.00    +0.000 A 
ATOM      4  N   UNL     1      45.637   4.759   9.146  0.00  0.00    +0.000 NA
ATOM      5  C   UNL     1      46.362   4.451   8.035  0.00  0.00    +0.000 A 
ATOM      6  C   UNL     1      46.395   3.190   7.442  0.00  0.00    +0.000 A 
ATOM      7  C   UNL     1      45.623   2.193   8.027  0.00  0.00    +0.000 A 
ATOM      8  C   UNL     1      44.809   2.481   9.128  0.00  0.00    +0.000 A 
BRANCH   6   9
ATOM      9  C   UNL     1      47.240   2.982   6.242  0.00  0.00    +0.000 C 
ATOM     10  N   UNL     1      48.537   2.576   6.414  0.00  0.00    +0.000 N 
ATOM     11  O   UNL     1      46.796   3.157   5.115  0.00  0.00    +0.000 OA
ATOM     12  H   UNL     1      48.995   2.416   7.297  0.00  0.00    +0.000 HD
ATOM     13  H   UNL     1      49.090   2.446   5.575  0.00  0.00    +0.000 HD
ENDBRANCH   6   9
BRANCH   8  14
ATOM     14  N   UNL     1      44.147   1.408   9.761  0.00  0.00    +0.000 N 
ATOM     15  H   UNL     1      44.163   1.438  10.775  0.00  0.00    +0.000 HD
ATOM     16  H   UNL     1      44.376   0.489   9.406  0.00  0.00    +0.000 HD
ENDBRANCH   8  14
ENDBRANCH   1   3
BRANCH   1  17
ATOM     17  C   UNL     1      43.996   5.317  11.525  0.00  0.00    +0.000 C 
ATOM     18  C   UNL     1      43.030   6.354  10.979  0.00  0.00    +0.000 C 
ATOM     19  C   UNL     1      42.640   5.553  12.175  0.00  0.00    +0.000 C 
BRANCH  17  23
ATOM     20  C   UNL     1      47.692   6.612  13.248  0.00  0.00    +0.000 A 
ATOM     21  C   UNL     1      47.090   7.416  12.291  0.00  0.00    +0.000 A 
ATOM     22  C   UNL     1      45.869   7.008  11.765  0.00  0.00    +0.000 A 
ATOM     23  C   UNL     1      45.264   5.816  12.187  0.00  0.00    +0.000 A 
ATOM     24  C   UNL     1      45.959   5.098  13.164  0.00  0.00    +0.000 A 
ATOM     25  F   UNL     1      45.441   3.937  13.601  0.00  0.00    +0.000 F 
ATOM     26  N   UNL     1      47.145   5.464  13.710  0.00  0.00    +0.000 NA
BRANCH  20  28
ATOM     27  N   UNL     1      50.006   7.221  14.261  0.00  0.00    +0.000 NA
ATOM     28  C   UNL     1      48.977   6.967  13.783  0.00  0.00    +0.000 C 
ENDBRANCH  20  28
ENDBRANCH  17  23
ENDBRANCH   1  17
TORSDOF 6
ENDMDL
MODEL 6
REMARK VINA RESULT:    -6.526      2.817      6.601
REMARK INTER + INTRA:          -9.484
REMARK INTER:                  -9.035
REMARK INTRA:                  -0.448
REMARK UNBOUND:                -0.859
REMARK  Name = 
REMARK  6 active torsions:
REMARK  status: ('A' for Active; 'I' for Inactive)
REMARK    1  A    between atoms: C_2  and  C_3
REMARK    2  A    between atoms: C_6  and  C_7
REMARK    3  A    between atoms: C_7  and  N_8
REMARK    4  A    between atoms: N_8  and  C_9
REMARK    5  A    between atoms: C_12  and  C_13
REMARK    6  A    between atoms: C_17  and  N_18
REMARK                            x       y       z     vdW  Elec       q    Type
REMARK                         _______ _______ _______ _____ _____    ______ ____
ROOT
ATOM      1  N   UNL     1      45.362   5.205  11.566  0.00  0.00    +0.000 N 
ATOM      2  H   UNL     1      45.212   6.198  11.493  0.00  0.00    +0.000 HD
ENDROOT
BRANCH   1   3
ATOM      3  C   UNL     1      45.988   4.829  12.776  0.00  0.00    +0.000 A 
ATOM      4  N   UNL     1      46.239   3.529  13.048  0.00  0.00    +0.000 NA
ATOM      5  C   UNL     1      46.933   3.242  14.184  0.00  0.00    +0.000 A 
ATOM      6  C   UNL     1      47.427   4.200  15.067  0.00  0.00    +0.000 A 
ATOM      7  C   UNL     1      47.181   5.533  14.761  0.00  0.00    +0.000 A 
ATOM      8  C   UNL     1      46.414   5.873  13.640  0.00  0.00    +0.000 A 
BRANCH   6   9
ATOM      9  C   UNL     1      48.182   3.754  16.263  0.00  0.00    +0.000 C 
ATOM     10  N   UNL     1      48.410   4.655  17.270  0.00  0.00    +0.000 N 
ATOM     11  O   UNL     1      48.591   2.605  16.362  0.00  0.00    +0.000 OA
ATOM     12  H   UNL     1      48.125   5.621  17.276  0.00  0.00    +0.000 HD
ATOM     13  H   UNL     1      48.932   4.321  18.071  0.00  0.00    +0.000 HD
ENDBRANCH   6   9
BRANCH   8  14
ATOM     14  N   UNL     1      46.302   7.238  13.304  0.00  0.00    +0.000 N 
ATOM     15  H   UNL     1      45.352   7.590  13.270  0.00  0.00    +0.000 HD
ATOM     16  H   UNL     1      46.843   7.531  12.501  0.00  0.00    +0.000 HD
ENDBRANCH   8  14
ENDBRANCH   1   3
BRANCH   1  17
ATOM     17  C   UNL     1      44.480   4.336  10.784  0.00  0.00    +0.000 C 
ATOM     18  C   UNL     1      43.364   3.525  11.419  0.00  0.00    +0.000 C 
ATOM     19  C   UNL     1      43.027   4.784  10.695  0.00  0.00    +0.000 C 
BRANCH  17  23
ATOM     20  C   UNL     1      46.635   2.663   7.488  0.00  0.00    +0.000 A 
ATOM     21  C   UNL     1      45.954   1.803   8.338  0.00  0.00    +0.000 A 
ATOM     22  C   UNL     1      45.223   2.358   9.383  0.00  0.00    +0.000 A 
ATOM     23  C   UNL     1      45.177   3.746   9.575  0.00  0.00    +0.000 A 
ATOM     24  C   UNL     1      45.892   4.509   8.647  0.00  0.00    +0.000 A 
ATOM     25  F   UNL     1      45.902   5.845   8.783  0.00  0.00    +0.000 F 
ATOM     26  N   UNL     1      46.609   4.010   7.609  0.00  0.00    +0.000 NA
BRANCH  20  28
ATOM     27  N   UNL     1      48.089   1.653   5.585  0.00  0.00    +0.000 NA
ATOM     28  C   UNL     1      47.443   2.134   6.425  0.00  0.00    +0.000 C 
ENDBRANCH  20  28
ENDBRANCH  17  23
ENDBRANCH   1  17
TORSDOF 6
ENDMDL
MODEL 7
REMARK VINA RESULT:    -5.860      3.000      6.144
REMARK INTER + INTRA:          -8.604
REMARK INTER:                  -8.427
REMARK INTRA:                  -0.177
REMARK UNBOUND:                -0.859
REMARK  Name = 
REMARK  6 active torsions:
REMARK  status: ('A' for Active; 'I' for Inactive)
REMARK    1  A    between atoms: C_2  and  C_3
REMARK    2  A    between atoms: C_6  and  C_7
REMARK    3  A    between atoms: C_7  and  N_8
REMARK    4  A    between atoms: N_8  and  C_9
REMARK    5  A    between atoms: C_12  and  C_13
REMARK    6  A    between atoms: C_17  and  N_18
REMARK                            x       y       z     vdW  Elec       q    Type
REMARK                         _______ _______ _______ _____ _____    ______ ____
ROOT
ATOM      1  N   UNL     1      44.546   4.895  12.752  0.00  0.00    +0.000 N 
ATOM      2  H   UNL     1      44.463   4.048  13.292  0.00  0.00    +0.000 HD
ENDROOT
BRANCH   1   3
ATOM      3  C   UNL     1      45.754   5.586  12.993  0.00  0.00    +0.000 A 
ATOM      4  N   UNL     1      45.827   6.926  12.830  0.00  0.00    +0.000 NA
ATOM      5  C   UNL     1      46.991   7.544  13.172  0.00  0.00    +0.000 A 
ATOM      6  C   UNL     1      48.100   6.892  13.708  0.00  0.00    +0.000 A 
ATOM      7  C   UNL     1      48.001   5.517  13.891  0.00  0.00    +0.000 A 
ATOM      8  C   UNL     1      46.849   4.830  13.491  0.00  0.00    +0.000 A 
BRANCH   6   9
ATOM      9  C   UNL     1      49.304   7.685  14.054  0.00  0.00    +0.000 C 
ATOM     10  N   UNL     1      50.008   7.353  15.181  0.00  0.00    +0.000 N 
ATOM     11  O   UNL     1      49.674   8.615  13.350  0.00  0.00    +0.000 OA
ATOM     12  H   UNL     1      49.778   6.616  15.827  0.00  0.00    +0.000 HD
ATOM     13  H   UNL     1      50.823   7.917  15.393  0.00  0.00    +0.000 HD
ENDBRANCH   6   9
BRANCH   8  14
ATOM     14  N   UNL     1      46.748   3.461  13.815  0.00  0.00    +0.000 N 
ATOM     15  H   UNL     1      47.473   2.876  13.415  0.00  0.00    +0.000 HD
ATOM     16  H   UNL     1      45.828   3.056  13.701  0.00  0.00    +0.000 HD
ENDBRANCH   8  14
ENDBRANCH   1   3
BRANCH   1  17
ATOM     17  C   UNL     1      43.780   4.972  11.506  0.00  0.00    +0.000 C 
ATOM     18  C   UNL     1      42.267   5.109  11.489  0.00  0.00    +0.000 C 
ATOM     19  C   UNL     1      43.110   6.312  11.231  0.00  0.00    +0.000 C 
BRANCH  17  23
ATOM     20  C   UNL     1      45.773   2.714   8.468  0.00  0.00    +0.000 A 
ATOM     21  C   UNL     1      44.809   2.081   9.237  0.00  0.00    +0.000 A 
ATOM     22  C   UNL     1      44.137   2.832  10.196  0.00  0.00    +0.000 A 
ATOM     23  C   UNL     1      44.428   4.191  10.382  0.00  0.00    +0.000 A 
ATOM     24  C   UNL     1      45.408   4.721   9.538  0.00  0.00    +0.000 A 
ATOM     25  F   UNL     1      45.744   6.014   9.675  0.00  0.00    +0.000 F 
ATOM     26  N   UNL     1      46.079   4.027   8.585  0.00  0.00    +0.000 NA
BRANCH  20  28
ATOM     27  N   UNL     1      47.107   1.318   6.728  0.00  0.00    +0.000 NA
ATOM     28  C   UNL     1      46.527   1.968   7.500  0.00  0.00    +0.000 C 
ENDBRANCH  20  28
ENDBRANCH  17  23
ENDBRANCH   1  17
TORSDOF 6
ENDMDL
MODEL 8
REMARK VINA RESULT:    -5.695      3.573      4.946
REMARK INTER + INTRA:          -8.386
REMARK INTER:                  -7.772
REMARK INTRA:                  -0.614
REMARK UNBOUND:                -0.859
REMARK  Name = 
REMARK  6 active torsions:
REMARK  status: ('A' for Active; 'I' for Inactive)
REMARK    1  A    between atoms: C_2  and  C_3
REMARK    2  A    between atoms: C_6  and  C_7
REMARK    3  A    between atoms: C_7  and  N_8
REMARK    4  A    between atoms: N_8  and  C_9
REMARK    5  A    between atoms: C_12  and  C_13
REMARK    6  A    between atoms: C_17  and  N_18
REMARK                            x       y       z     vdW  Elec       q    Type
REMARK                         _______ _______ _______ _____ _____    ______ ____
ROOT
ATOM      1  N   UNL     1      45.712   7.851  13.260  0.00  0.00    +0.000 N 
ATOM      2  H   UNL     1      44.936   8.478  13.398  0.00  0.00    +0.000 HD
ENDROOT
BRANCH   1   3
ATOM      3  C   UNL     1      45.329   6.618  12.685  0.00  0.00    +0.000 A 
ATOM      4  N   UNL     1      45.710   5.448  13.243  0.00  0.00    +0.000 NA
ATOM      5  C   UNL     1      45.227   4.297  12.697  0.00  0.00    +0.000 A 
ATOM      6  C   UNL     1      44.341   4.248  11.623  0.00  0.00    +0.000 A 
ATOM      7  C   UNL     1      43.940   5.462  11.074  0.00  0.00    +0.000 A 
ATOM      8  C   UNL     1      44.464   6.666  11.559  0.00  0.00    +0.000 A 
BRANCH   6   9
ATOM      9  C   UNL     1      43.877   2.929  11.133  0.00  0.00    +0.000 C 
ATOM     10  N   UNL     1      44.486   2.384  10.033  0.00  0.00    +0.000 N 
ATOM     11  O   UNL     1      42.974   2.325  11.697  0.00  0.00    +0.000 OA
ATOM     12  H   UNL     1      45.227   2.806   9.497  0.00  0.00    +0.000 HD
ATOM     13  H   UNL     1      44.144   1.483   9.721  0.00  0.00    +0.000 HD
ENDBRANCH   6   9
BRANCH   8  14
ATOM     14  N   UNL     1      43.929   7.870  11.056  0.00  0.00    +0.000 N 
ATOM     15  H   UNL     1      43.885   7.926  10.045  0.00  0.00    +0.000 HD
ATOM     16  H   UNL     1      44.306   8.715  11.465  0.00  0.00    +0.000 HD
ENDBRANCH   8  14
ENDBRANCH   1   3
BRANCH   1  17
ATOM     17  C   UNL     1      47.042   8.450  13.128  0.00  0.00    +0.000 C 
ATOM     18  C   UNL     1      47.677   8.733  11.778  0.00  0.00    +0.000 C 
ATOM     19  C   UNL     1      47.073   9.858  12.549  0.00  0.00    +0.000 C 
BRANCH  17  23
ATOM     20  C   UNL     1      49.795   7.489  16.259  0.00  0.00    +0.000 A 
ATOM     21  C   UNL     1      48.957   8.581  16.427  0.00  0.00    +0.000 A 
ATOM     22  C   UNL     1      48.037   8.863  15.423  0.00  0.00    +0.000 A 
ATOM     23  C   UNL     1      47.961   8.068  14.271  0.00  0.00    +0.000 A 
ATOM     24  C   UNL     1      48.847   6.988  14.221  0.00  0.00    +0.000 A 
ATOM     25  F   UNL     1      48.835   6.195  13.136  0.00  0.00    +0.000 F 
ATOM     26  N   UNL     1      49.751   6.672  15.181  0.00  0.00    +0.000 NA
BRANCH  20  28
ATOM     27  N   UNL     1      51.574   6.897  18.059  0.00  0.00    +0.000 NA
ATOM     28  C   UNL     1      50.794   7.188  17.246  0.00  0.00    +0.000 C 
ENDBRANCH  20  28
ENDBRANCH  17  23
ENDBRANCH   1  17
TORSDOF 6
ENDMDL
MODEL 9
REMARK VINA RESULT:    -5.376      3.741      5.214
REMARK INTER + INTRA:          -7.964
REMARK INTER:                  -7.394
REMARK INTRA:                  -0.570
REMARK UNBOUND:                -0.859
REMARK  Name = 
REMARK  6 active torsions:
REMARK  status: ('A' for Active; 'I' for Inactive)
REMARK    1  A    between atoms: C_2  and  C_3
REMARK    2  A    between atoms: C_6  and  C_7
REMARK    3  A    between atoms: C_7  and  N_8
REMARK    4  A    between atoms: N_8  and  C_9
REMARK    5  A    between atoms: C_12  and  C_13
REMARK    6  A    between atoms: C_17  and  N_18
REMARK                            x       y       z     vdW  Elec       q    Type
REMARK                         _______ _______ _______ _____ _____    ______ ____
ROOT
ATOM      1  N   UNL     1      46.733   7.381  13.694  0.00  0.00    +0.000 N 
ATOM      2  H   UNL     1      46.218   8.212  13.935  0.00  0.00    +0.000 HD
ENDROOT
BRANCH   1   3
ATOM      3  C   UNL     1      46.027   6.528  12.817  0.00  0.00    +0.000 A 
ATOM      4  N   UNL     1      45.702   6.936  11.570  0.00  0.00    +0.000 NA
ATOM      5  C   UNL     1      45.108   6.033  10.741  0.00  0.00    +0.000 A 
ATOM      6  C   UNL     1      44.842   4.709  11.083  0.00  0.00    +0.000 A 
ATOM      7  C   UNL     1      45.204   4.298  12.362  0.00  0.00    +0.000 A 
ATOM      8  C   UNL     1      45.754   5.210  13.270  0.00  0.00    +0.000 A 
BRANCH   6   9
ATOM      9  C   UNL     1      44.205   3.821  10.082  0.00  0.00    +0.000 C 
ATOM     10  N   UNL     1      44.107   4.255   8.786  0.00  0.00    +0.000 N 
ATOM     11  O   UNL     1      43.779   2.717  10.394  0.00  0.00    +0.000 OA
ATOM     12  H   UNL     1      44.416   5.147   8.436  0.00  0.00    +0.000 HD
ATOM     13  H   UNL     1      43.662   3.628   8.127  0.00  0.00    +0.000 HD
ENDBRANCH   6   9
BRANCH   8  14
ATOM     14  N   UNL     1      46.220   4.714  14.505  0.00  0.00    +0.000 N 
ATOM     15  H   UNL     1      47.161   4.335  14.483  0.00  0.00    +0.000 HD
ATOM     16  H   UNL     1      45.579   4.106  14.997  0.00  0.00    +0.000 HD
ENDBRANCH   8  14
ENDBRANCH   1   3
BRANCH   1  17
ATOM     17  C   UNL     1      48.194   7.449  13.788  0.00  0.00    +0.000 C 
ATOM     18  C   UNL     1      49.105   6.853  12.729  0.00  0.00    +0.000 C 
ATOM     19  C   UNL     1      48.878   8.327  12.749  0.00  0.00    +0.000 C 
BRANCH  17  23
ATOM     20  C   UNL     1      49.364   7.352  17.902  0.00  0.00    +0.000 A 
ATOM     21  C   UNL     1      49.551   6.212  17.134  0.00  0.00    +0.000 A 
ATOM     22  C   UNL     1      49.205   6.264  15.788  0.00  0.00    +0.000 A 
ATOM     23  C   UNL     1      48.680   7.435  15.223  0.00  0.00    +0.000 A 
ATOM     24  C   UNL     1      48.551   8.521  16.093  0.00  0.00    +0.000 A 
ATOM     25  F   UNL     1      48.039   9.669  15.618  0.00  0.00    +0.000 F 
ATOM     26  N   UNL     1      48.884   8.516  17.407  0.00  0.00    +0.000 NA
BRANCH  20  28
ATOM     27  N   UNL     1      49.866   7.267  20.451  0.00  0.00    +0.000 NA
ATOM     28  C   UNL     1      49.660   7.330  19.308  0.00  0.00    +0.000 C 
ENDBRANCH  20  28
ENDBRANCH  17  23
ENDBRANCH   1  17
TORSDOF 6
ENDMDL
