MODEL 1
REMARK VINA RESULT:    -7.265      0.000      0.000
REMARK INTER + INTRA:          -8.434
REMARK INTER:                  -8.963
REMARK INTRA:                   0.529
REMARK UNBOUND:                 0.529
REMARK  Name = 
REMARK  7 active torsions:
REMARK  status: ('A' for Active; 'I' for Inactive)
REMARK    1  A    between atoms: C_1  and  C_2
REMARK    2  A    between atoms: C_2  and  C_3
REMARK    3  A    between atoms: C_2  and  C_4
REMARK    4  A    between atoms: C_2  and  C_5
REMARK    5  A    between atoms: N_8  and  C_9
REMARK    6  A    between atoms: C_9  and  C_10
REMARK    7  A    between atoms: C_20  and  C_21
REMARK                            x       y       z     vdW  Elec       q    Type
REMARK                         _______ _______ _______ _____ _____    ______ ____
ROOT
ATOM      1  C   UNL     1      47.751   4.843  15.875  0.00  0.00    +0.000 A 
ATOM      2  N   UNL     1      46.771   4.186  15.168  0.00  0.00    +0.000 NA
ATOM      3  C   UNL     1      46.400   4.581  13.932  0.00  0.00    +0.000 A 
ATOM      4  N   UNL     1      45.470   3.758  13.289  0.00  0.00    +0.000 N 
ATOM      5  C   UNL     1      47.005   5.655  13.324  0.00  0.00    +0.000 A 
ATOM      6  C   UNL     1      48.011   6.333  14.008  0.00  0.00    +0.000 A 
ATOM      7  C   UNL     1      48.390   5.958  15.311  0.00  0.00    +0.000 A 
ATOM      8  H   UNL     1      45.127   3.114  14.001  0.00  0.00    +0.000 HD
ENDROOT
BRANCH   7   9
ATOM      9  C   UNL     1      49.484   6.763  15.939  0.00  0.00    +0.000 C 
ATOM     10  N   UNL     1      49.115   7.874  16.652  0.00  0.00    +0.000 N 
ATOM     11  O   UNL     1      50.672   6.504  15.838  0.00  0.00    +0.000 OA
ATOM     12  H   UNL     1      48.163   8.128  16.870  0.00  0.00    +0.000 HD
ATOM     13  H   UNL     1      49.862   8.414  17.075  0.00  0.00    +0.000 HD
ENDBRANCH   7   9
BRANCH   1  15
ATOM     14  C   UNL     1      47.158   2.940  17.469  0.00  0.00    +0.000 C 
ATOM     15  C   UNL     1      48.019   4.229  17.268  0.00  0.00    +0.000 C 
ATOM     16  C   UNL     1      47.623   5.169  18.423  0.00  0.00    +0.000 C 
ATOM     17  C   UNL     1      49.477   3.748  17.412  0.00  0.00    +0.000 C 
ENDBRANCH   1  15
BRANCH   4  18
ATOM     18  C   UNL     1      44.431   4.256  12.350  0.00  0.00    +0.000 C 
ATOM     19  C   UNL     1      43.897   5.648  12.692  0.00  0.00    +0.000 C 
ATOM     20  C   UNL     1      42.983   4.474  12.763  0.00  0.00    +0.000 C 
BRANCH  18  21
ATOM     21  C   UNL     1      44.719   3.962  10.861  0.00  0.00    +0.000 A 
ATOM     22  N   UNL     1      45.365   4.895  10.121  0.00  0.00    +0.000 NA
ATOM     23  C   UNL     1      45.574   4.614   8.821  0.00  0.00    +0.000 A 
ATOM     24  C   UNL     1      45.184   3.442   8.223  0.00  0.00    +0.000 A 
ATOM     25  C   UNL     1      44.552   2.544   9.047  0.00  0.00    +0.000 A 
ATOM     26  N   UNL     1      44.307   2.777  10.351  0.00  0.00    +0.000 NA
ENDBRANCH  18  21
ENDBRANCH   4  18
TORSDOF 4
ENDMDL
MODEL 2
REMARK VINA RESULT:    -7.243      1.963      3.513
REMARK INTER + INTRA:          -8.407
REMARK INTER:                  -8.206
REMARK INTRA:                  -0.201
REMARK UNBOUND:                 0.529
REMARK  Name = 
REMARK  7 active torsions:
REMARK  status: ('A' for Active; 'I' for Inactive)
REMARK    1  A    between atoms: C_1  and  C_2
REMARK    2  A    between atoms: C_2  and  C_3
REMARK    3  A    between atoms: C_2  and  C_4
REMARK    4  A    between atoms: C_2  and  C_5
REMARK    5  A    between atoms: N_8  and  C_9
REMARK    6  A    between atoms: C_9  and  C_10
REMARK    7  A    between atoms: C_20  and  C_21
REMARK                            x       y       z     vdW  Elec       q    Type
REMARK                         _______ _______ _______ _____ _____    ______ ____
ROOT
ATOM      1  C   UNL     1      47.820   7.024  13.294  0.00  0.00    +0.000 A 
ATOM      2  N   UNL     1      46.873   6.713  12.346  0.00  0.00    +0.000 NA
ATOM      3  C   UNL     1      46.036   5.665  12.494  0.00  0.00    +0.000 A 
ATOM      4  N   UNL     1      45.055   5.531  11.506  0.00  0.00    +0.000 N 
ATOM      5  C   UNL     1      46.090   4.872  13.616  0.00  0.00    +0.000 A 
ATOM      6  C   UNL     1      47.028   5.169  14.601  0.00  0.00    +0.000 A 
ATOM      7  C   UNL     1      47.934   6.237  14.452  0.00  0.00    +0.000 A 
ATOM      8  H   UNL     1      45.317   6.178  10.763  0.00  0.00    +0.000 HD
ENDROOT
BRANCH   7   9
ATOM      9  C   UNL     1      48.892   6.456  15.579  0.00  0.00    +0.000 C 
ATOM     10  N   UNL     1      48.366   6.844  16.783  0.00  0.00    +0.000 N 
ATOM     11  O   UNL     1      50.102   6.332  15.485  0.00  0.00    +0.000 OA
ATOM     12  H   UNL     1      47.380   6.892  16.991  0.00  0.00    +0.000 HD
ATOM     13  H   UNL     1      49.022   6.991  17.542  0.00  0.00    +0.000 HD
ENDBRANCH   7   9
BRANCH   1  15
ATOM     14  C   UNL     1      48.024   9.034  11.736  0.00  0.00    +0.000 C 
ATOM     15  C   UNL     1      48.674   8.258  12.927  0.00  0.00    +0.000 C 
ATOM     16  C   UNL     1      50.090   7.884  12.446  0.00  0.00    +0.000 C 
ATOM     17  C   UNL     1      48.725   9.283  14.077  0.00  0.00    +0.000 C 
ENDBRANCH   1  15
BRANCH   4  18
ATOM     18  C   UNL     1      44.525   4.225  11.034  0.00  0.00    +0.000 C 
ATOM     19  C   UNL     1      43.011   4.077  11.185  0.00  0.00    +0.000 C 
ATOM     20  C   UNL     1      43.915   3.195  11.974  0.00  0.00    +0.000 C 
BRANCH  18  21
ATOM     21  C   UNL     1      45.152   3.717   9.717  0.00  0.00    +0.000 A 
ATOM     22  N   UNL     1      45.274   2.381   9.521  0.00  0.00    +0.000 NA
ATOM     23  C   UNL     1      45.851   1.977   8.373  0.00  0.00    +0.000 A 
ATOM     24  C   UNL     1      46.298   2.837   7.402  0.00  0.00    +0.000 A 
ATOM     25  C   UNL     1      46.121   4.172   7.671  0.00  0.00    +0.000 A 
ATOM     26  N   UNL     1      45.561   4.632   8.807  0.00  0.00    +0.000 NA
ENDBRANCH  18  21
ENDBRANCH   4  18
TORSDOF 4
ENDMDL
MODEL 3
REMARK VINA RESULT:    -6.265      1.880      2.713
REMARK INTER + INTRA:          -7.200
REMARK INTER:                  -7.623
REMARK INTRA:                   0.422
REMARK UNBOUND:                 0.529
REMARK  Name = 
REMARK  7 active torsions:
REMARK  status: ('A' for Active; 'I' for Inactive)
REMARK    1  A    between atoms: C_1  and  C_2
REMARK    2  A    between atoms: C_2  and  C_3
REMARK    3  A    between atoms: C_2  and  C_4
REMARK    4  A    between atoms: C_2  and  C_5
REMARK    5  A    between atoms: N_8  and  C_9
REMARK    6  A    between atoms: C_9  and  C_10
REMARK    7  A    between atoms: C_20  and  C_21
REMARK                            x       y       z     vdW  Elec       q    Type
REMARK                         _______ _______ _______ _____ _____    ______ ____
ROOT
ATOM      1  C   UNL     1      48.449   7.061  14.184  0.00  0.00    +0.000 A 
ATOM      2  N   UNL     1      47.509   6.064  14.068  0.00  0.00    +0.000 NA
ATOM      3  C   UNL     1      46.835   5.853  12.918  0.00  0.00    +0.000 A 
ATOM      4  N   UNL     1      45.988   4.740  12.910  0.00  0.00    +0.000 N 
ATOM      5  C   UNL     1      47.076   6.626  11.807  0.00  0.00    +0.000 A 
ATOM      6  C   UNL     1      48.032   7.635  11.888  0.00  0.00    +0.000 A 
ATOM      7  C   UNL     1      48.724   7.894  13.087  0.00  0.00    +0.000 A 
ATOM      8  H   UNL     1      45.930   4.426  13.878  0.00  0.00    +0.000 HD
ENDROOT
BRANCH   7   9
ATOM      9  C   UNL     1      49.727   9.002  13.046  0.00  0.00    +0.000 C 
ATOM     10  N   UNL     1      50.905   8.759  12.389  0.00  0.00    +0.000 N 
ATOM     11  O   UNL     1      49.570  10.090  13.577  0.00  0.00    +0.000 OA
ATOM     12  H   UNL     1      51.100   7.931  11.847  0.00  0.00    +0.000 HD
ATOM     13  H   UNL     1      51.580   9.516  12.367  0.00  0.00    +0.000 HD
ENDBRANCH   7   9
BRANCH   1  15
ATOM     14  C   UNL     1      48.695   5.884  16.434  0.00  0.00    +0.000 C 
ATOM     15  C   UNL     1      49.101   7.131  15.583  0.00  0.00    +0.000 C 
ATOM     16  C   UNL     1      48.635   8.352  16.400  0.00  0.00    +0.000 C 
ATOM     17  C   UNL     1      50.640   7.063  15.504  0.00  0.00    +0.000 C 
ENDBRANCH   1  15
BRANCH   4  18
ATOM     18  C   UNL     1      44.708   4.675  12.157  0.00  0.00    +0.000 C 
ATOM     19  C   UNL     1      43.818   5.906  12.335  0.00  0.00    +0.000 C 
ATOM     20  C   UNL     1      43.353   4.585  12.842  0.00  0.00    +0.000 C 
BRANCH  18  21
ATOM     21  C   UNL     1      44.833   4.101  10.729  0.00  0.00    +0.000 A 
ATOM     22  N   UNL     1      44.417   2.833  10.492  0.00  0.00    +0.000 NA
ATOM     23  C   UNL     1      44.568   2.358   9.242  0.00  0.00    +0.000 A 
ATOM     24  C   UNL     1      45.099   3.088   8.208  0.00  0.00    +0.000 A 
ATOM     25  C   UNL     1      45.479   4.368   8.528  0.00  0.00    +0.000 A 
ATOM     26  N   UNL     1      45.362   4.891   9.764  0.00  0.00    +0.000 NA
ENDBRANCH  18  21
ENDBRANCH   4  18
TORSDOF 4
ENDMDL
MODEL 4
REMARK VINA RESULT:    -6.131      2.606      7.249
REMARK INTER + INTRA:          -7.036
REMARK INTER:                  -7.440
REMARK INTRA:                   0.404
REMARK UNBOUND:                 0.529
REMARK  Name = 
REMARK  7 active torsions:
REMARK  status: ('A' for Active; 'I' for Inactive)
REMARK    1  A    between atoms: C_1  and  C_2
REMARK    2  A    between atoms: C_2  and  C_3
REMARK    3  A    between atoms: C_2  and  C_4
REMARK    4  A    between atoms: C_2  and  C_5
REMARK    5  A    between atoms: N_8  and  C_9
REMARK    6  A    between atoms: C_9  and  C_10
REMARK    7  A    between atoms: C_20  and  C_21
REMARK                            x       y       z     vdW  Elec       q    Type
REMARK                         _______ _______ _______ _____ _____    ______ ____
ROOT
ATOM      1  C   UNL     1      45.900   5.331  12.851  0.00  0.00    +0.000 A 
ATOM      2  N   UNL     1      46.680   5.816  13.875  0.00  0.00    +0.000 NA
ATOM      3  C   UNL     1      47.303   4.994  14.745  0.00  0.00    +0.000 A 
ATOM      4  N   UNL     1      48.147   5.619  15.668  0.00  0.00    +0.000 N 
ATOM      5  C   UNL     1      47.192   3.628  14.628  0.00  0.00    +0.000 A 
ATOM      6  C   UNL     1      46.421   3.106  13.594  0.00  0.00    +0.000 A 
ATOM      7  C   UNL     1      45.735   3.945  12.695  0.00  0.00    +0.000 A 
ATOM      8  H   UNL     1      47.955   6.617  15.591  0.00  0.00    +0.000 HD
ENDROOT
BRANCH   7   9
ATOM      9  C   UNL     1      44.941   3.263  11.626  0.00  0.00    +0.000 C 
ATOM     10  N   UNL     1      43.835   2.557  12.020  0.00  0.00    +0.000 N 
ATOM     11  O   UNL     1      45.230   3.280  10.440  0.00  0.00    +0.000 OA
ATOM     12  H   UNL     1      43.461   2.550  12.957  0.00  0.00    +0.000 HD
ATOM     13  H   UNL     1      43.302   2.098  11.289  0.00  0.00    +0.000 HD
ENDBRANCH   7   9
BRANCH   1  15
ATOM     14  C   UNL     1      45.446   7.834  12.662  0.00  0.00    +0.000 C 
ATOM     15  C   UNL     1      45.277   6.440  11.975  0.00  0.00    +0.000 C 
ATOM     16  C   UNL     1      43.759   6.265  11.775  0.00  0.00    +0.000 C 
ATOM     17  C   UNL     1      46.008   6.583  10.624  0.00  0.00    +0.000 C 
ENDBRANCH   1  15
BRANCH   4  18
ATOM     18  C   UNL     1      48.366   5.133  17.055  0.00  0.00    +0.000 C 
ATOM     19  C   UNL     1      47.081   4.759  17.794  0.00  0.00    +0.000 C 
ATOM     20  C   UNL     1      47.900   5.903  18.282  0.00  0.00    +0.000 C 
BRANCH  18  21
ATOM     21  C   UNL     1      49.571   4.180  17.218  0.00  0.00    +0.000 A 
ATOM     22  N   UNL     1      49.403   2.860  16.960  0.00  0.00    +0.000 NA
ATOM     23  C   UNL     1      50.469   2.057  17.140  0.00  0.00    +0.000 A 
ATOM     24  C   UNL     1      51.700   2.505  17.549  0.00  0.00    +0.000 A 
ATOM     25  C   UNL     1      51.789   3.857  17.772  0.00  0.00    +0.000 A 
ATOM     26  N   UNL     1      50.753   4.704  17.619  0.00  0.00    +0.000 NA
ENDBRANCH  18  21
ENDBRANCH   4  18
TORSDOF 4
ENDMDL
MODEL 5
REMARK VINA RESULT:    -6.040      1.834      2.880
REMARK INTER + INTRA:          -6.923
REMARK INTER:                  -7.189
REMARK INTRA:                   0.266
REMARK UNBOUND:                 0.529
REMARK  Name = 
REMARK  7 active torsions:
REMARK  status: ('A' for Active; 'I' for Inactive)
REMARK    1  A    between atoms: C_1  and  C_2
REMARK    2  A    between atoms: C_2  and  C_3
REMARK    3  A    between atoms: C_2  and  C_4
REMARK    4  A    between atoms: C_2  and  C_5
REMARK    5  A    between atoms: N_8  and  C_9
REMARK    6  A    between atoms: C_9  and  C_10
REMARK    7  A    between atoms: C_20  and  C_21
REMARK                            x       y       z     vdW  Elec       q    Type
REMARK                         _______ _______ _______ _____ _____    ______ ____
ROOT
ATOM      1  C   UNL     1      48.983   5.293  16.842  0.00  0.00    +0.000 A 
ATOM      2  N   UNL     1      48.345   5.062  15.645  0.00  0.00    +0.000 NA
ATOM      3  C   UNL     1      48.040   6.066  14.797  0.00  0.00    +0.000 A 
ATOM      4  N   UNL     1      47.490   5.675  13.572  0.00  0.00    +0.000 N 
ATOM      5  C   UNL     1      48.373   7.367  15.094  0.00  0.00    +0.000 A 
ATOM      6  C   UNL     1      49.032   7.632  16.291  0.00  0.00    +0.000 A 
ATOM      7  C   UNL     1      49.330   6.604  17.206  0.00  0.00    +0.000 A 
ATOM      8  H   UNL     1      47.264   4.686  13.670  0.00  0.00    +0.000 HD
ENDROOT
BRANCH   7   9
ATOM      9  C   UNL     1      50.041   7.016  18.456  0.00  0.00    +0.000 C 
ATOM     10  N   UNL     1      49.284   7.564  19.458  0.00  0.00    +0.000 N 
ATOM     11  O   UNL     1      51.246   6.913  18.626  0.00  0.00    +0.000 OA
ATOM     12  H   UNL     1      48.277   7.615  19.455  0.00  0.00    +0.000 HD
ATOM     13  H   UNL     1      49.774   7.841  20.301  0.00  0.00    +0.000 HD
ENDBRANCH   7   9
BRANCH   1  15
ATOM     14  C   UNL     1      48.522   2.788  16.992  0.00  0.00    +0.000 C 
ATOM     15  C   UNL     1      49.234   4.008  17.662  0.00  0.00    +0.000 C 
ATOM     16  C   UNL     1      48.657   4.085  19.088  0.00  0.00    +0.000 C 
ATOM     17  C   UNL     1      50.728   3.623  17.682  0.00  0.00    +0.000 C 
ENDBRANCH   1  15
BRANCH   4  18
ATOM     18  C   UNL     1      46.483   6.472  12.822  0.00  0.00    +0.000 C 
ATOM     19  C   UNL     1      47.085   7.407  11.773  0.00  0.00    +0.000 C 
ATOM     20  C   UNL     1      46.370   7.984  12.945  0.00  0.00    +0.000 C 
BRANCH  18  21
ATOM     21  C   UNL     1      45.217   5.685  12.416  0.00  0.00    +0.000 A 
ATOM     22  N   UNL     1      45.249   4.923  11.297  0.00  0.00    +0.000 NA
ATOM     23  C   UNL     1      44.118   4.274  10.960  0.00  0.00    +0.000 A 
ATOM     24  C   UNL     1      42.959   4.334  11.693  0.00  0.00    +0.000 A 
ATOM     25  C   UNL     1      43.017   5.114  12.821  0.00  0.00    +0.000 A 
ATOM     26  N   UNL     1      44.117   5.794  13.199  0.00  0.00    +0.000 NA
ENDBRANCH  18  21
ENDBRANCH   4  18
TORSDOF 4
ENDMDL
MODEL 6
REMARK VINA RESULT:    -6.000      2.296      6.852
REMARK INTER + INTRA:          -6.873
REMARK INTER:                  -7.340
REMARK INTRA:                   0.467
REMARK UNBOUND:                 0.529
REMARK  Name = 
REMARK  7 active torsions:
REMARK  status: ('A' for Active; 'I' for Inactive)
REMARK    1  A    between atoms: C_1  and  C_2
REMARK    2  A    between atoms: C_2  and  C_3
REMARK    3  A    between atoms: C_2  and  C_4
REMARK    4  A    between atoms: C_2  and  C_5
REMARK    5  A    between atoms: N_8  and  C_9
REMARK    6  A    between atoms: C_9  and  C_10
REMARK    7  A    between atoms: C_20  and  C_21
REMARK                            x       y       z     vdW  Elec       q    Type
REMARK                         _______ _______ _______ _____ _____    ______ ____
ROOT
ATOM      1  C   UNL     1      45.259   4.522  12.489  0.00  0.00    +0.000 A 
ATOM      2  N   UNL     1      45.520   4.027  13.745  0.00  0.00    +0.000 NA
ATOM      3  C   UNL     1      46.466   4.569  14.541  0.00  0.00    +0.000 A 
ATOM      4  N   UNL     1      46.550   4.033  15.830  0.00  0.00    +0.000 N 
ATOM      5  C   UNL     1      47.200   5.655  14.125  0.00  0.00    +0.000 A 
ATOM      6  C   UNL     1      46.950   6.188  12.864  0.00  0.00    +0.000 A 
ATOM      7  C   UNL     1      45.991   5.619  12.005  0.00  0.00    +0.000 A 
ATOM      8  H   UNL     1      45.973   3.192  15.822  0.00  0.00    +0.000 HD
ENDROOT
BRANCH   7   9
ATOM      9  C   UNL     1      45.814   6.283  10.677  0.00  0.00    +0.000 C 
ATOM     10  N   UNL     1      45.036   7.411  10.638  0.00  0.00    +0.000 N 
ATOM     11  O   UNL     1      46.297   5.874   9.633  0.00  0.00    +0.000 OA
ATOM     12  H   UNL     1      44.663   7.880  11.450  0.00  0.00    +0.000 HD
ATOM     13  H   UNL     1      44.920   7.856   9.734  0.00  0.00    +0.000 HD
ENDBRANCH   7   9
BRANCH   1  15
ATOM     14  C   UNL     1      43.562   2.624  12.657  0.00  0.00    +0.000 C 
ATOM     15  C   UNL     1      44.142   3.756  11.746  0.00  0.00    +0.000 C 
ATOM     16  C   UNL     1      44.647   3.041  10.478  0.00  0.00    +0.000 C 
ATOM     17  C   UNL     1      42.933   4.662  11.436  0.00  0.00    +0.000 C 
ENDBRANCH   1  15
BRANCH   4  18
ATOM     18  C   UNL     1      47.817   3.911  16.598  0.00  0.00    +0.000 C 
ATOM     19  C   UNL     1      48.690   2.729  16.174  0.00  0.00    +0.000 C 
ATOM     20  C   UNL     1      48.100   2.752  17.542  0.00  0.00    +0.000 C 
BRANCH  18  21
ATOM     21  C   UNL     1      48.535   5.252  16.867  0.00  0.00    +0.000 A 
ATOM     22  N   UNL     1      49.666   5.540  16.179  0.00  0.00    +0.000 NA
ATOM     23  C   UNL     1      50.279   6.706  16.461  0.00  0.00    +0.000 A 
ATOM     24  C   UNL     1      49.812   7.607  17.385  0.00  0.00    +0.000 A 
ATOM     25  C   UNL     1      48.653   7.246  18.024  0.00  0.00    +0.000 A 
ATOM     26  N   UNL     1      48.004   6.089  17.790  0.00  0.00    +0.000 NA
ENDBRANCH  18  21
ENDBRANCH   4  18
TORSDOF 4
ENDMDL
MODEL 7
REMARK VINA RESULT:    -5.954      2.657      7.631
REMARK INTER + INTRA:          -6.817
REMARK INTER:                  -6.251
REMARK INTRA:                  -0.566
REMARK UNBOUND:                 0.529
REMARK  Name = 
REMARK  7 active torsions:
REMARK  status: ('A' for Active; 'I' for Inactive)
REMARK    1  A    between atoms: C_1  and  C_2
REMARK    2  A    between atoms: C_2  and  C_3
REMARK    3  A    between atoms: C_2  and  C_4
REMARK    4  A    between atoms: C_2  and  C_5
REMARK    5  A    between atoms: N_8  and  C_9
REMARK    6  A    between atoms: C_9  and  C_10
REMARK    7  A    between atoms: C_20  and  C_21
REMARK                            x       y       z     vdW  Elec       q    Type
REMARK                         _______ _______ _______ _____ _____    ______ ____
ROOT
ATOM      1  C   UNL     1      46.722   6.024  13.260  0.00  0.00    +0.000 A 
ATOM      2  N   UNL     1      47.795   6.582  13.914  0.00  0.00    +0.000 NA
ATOM      3  C   UNL     1      48.331   6.014  15.015  0.00  0.00    +0.000 A 
ATOM      4  N   UNL     1      49.483   6.631  15.513  0.00  0.00    +0.000 N 
ATOM      5  C   UNL     1      47.826   4.839  15.519  0.00  0.00    +0.000 A 
ATOM      6  C   UNL     1      46.747   4.242  14.872  0.00  0.00    +0.000 A 
ATOM      7  C   UNL     1      46.153   4.834  13.741  0.00  0.00    +0.000 A 
ATOM      8  H   UNL     1      49.562   7.518  15.017  0.00  0.00    +0.000 HD
ENDROOT
BRANCH   7   9
ATOM      9  C   UNL     1      45.003   4.095  13.134  0.00  0.00    +0.000 C 
ATOM     10  N   UNL     1      45.276   2.896  12.530  0.00  0.00    +0.000 N 
ATOM     11  O   UNL     1      43.852   4.501  13.126  0.00  0.00    +0.000 OA
ATOM     12  H   UNL     1      46.171   2.430  12.555  0.00  0.00    +0.000 HD
ATOM     13  H   UNL     1      44.491   2.401  12.120  0.00  0.00    +0.000 HD
ENDBRANCH   7   9
BRANCH   1  15
ATOM     14  C   UNL     1      47.373   7.855  11.607  0.00  0.00    +0.000 C 
ATOM     15  C   UNL     1      46.266   6.834  12.026  0.00  0.00    +0.000 C 
ATOM     16  C   UNL     1      45.009   7.684  12.299  0.00  0.00    +0.000 C 
ATOM     17  C   UNL     1      46.077   5.935  10.787  0.00  0.00    +0.000 C 
ENDBRANCH   1  15
BRANCH   4  18
ATOM     18  C   UNL     1      49.835   6.692  16.956  0.00  0.00    +0.000 C 
ATOM     19  C   UNL     1      51.331   6.858  17.226  0.00  0.00    +0.000 C 
ATOM     20  C   UNL     1      50.643   5.608  17.654  0.00  0.00    +0.000 C 
BRANCH  18  21
ATOM     21  C   UNL     1      48.869   7.536  17.816  0.00  0.00    +0.000 A 
ATOM     22  N   UNL     1      48.612   8.816  17.450  0.00  0.00    +0.000 NA
ATOM     23  C   UNL     1      47.787   9.529  18.239  0.00  0.00    +0.000 A 
ATOM     24  C   UNL     1      47.191   9.027  19.369  0.00  0.00    +0.000 A 
ATOM     25  C   UNL     1      47.490   7.719  19.659  0.00  0.00    +0.000 A 
ATOM     26  N   UNL     1      48.317   6.963  18.911  0.00  0.00    +0.000 NA
ENDBRANCH  18  21
ENDBRANCH   4  18
TORSDOF 4
ENDMDL
MODEL 8
REMARK VINA RESULT:    -5.524      3.941      6.880
REMARK INTER + INTRA:          -6.287
REMARK INTER:                  -5.717
REMARK INTRA:                  -0.569
REMARK UNBOUND:                 0.529
REMARK  Name = 
REMARK  7 active torsions:
REMARK  status: ('A' for Active; 'I' for Inactive)
REMARK    1  A    between atoms: C_1  and  C_2
REMARK    2  A    between atoms: C_2  and  C_3
REMARK    3  A    between atoms: C_2  and  C_4
REMARK    4  A    between atoms: C_2  and  C_5
REMARK    5  A    between atoms: N_8  and  C_9
REMARK    6  A    between atoms: C_9  and  C_10
REMARK    7  A    between atoms: C_20  and  C_21
REMARK                            x       y       z     vdW  Elec       q    Type
REMARK                         _______ _______ _______ _____ _____    ______ ____
ROOT
ATOM      1  C   UNL     1      48.894   8.066  13.656  0.00  0.00    +0.000 A 
ATOM      2  N   UNL     1      48.309   7.732  14.855  0.00  0.00    +0.000 NA
ATOM      3  C   UNL     1      49.045   7.411  15.940  0.00  0.00    +0.000 A 
ATOM      4  N   UNL     1      48.322   7.198  17.118  0.00  0.00    +0.000 N 
ATOM      5  C   UNL     1      50.419   7.422  15.889  0.00  0.00    +0.000 A 
ATOM      6  C   UNL     1      51.041   7.770  14.693  0.00  0.00    +0.000 A 
ATOM      7  C   UNL     1      50.293   8.076  13.540  0.00  0.00    +0.000 A 
ATOM      8  H   UNL     1      47.342   7.152  16.841  0.00  0.00    +0.000 HD
ENDROOT
BRANCH   7   9
ATOM      9  C   UNL     1      51.077   8.435  12.319  0.00  0.00    +0.000 C 
ATOM     10  N   UNL     1      51.244   7.460  11.370  0.00  0.00    +0.000 N 
ATOM     11  O   UNL     1      51.590   9.527  12.128  0.00  0.00    +0.000 OA
ATOM     12  H   UNL     1      50.793   6.558  11.388  0.00  0.00    +0.000 HD
ATOM     13  H   UNL     1      51.777   7.712  10.545  0.00  0.00    +0.000 HD
ENDBRANCH   7   9
BRANCH   1  15
ATOM     14  C   UNL     1      46.441   8.560  13.155  0.00  0.00    +0.000 C 
ATOM     15  C   UNL     1      47.872   8.397  12.545  0.00  0.00    +0.000 C 
ATOM     16  C   UNL     1      47.743   7.274  11.497  0.00  0.00    +0.000 C 
ATOM     17  C   UNL     1      48.167   9.756  11.879  0.00  0.00    +0.000 C 
ENDBRANCH   1  15
BRANCH   4  18
ATOM     18  C   UNL     1      48.716   6.223  18.169  0.00  0.00    +0.000 C 
ATOM     19  C   UNL     1      48.014   6.435  19.511  0.00  0.00    +0.000 C 
ATOM     20  C   UNL     1      49.489   6.623  19.417  0.00  0.00    +0.000 C 
BRANCH  18  21
ATOM     21  C   UNL     1      48.854   4.766  17.673  0.00  0.00    +0.000 A 
ATOM     22  N   UNL     1      49.998   4.089  17.935  0.00  0.00    +0.000 NA
ATOM     23  C   UNL     1      50.092   2.832  17.463  0.00  0.00    +0.000 A 
ATOM     24  C   UNL     1      49.097   2.208  16.754  0.00  0.00    +0.000 A 
ATOM     25  C   UNL     1      47.965   2.957  16.547  0.00  0.00    +0.000 A 
ATOM     26  N   UNL     1      47.821   4.222  16.986  0.00  0.00    +0.000 NA
ENDBRANCH  18  21
ENDBRANCH   4  18
TORSDOF 4
ENDMDL
MODEL 9
REMARK VINA RESULT:    -5.414      2.873      4.350
REMARK INTER + INTRA:          -6.150
REMARK INTER:                  -5.579
REMARK INTRA:                  -0.571
REMARK UNBOUND:                 0.529
REMARK  Name = 
REMARK  7 active torsions:
REMARK  status: ('A' for Active; 'I' for Inactive)
REMARK    1  A    between atoms: C_1  and  C_2
REMARK    2  A    between atoms: C_2  and  C_3
REMARK    3  A    between atoms: C_2  and  C_4
REMARK    4  A    between atoms: C_2  and  C_5
REMARK    5  A    between atoms: N_8  and  C_9
REMARK    6  A    between atoms: C_9  and  C_10
REMARK    7  A    between atoms: C_20  and  C_21
REMARK                            x       y       z     vdW  Elec       q    Type
REMARK                         _______ _______ _______ _____ _____    ______ ____
ROOT
ATOM      1  C   UNL     1      48.842   7.166  17.817  0.00  0.00    +0.000 A 
ATOM      2  N   UNL     1      49.000   6.749  16.516  0.00  0.00    +0.000 NA
ATOM      3  C   UNL     1      48.716   7.556  15.472  0.00  0.00    +0.000 A 
ATOM      4  N   UNL     1      49.024   7.040  14.209  0.00  0.00    +0.000 N 
ATOM      5  C   UNL     1      48.269   8.840  15.674  0.00  0.00    +0.000 A 
ATOM      6  C   UNL     1      48.112   9.296  16.980  0.00  0.00    +0.000 A 
ATOM      7  C   UNL     1      48.370   8.462  18.083  0.00  0.00    +0.000 A 
ATOM      8  H   UNL     1      49.237   6.053  14.355  0.00  0.00    +0.000 HD
ENDROOT
BRANCH   7   9
ATOM      9  C   UNL     1      48.166   9.068  19.435  0.00  0.00    +0.000 C 
ATOM     10  N   UNL     1      49.176   9.850  19.931  0.00  0.00    +0.000 N 
ATOM     11  O   UNL     1      47.174   8.893  20.124  0.00  0.00    +0.000 OA
ATOM     12  H   UNL     1      49.995  10.129  19.412  0.00  0.00    +0.000 HD
ATOM     13  H   UNL     1      49.030  10.258  20.848  0.00  0.00    +0.000 HD
ENDBRANCH   7   9
BRANCH   1  15
ATOM     14  C   UNL     1      49.752   4.804  18.141  0.00  0.00    +0.000 C 
ATOM     15  C   UNL     1      49.221   6.088  18.858  0.00  0.00    +0.000 C 
ATOM     16  C   UNL     1      48.018   5.619  19.699  0.00  0.00    +0.000 C 
ATOM     17  C   UNL     1      50.390   6.543  19.756  0.00  0.00    +0.000 C 
ENDBRANCH   1  15
BRANCH   4  18
ATOM     18  C   UNL     1      48.243   7.333  12.979  0.00  0.00    +0.000 C 
ATOM     19  C   UNL     1      49.083   7.370  11.702  0.00  0.00    +0.000 C 
ATOM     20  C   UNL     1      48.417   8.614  12.178  0.00  0.00    +0.000 C 
BRANCH  18  21
ATOM     21  C   UNL     1      46.879   6.613  12.900  0.00  0.00    +0.000 A 
ATOM     22  N   UNL     1      45.809   7.287  12.412  0.00  0.00    +0.000 NA
ATOM     23  C   UNL     1      44.631   6.636  12.384  0.00  0.00    +0.000 A 
ATOM     24  C   UNL     1      44.467   5.340  12.804  0.00  0.00    +0.000 A 
ATOM     25  C   UNL     1      45.603   4.724  13.267  0.00  0.00    +0.000 A 
ATOM     26  N   UNL     1      46.804   5.331  13.328  0.00  0.00    +0.000 NA
ENDBRANCH  18  21
ENDBRANCH   4  18
TORSDOF 4
ENDMDL
