MODEL 1
REMARK VINA RESULT:    -8.550      0.000      0.000
REMARK INTER + INTRA:         -11.418
REMARK INTER:                 -11.049
REMARK INTRA:                  -0.369
REMARK UNBOUND:                -0.369
REMARK  Name = 
REMARK  6 active torsions:
REMARK  status: ('A' for Active; 'I' for Inactive)
REMARK    1  A    between atoms: C_1  and  C_2
REMARK    2  A    between atoms: C_2  and  N_3
REMARK    3  A    between atoms: C_2  and  C_16
REMARK    4  A    between atoms: C_4  and  C_6
REMARK    5  A    between atoms: C_19  and  O_20
REMARK    6  A    between atoms: O_20  and  C_21
REMARK                            x       y       z     vdW  Elec       q    Type
REMARK                         _______ _______ _______ _____ _____    ______ ____
ROOT
ATOM      1  C   UNL     1      43.371   4.387  13.550  0.00  0.00    +0.000 C 
ATOM      2  C   UNL     1      44.180   5.530  12.928  0.00  0.00    +0.000 C 
ENDROOT
BRANCH   2   3
ATOM      3  C   UNL     1      44.549   5.176  11.491  0.00  0.00    +0.000 A 
ATOM      4  C   UNL     1      43.849   4.150  10.840  0.00  0.00    +0.000 A 
ATOM      5  C   UNL     1      44.140   3.806   9.517  0.00  0.00    +0.000 A 
ATOM      6  C   UNL     1      45.134   4.474   8.806  0.00  0.00    +0.000 A 
ATOM      7  C   UNL     1      45.861   5.476   9.454  0.00  0.00    +0.000 A 
ATOM      8  C   UNL     1      45.585   5.815  10.788  0.00  0.00    +0.000 A 
BRANCH   6   9
ATOM      9  O   UNL     1      45.482   4.241   7.501  0.00  0.00    +0.000 OA
BRANCH   9  10
ATOM     10  C   UNL     1      46.631   3.420   7.232  0.00  0.00    +0.000 C 
ATOM     11  C   UNL     1      46.822   3.350   5.712  0.00  0.00    +0.000 C 
ATOM     12  C   UNL     1      47.853   2.298   5.335  0.00  0.00    +0.000 C 
ATOM     13  O   UNL     1      47.508   1.032   5.891  0.00  0.00    +0.000 OA
ATOM     14  C   UNL     1      47.514   1.062   7.315  0.00  0.00    +0.000 C 
ATOM     15  C   UNL     1      46.456   2.020   7.833  0.00  0.00    +0.000 C 
ENDBRANCH   9  10
ENDBRANCH   6   9
ENDBRANCH   2   3
BRANCH   2  16
ATOM     16  N   UNL     1      45.356   5.863  13.714  0.00  0.00    +0.000 N 
ATOM     17  C   UNL     1      46.308   4.933  14.054  0.00  0.00    +0.000 C 
ATOM     18  O   UNL     1      46.274   3.768  13.678  0.00  0.00    +0.000 OA
ATOM     19  H   UNL     1      45.273   6.676  14.315  0.00  0.00    +0.000 HD
BRANCH  17  20
ATOM     20  C   UNL     1      47.429   5.432  14.856  0.00  0.00    +0.000 A 
ATOM     21  C   UNL     1      48.218   6.468  14.374  0.00  0.00    +0.000 A 
ATOM     22  S   UNL     1      49.479   6.915  15.430  0.00  0.00    +0.000 S 
ATOM     23  C   UNL     1      49.034   5.719  16.553  0.00  0.00    +0.000 A 
ATOM     24  N   UNL     1      49.748   5.531  17.695  0.00  0.00    +0.000 NA
ATOM     25  C   UNL     1      49.317   4.570  18.446  0.00  0.00    +0.000 A 
ATOM     26  N   UNL     1      48.224   3.789  18.163  0.00  0.00    +0.000 N 
ATOM     27  C   UNL     1      47.449   3.973  17.042  0.00  0.00    +0.000 A 
ATOM     28  O   UNL     1      46.431   3.316  16.856  0.00  0.00    +0.000 OA
ATOM     29  C   UNL     1      47.918   5.009  16.145  0.00  0.00    +0.000 A 
ATOM     30  H   UNL     1      47.921   3.074  18.807  0.00  0.00    +0.000 HD
ENDBRANCH  17  20
ENDBRANCH   2  16
TORSDOF 5
ENDMDL
MODEL 2
REMARK VINA RESULT:    -8.344      1.402      2.188
REMARK INTER + INTRA:         -11.152
REMARK INTER:                 -10.555
REMARK INTRA:                  -0.597
REMARK UNBOUND:                -0.369
REMARK  Name = 
REMARK  6 active torsions:
REMARK  status: ('A' for Active; 'I' for Inactive)
REMARK    1  A    between atoms: C_1  and  C_2
REMARK    2  A    between atoms: C_2  and  N_3
REMARK    3  A    between atoms: C_2  and  C_16
REMARK    4  A    between atoms: C_4  and  C_6
REMARK    5  A    between atoms: C_19  and  O_20
REMARK    6  A    between atoms: O_20  and  C_21
REMARK                            x       y       z     vdW  Elec       q    Type
REMARK                         _______ _______ _______ _____ _____    ______ ____
ROOT
ATOM      1  C   UNL     1      43.054   4.773  13.271  0.00  0.00    +0.000 C 
ATOM      2  C   UNL     1      44.123   5.743  12.756  0.00  0.00    +0.000 C 
ENDROOT
BRANCH   2   3
ATOM      3  C   UNL     1      44.541   5.345  11.344  0.00  0.00    +0.000 A 
ATOM      4  C   UNL     1      43.783   4.389  10.652  0.00  0.00    +0.000 A 
ATOM      5  C   UNL     1      44.118   4.009   9.349  0.00  0.00    +0.000 A 
ATOM      6  C   UNL     1      45.215   4.570   8.700  0.00  0.00    +0.000 A 
ATOM      7  C   UNL     1      45.997   5.499   9.391  0.00  0.00    +0.000 A 
ATOM      8  C   UNL     1      45.676   5.873  10.705  0.00  0.00    +0.000 A 
BRANCH   6   9
ATOM      9  O   UNL     1      45.615   4.294   7.419  0.00  0.00    +0.000 OA
BRANCH   9  10
ATOM     10  C   UNL     1      46.699   3.371   7.221  0.00  0.00    +0.000 C 
ATOM     11  C   UNL     1      46.919   3.209   5.713  0.00  0.00    +0.000 C 
ATOM     12  C   UNL     1      47.868   2.059   5.415  0.00  0.00    +0.000 C 
ATOM     13  O   UNL     1      47.406   0.854   6.021  0.00  0.00    +0.000 OA
ATOM     14  C   UNL     1      47.381   0.955   7.442  0.00  0.00    +0.000 C 
ATOM     15  C   UNL     1      46.394   2.022   7.884  0.00  0.00    +0.000 C 
ENDBRANCH   9  10
ENDBRANCH   6   9
ENDBRANCH   2   3
BRANCH   2  16
ATOM     16  N   UNL     1      45.267   5.825  13.647  0.00  0.00    +0.000 N 
ATOM     17  C   UNL     1      46.044   4.736  13.960  0.00  0.00    +0.000 C 
ATOM     18  O   UNL     1      45.871   3.626  13.471  0.00  0.00    +0.000 OA
ATOM     19  H   UNL     1      45.254   6.587  14.318  0.00  0.00    +0.000 HD
BRANCH  17  20
ATOM     20  C   UNL     1      47.156   4.989  14.880  0.00  0.00    +0.000 A 
ATOM     21  C   UNL     1      47.226   4.303  16.086  0.00  0.00    +0.000 A 
ATOM     22  S   UNL     1      48.577   4.727  17.035  0.00  0.00    +0.000 S 
ATOM     23  C   UNL     1      49.098   5.864  15.883  0.00  0.00    +0.000 A 
ATOM     24  N   UNL     1      50.202   6.627  16.100  0.00  0.00    +0.000 NA
ATOM     25  C   UNL     1      50.467   7.470  15.156  0.00  0.00    +0.000 A 
ATOM     26  N   UNL     1      49.735   7.606  14.003  0.00  0.00    +0.000 N 
ATOM     27  C   UNL     1      48.636   6.827  13.723  0.00  0.00    +0.000 A 
ATOM     28  O   UNL     1      48.050   6.913  12.650  0.00  0.00    +0.000 OA
ATOM     29  C   UNL     1      48.271   5.897  14.772  0.00  0.00    +0.000 A 
ATOM     30  H   UNL     1      50.014   8.263  13.290  0.00  0.00    +0.000 HD
ENDBRANCH  17  20
ENDBRANCH   2  16
TORSDOF 5
ENDMDL
MODEL 3
REMARK VINA RESULT:    -7.847      1.876      2.742
REMARK INTER + INTRA:         -10.510
REMARK INTER:                  -9.928
REMARK INTRA:                  -0.582
REMARK UNBOUND:                -0.369
REMARK  Name = 
REMARK  6 active torsions:
REMARK  status: ('A' for Active; 'I' for Inactive)
REMARK    1  A    between atoms: C_1  and  C_2
REMARK    2  A    between atoms: C_2  and  N_3
REMARK    3  A    between atoms: C_2  and  C_16
REMARK    4  A    between atoms: C_4  and  C_6
REMARK    5  A    between atoms: C_19  and  O_20
REMARK    6  A    between atoms: O_20  and  C_21
REMARK                            x       y       z     vdW  Elec       q    Type
REMARK                         _______ _______ _______ _____ _____    ______ ____
ROOT
ATOM      1  C   UNL     1      46.003   8.967  13.000  0.00  0.00    +0.000 C 
ATOM      2  C   UNL     1      46.828   7.677  12.991  0.00  0.00    +0.000 C 
ENDROOT
BRANCH   2   3
ATOM      3  C   UNL     1      46.056   6.578  12.266  0.00  0.00    +0.000 A 
ATOM      4  C   UNL     1      45.076   6.937  11.330  0.00  0.00    +0.000 A 
ATOM      5  C   UNL     1      44.359   5.963  10.629  0.00  0.00    +0.000 A 
ATOM      6  C   UNL     1      44.598   4.608  10.840  0.00  0.00    +0.000 A 
ATOM      7  C   UNL     1      45.548   4.238  11.794  0.00  0.00    +0.000 A 
ATOM      8  C   UNL     1      46.260   5.209  12.514  0.00  0.00    +0.000 A 
BRANCH   6   9
ATOM      9  O   UNL     1      43.977   3.574  10.190  0.00  0.00    +0.000 OA
BRANCH   9  10
ATOM     10  C   UNL     1      44.526   3.116   8.943  0.00  0.00    +0.000 C 
ATOM     11  C   UNL     1      45.227   1.776   9.193  0.00  0.00    +0.000 C 
ATOM     12  C   UNL     1      46.053   1.353   7.988  0.00  0.00    +0.000 C 
ATOM     13  O   UNL     1      46.972   2.379   7.622  0.00  0.00    +0.000 OA
ATOM     14  C   UNL     1      46.302   3.567   7.213  0.00  0.00    +0.000 C 
ATOM     15  C   UNL     1      45.499   4.150   8.363  0.00  0.00    +0.000 C 
ENDBRANCH   9  10
ENDBRANCH   6   9
ENDBRANCH   2   3
BRANCH   2  16
ATOM     16  N   UNL     1      47.217   7.262  14.328  0.00  0.00    +0.000 N 
ATOM     17  C   UNL     1      48.453   6.732  14.611  0.00  0.00    +0.000 C 
ATOM     18  O   UNL     1      49.342   6.621  13.776  0.00  0.00    +0.000 OA
ATOM     19  H   UNL     1      46.457   7.015  14.954  0.00  0.00    +0.000 HD
BRANCH  17  20
ATOM     20  C   UNL     1      48.681   6.358  16.010  0.00  0.00    +0.000 A 
ATOM     21  C   UNL     1      49.237   7.277  16.890  0.00  0.00    +0.000 A 
ATOM     22  S   UNL     1      49.441   6.671  18.470  0.00  0.00    +0.000 S 
ATOM     23  C   UNL     1      48.823   5.151  18.025  0.00  0.00    +0.000 A 
ATOM     24  N   UNL     1      48.759   4.132  18.922  0.00  0.00    +0.000 NA
ATOM     25  C   UNL     1      48.295   3.023  18.443  0.00  0.00    +0.000 A 
ATOM     26  N   UNL     1      47.873   2.849  17.149  0.00  0.00    +0.000 N 
ATOM     27  C   UNL     1      47.881   3.864  16.221  0.00  0.00    +0.000 A 
ATOM     28  O   UNL     1      47.421   3.702  15.096  0.00  0.00    +0.000 OA
ATOM     29  C   UNL     1      48.435   5.115  16.697  0.00  0.00    +0.000 A 
ATOM     30  H   UNL     1      47.492   1.965  16.846  0.00  0.00    +0.000 HD
ENDBRANCH  17  20
ENDBRANCH   2  16
TORSDOF 5
ENDMDL
MODEL 4
REMARK VINA RESULT:    -7.738      3.866      6.275
REMARK INTER + INTRA:         -10.368
REMARK INTER:                  -9.060
REMARK INTRA:                  -1.308
REMARK UNBOUND:                -0.369
REMARK  Name = 
REMARK  6 active torsions:
REMARK  status: ('A' for Active; 'I' for Inactive)
REMARK    1  A    between atoms: C_1  and  C_2
REMARK    2  A    between atoms: C_2  and  N_3
REMARK    3  A    between atoms: C_2  and  C_16
REMARK    4  A    between atoms: C_4  and  C_6
REMARK    5  A    between atoms: C_19  and  O_20
REMARK    6  A    between atoms: O_20  and  C_21
REMARK                            x       y       z     vdW  Elec       q    Type
REMARK                         _______ _______ _______ _____ _____    ______ ____
ROOT
ATOM      1  C   UNL     1      48.241   6.664  18.690  0.00  0.00    +0.000 C 
ATOM      2  C   UNL     1      49.269   6.421  17.580  0.00  0.00    +0.000 C 
ENDROOT
BRANCH   2   3
ATOM      3  C   UNL     1      48.554   5.992  16.303  0.00  0.00    +0.000 A 
ATOM      4  C   UNL     1      47.804   4.807  16.306  0.00  0.00    +0.000 A 
ATOM      5  C   UNL     1      47.117   4.386  15.164  0.00  0.00    +0.000 A 
ATOM      6  C   UNL     1      47.157   5.132  13.989  0.00  0.00    +0.000 A 
ATOM      7  C   UNL     1      47.928   6.296  13.963  0.00  0.00    +0.000 A 
ATOM      8  C   UNL     1      48.634   6.716  15.101  0.00  0.00    +0.000 A 
BRANCH   6   9
ATOM      9  O   UNL     1      46.501   4.830  12.825  0.00  0.00    +0.000 OA
BRANCH   9  10
ATOM     10  C   UNL     1      45.124   4.423  12.897  0.00  0.00    +0.000 C 
ATOM     11  C   UNL     1      44.860   3.430  11.758  0.00  0.00    +0.000 C 
ATOM     12  C   UNL     1      43.373   3.153  11.605  0.00  0.00    +0.000 C 
ATOM     13  O   UNL     1      42.647   4.368  11.436  0.00  0.00    +0.000 OA
ATOM     14  C   UNL     1      42.750   5.207  12.582  0.00  0.00    +0.000 C 
ATOM     15  C   UNL     1      44.191   5.636  12.801  0.00  0.00    +0.000 C 
ENDBRANCH   9  10
ENDBRANCH   6   9
ENDBRANCH   2   3
BRANCH   2  16
ATOM     16  N   UNL     1      50.285   5.459  17.972  0.00  0.00    +0.000 N 
ATOM     17  C   UNL     1      51.531   5.420  17.395  0.00  0.00    +0.000 C 
ATOM     18  O   UNL     1      51.905   6.223  16.550  0.00  0.00    +0.000 OA
ATOM     19  H   UNL     1      49.944   4.599  18.388  0.00  0.00    +0.000 HD
BRANCH  17  20
ATOM     20  C   UNL     1      52.435   4.382  17.900  0.00  0.00    +0.000 A 
ATOM     21  C   UNL     1      53.629   4.742  18.509  0.00  0.00    +0.000 A 
ATOM     22  S   UNL     1      54.560   3.411  19.027  0.00  0.00    +0.000 S 
ATOM     23  C   UNL     1      53.414   2.308  18.426  0.00  0.00    +0.000 A 
ATOM     24  N   UNL     1      53.623   0.967  18.509  0.00  0.00    +0.000 NA
ATOM     25  C   UNL     1      52.686   0.244  17.987  0.00  0.00    +0.000 A 
ATOM     26  N   UNL     1      51.548   0.744  17.404  0.00  0.00    +0.000 N 
ATOM     27  C   UNL     1      51.277   2.091  17.336  0.00  0.00    +0.000 A 
ATOM     28  O   UNL     1      50.216   2.506  16.884  0.00  0.00    +0.000 OA
ATOM     29  C   UNL     1      52.320   2.945  17.867  0.00  0.00    +0.000 A 
ATOM     30  H   UNL     1      50.839   0.124  17.042  0.00  0.00    +0.000 HD
ENDBRANCH  17  20
ENDBRANCH   2  16
TORSDOF 5
ENDMDL
MODEL 5
REMARK VINA RESULT:    -7.713      2.730      3.638
REMARK INTER + INTRA:         -10.337
REMARK INTER:                  -9.661
REMARK INTRA:                  -0.677
REMARK UNBOUND:                -0.369
REMARK  Name = 
REMARK  6 active torsions:
REMARK  status: ('A' for Active; 'I' for Inactive)
REMARK    1  A    between atoms: C_1  and  C_2
REMARK    2  A    between atoms: C_2  and  N_3
REMARK    3  A    between atoms: C_2  and  C_16
REMARK    4  A    between atoms: C_4  and  C_6
REMARK    5  A    between atoms: C_19  and  O_20
REMARK    6  A    between atoms: O_20  and  C_21
REMARK                            x       y       z     vdW  Elec       q    Type
REMARK                         _______ _______ _______ _____ _____    ______ ____
ROOT
ATOM      1  C   UNL     1      46.212   4.397  13.898  0.00  0.00    +0.000 C 
ATOM      2  C   UNL     1      45.915   5.561  12.948  0.00  0.00    +0.000 C 
ENDROOT
BRANCH   2   3
ATOM      3  C   UNL     1      45.513   5.019  11.580  0.00  0.00    +0.000 A 
ATOM      4  C   UNL     1      45.965   5.675  10.426  0.00  0.00    +0.000 A 
ATOM      5  C   UNL     1      45.637   5.202   9.152  0.00  0.00    +0.000 A 
ATOM      6  C   UNL     1      44.851   4.063   8.993  0.00  0.00    +0.000 A 
ATOM      7  C   UNL     1      44.367   3.420  10.134  0.00  0.00    +0.000 A 
ATOM      8  C   UNL     1      44.678   3.900  11.416  0.00  0.00    +0.000 A 
BRANCH   6   9
ATOM      9  O   UNL     1      44.494   3.497   7.797  0.00  0.00    +0.000 OA
BRANCH   9  10
ATOM     10  C   UNL     1      45.436   2.634   7.137  0.00  0.00    +0.000 C 
ATOM     11  C   UNL     1      45.958   1.622   8.164  0.00  0.00    +0.000 C 
ATOM     12  C   UNL     1      47.143   0.844   7.616  0.00  0.00    +0.000 C 
ATOM     13  O   UNL     1      48.166   1.731   7.168  0.00  0.00    +0.000 OA
ATOM     14  C   UNL     1      47.724   2.542   6.085  0.00  0.00    +0.000 C 
ATOM     15  C   UNL     1      46.584   3.445   6.526  0.00  0.00    +0.000 C 
ENDBRANCH   9  10
ENDBRANCH   6   9
ENDBRANCH   2   3
BRANCH   2  16
ATOM     16  N   UNL     1      47.031   6.487  12.847  0.00  0.00    +0.000 N 
ATOM     17  C   UNL     1      46.882   7.846  12.985  0.00  0.00    +0.000 C 
ATOM     18  O   UNL     1      45.814   8.379  13.259  0.00  0.00    +0.000 OA
ATOM     19  H   UNL     1      47.827   6.165  12.307  0.00  0.00    +0.000 HD
BRANCH  17  20
ATOM     20  C   UNL     1      48.107   8.639  12.847  0.00  0.00    +0.000 A 
ATOM     21  C   UNL     1      48.121   9.752  12.017  0.00  0.00    +0.000 A 
ATOM     22  S   UNL     1      49.628  10.549  11.968  0.00  0.00    +0.000 S 
ATOM     23  C   UNL     1      50.322   9.415  13.028  0.00  0.00    +0.000 A 
ATOM     24  N   UNL     1      51.633   9.493  13.376  0.00  0.00    +0.000 NA
ATOM     25  C   UNL     1      52.037   8.551  14.165  0.00  0.00    +0.000 A 
ATOM     26  N   UNL     1      51.239   7.545  14.652  0.00  0.00    +0.000 N 
ATOM     27  C   UNL     1      49.899   7.452  14.359  0.00  0.00    +0.000 A 
ATOM     28  O   UNL     1      49.193   6.592  14.873  0.00  0.00    +0.000 OA
ATOM     29  C   UNL     1      49.408   8.459  13.441  0.00  0.00    +0.000 A 
ATOM     30  H   UNL     1      51.610   6.857  15.290  0.00  0.00    +0.000 HD
ENDBRANCH  17  20
ENDBRANCH   2  16
TORSDOF 5
ENDMDL
MODEL 6
REMARK VINA RESULT:    -7.665      2.312      3.730
REMARK INTER + INTRA:         -10.275
REMARK INTER:                  -9.761
REMARK INTRA:                  -0.513
REMARK UNBOUND:                -0.369
REMARK  Name = 
REMARK  6 active torsions:
REMARK  status: ('A' for Active; 'I' for Inactive)
REMARK    1  A    between atoms: C_1  and  C_2
REMARK    2  A    between atoms: C_2  and  N_3
REMARK    3  A    between atoms: C_2  and  C_16
REMARK    4  A    between atoms: C_4  and  C_6
REMARK    5  A    between atoms: C_19  and  O_20
REMARK    6  A    between atoms: O_20  and  C_21
REMARK                            x       y       z     vdW  Elec       q    Type
REMARK                         _______ _______ _______ _____ _____    ______ ____
ROOT
ATOM      1  C   UNL     1      48.971   8.094  13.060  0.00  0.00    +0.000 C 
ATOM      2  C   UNL     1      48.476   6.791  13.697  0.00  0.00    +0.000 C 
ENDROOT
BRANCH   2   3
ATOM      3  C   UNL     1      47.251   6.283  12.944  0.00  0.00    +0.000 A 
ATOM      4  C   UNL     1      46.732   7.049  11.890  0.00  0.00    +0.000 A 
ATOM      5  C   UNL     1      45.622   6.612  11.160  0.00  0.00    +0.000 A 
ATOM      6  C   UNL     1      45.001   5.403  11.459  0.00  0.00    +0.000 A 
ATOM      7  C   UNL     1      45.488   4.647  12.528  0.00  0.00    +0.000 A 
ATOM      8  C   UNL     1      46.591   5.087  13.276  0.00  0.00    +0.000 A 
BRANCH   6   9
ATOM      9  O   UNL     1      43.930   4.866  10.793  0.00  0.00    +0.000 OA
BRANCH   9  10
ATOM     10  C   UNL     1      44.176   4.084   9.613  0.00  0.00    +0.000 C 
ATOM     11  C   UNL     1      44.296   2.613  10.031  0.00  0.00    +0.000 C 
ATOM     12  C   UNL     1      44.811   1.756   8.886  0.00  0.00    +0.000 C 
ATOM     13  O   UNL     1      46.041   2.272   8.382  0.00  0.00    +0.000 OA
ATOM     14  C   UNL     1      45.878   3.573   7.826  0.00  0.00    +0.000 C 
ATOM     15  C   UNL     1      45.445   4.560   8.896  0.00  0.00    +0.000 C 
ENDBRANCH   9  10
ENDBRANCH   6   9
ENDBRANCH   2   3
BRANCH   2  16
ATOM     16  N   UNL     1      48.205   6.941  15.117  0.00  0.00    +0.000 N 
ATOM     17  C   UNL     1      49.118   6.604  16.086  0.00  0.00    +0.000 C 
ATOM     18  O   UNL     1      50.249   6.207  15.834  0.00  0.00    +0.000 OA
ATOM     19  H   UNL     1      47.226   6.933  15.385  0.00  0.00    +0.000 HD
BRANCH  17  20
ATOM     20  C   UNL     1      48.683   6.811  17.471  0.00  0.00    +0.000 A 
ATOM     21  C   UNL     1      48.296   8.076  17.893  0.00  0.00    +0.000 A 
ATOM     22  S   UNL     1      47.830   8.136  19.532  0.00  0.00    +0.000 S 
ATOM     23  C   UNL     1      48.161   6.481  19.742  0.00  0.00    +0.000 A 
ATOM     24  N   UNL     1      48.010   5.885  20.955  0.00  0.00    +0.000 NA
ATOM     25  C   UNL     1      48.323   4.631  20.979  0.00  0.00    +0.000 A 
ATOM     26  N   UNL     1      48.758   3.913  19.893  0.00  0.00    +0.000 N 
ATOM     27  C   UNL     1      48.885   4.465  18.640  0.00  0.00    +0.000 A 
ATOM     28  O   UNL     1      49.196   3.782  17.670  0.00  0.00    +0.000 OA
ATOM     29  C   UNL     1      48.589   5.882  18.570  0.00  0.00    +0.000 A 
ATOM     30  H   UNL     1      48.957   2.928  19.972  0.00  0.00    +0.000 HD
ENDBRANCH  17  20
ENDBRANCH   2  16
TORSDOF 5
ENDMDL
MODEL 7
REMARK VINA RESULT:    -7.459      3.787      8.504
REMARK INTER + INTRA:         -10.008
REMARK INTER:                  -8.846
REMARK INTRA:                  -1.162
REMARK UNBOUND:                -0.369
REMARK  Name = 
REMARK  6 active torsions:
REMARK  status: ('A' for Active; 'I' for Inactive)
REMARK    1  A    between atoms: C_1  and  C_2
REMARK    2  A    between atoms: C_2  and  N_3
REMARK    3  A    between atoms: C_2  and  C_16
REMARK    4  A    between atoms: C_4  and  C_6
REMARK    5  A    between atoms: C_19  and  O_20
REMARK    6  A    between atoms: O_20  and  C_21
REMARK                            x       y       z     vdW  Elec       q    Type
REMARK                         _______ _______ _______ _____ _____    ______ ____
ROOT
ATOM      1  C   UNL     1      48.950   8.178  12.984  0.00  0.00    +0.000 C 
ATOM      2  C   UNL     1      47.909   7.317  13.706  0.00  0.00    +0.000 C 
ENDROOT
BRANCH   2   3
ATOM      3  C   UNL     1      48.562   6.605  14.887  0.00  0.00    +0.000 A 
ATOM      4  C   UNL     1      47.891   5.532  15.491  0.00  0.00    +0.000 A 
ATOM      5  C   UNL     1      48.460   4.838  16.563  0.00  0.00    +0.000 A 
ATOM      6  C   UNL     1      49.711   5.192  17.061  0.00  0.00    +0.000 A 
ATOM      7  C   UNL     1      50.374   6.281  16.490  0.00  0.00    +0.000 A 
ATOM      8  C   UNL     1      49.801   6.993  15.424  0.00  0.00    +0.000 A 
BRANCH   6   9
ATOM      9  O   UNL     1      50.374   4.566  18.084  0.00  0.00    +0.000 OA
BRANCH   9  10
ATOM     10  C   UNL     1      51.485   3.713  17.763  0.00  0.00    +0.000 C 
ATOM     11  C   UNL     1      50.942   2.305  17.489  0.00  0.00    +0.000 C 
ATOM     12  C   UNL     1      52.070   1.289  17.397  0.00  0.00    +0.000 C 
ATOM     13  O   UNL     1      52.883   1.331  18.567  0.00  0.00    +0.000 OA
ATOM     14  C   UNL     1      53.532   2.591  18.713  0.00  0.00    +0.000 C 
ATOM     15  C   UNL     1      52.509   3.698  18.904  0.00  0.00    +0.000 C 
ENDBRANCH   9  10
ENDBRANCH   6   9
ENDBRANCH   2   3
BRANCH   2  16
ATOM     16  N   UNL     1      47.256   6.377  12.812  0.00  0.00    +0.000 N 
ATOM     17  C   UNL     1      46.229   6.740  11.975  0.00  0.00    +0.000 C 
ATOM     18  O   UNL     1      45.822   7.891  11.873  0.00  0.00    +0.000 OA
ATOM     19  H   UNL     1      47.304   5.400  13.083  0.00  0.00    +0.000 HD
BRANCH  17  20
ATOM     20  C   UNL     1      45.675   5.668  11.142  0.00  0.00    +0.000 A 
ATOM     21  C   UNL     1      45.820   5.719   9.762  0.00  0.00    +0.000 A 
ATOM     22  S   UNL     1      45.108   4.399   8.952  0.00  0.00    +0.000 S 
ATOM     23  C   UNL     1      44.555   3.730  10.414  0.00  0.00    +0.000 A 
ATOM     24  N   UNL     1      43.818   2.588  10.428  0.00  0.00    +0.000 NA
ATOM     25  C   UNL     1      43.439   2.207  11.604  0.00  0.00    +0.000 A 
ATOM     26  N   UNL     1      43.747   2.859  12.772  0.00  0.00    +0.000 N 
ATOM     27  C   UNL     1      44.524   3.993  12.808  0.00  0.00    +0.000 A 
ATOM     28  O   UNL     1      44.853   4.508  13.872  0.00  0.00    +0.000 OA
ATOM     29  C   UNL     1      44.936   4.486  11.510  0.00  0.00    +0.000 A 
ATOM     30  H   UNL     1      43.446   2.492  13.662  0.00  0.00    +0.000 HD
ENDBRANCH  17  20
ENDBRANCH   2  16
TORSDOF 5
ENDMDL
MODEL 8
REMARK VINA RESULT:    -7.100      3.412      9.281
REMARK INTER + INTRA:          -9.544
REMARK INTER:                  -8.410
REMARK INTRA:                  -1.134
REMARK UNBOUND:                -0.369
REMARK  Name = 
REMARK  6 active torsions:
REMARK  status: ('A' for Active; 'I' for Inactive)
REMARK    1  A    between atoms: C_1  and  C_2
REMARK    2  A    between atoms: C_2  and  N_3
REMARK    3  A    between atoms: C_2  and  C_16
REMARK    4  A    between atoms: C_4  and  C_6
REMARK    5  A    between atoms: C_19  and  O_20
REMARK    6  A    between atoms: O_20  and  C_21
REMARK                            x       y       z     vdW  Elec       q    Type
REMARK                         _______ _______ _______ _____ _____    ______ ____
ROOT
ATOM      1  C   UNL     1      48.798   7.786  11.402  0.00  0.00    +0.000 C 
ATOM      2  C   UNL     1      47.564   7.625  12.295  0.00  0.00    +0.000 C 
ENDROOT
BRANCH   2   3
ATOM      3  C   UNL     1      47.984   7.654  13.762  0.00  0.00    +0.000 A 
ATOM      4  C   UNL     1      48.010   8.881  14.440  0.00  0.00    +0.000 A 
ATOM      5  C   UNL     1      48.369   8.951  15.789  0.00  0.00    +0.000 A 
ATOM      6  C   UNL     1      48.710   7.803  16.499  0.00  0.00    +0.000 A 
ATOM      7  C   UNL     1      48.720   6.579  15.826  0.00  0.00    +0.000 A 
ATOM      8  C   UNL     1      48.378   6.503  14.467  0.00  0.00    +0.000 A 
BRANCH   6   9
ATOM      9  O   UNL     1      49.048   7.752  17.826  0.00  0.00    +0.000 OA
BRANCH   9  10
ATOM     10  C   UNL     1      49.192   6.465  18.450  0.00  0.00    +0.000 C 
ATOM     11  C   UNL     1      48.135   6.349  19.554  0.00  0.00    +0.000 C 
ATOM     12  C   UNL     1      48.385   5.132  20.430  0.00  0.00    +0.000 C 
ATOM     13  O   UNL     1      49.710   5.152  20.956  0.00  0.00    +0.000 OA
ATOM     14  C   UNL     1      50.688   5.073  19.924  0.00  0.00    +0.000 C 
ATOM     15  C   UNL     1      50.606   6.288  19.017  0.00  0.00    +0.000 C 
ENDBRANCH   9  10
ENDBRANCH   6   9
ENDBRANCH   2   3
BRANCH   2  16
ATOM     16  N   UNL     1      46.810   6.424  11.980  0.00  0.00    +0.000 N 
ATOM     17  C   UNL     1      45.446   6.427  11.817  0.00  0.00    +0.000 C 
ATOM     18  O   UNL     1      44.766   7.444  11.865  0.00  0.00    +0.000 OA
ATOM     19  H   UNL     1      47.238   5.546  12.256  0.00  0.00    +0.000 HD
BRANCH  17  20
ATOM     20  C   UNL     1      44.838   5.128  11.509  0.00  0.00    +0.000 A 
ATOM     21  C   UNL     1      44.050   4.491  12.459  0.00  0.00    +0.000 A 
ATOM     22  S   UNL     1      43.433   2.990  11.938  0.00  0.00    +0.000 S 
ATOM     23  C   UNL     1      44.224   3.124  10.439  0.00  0.00    +0.000 A 
ATOM     24  N   UNL     1      44.145   2.131   9.514  0.00  0.00    +0.000 NA
ATOM     25  C   UNL     1      44.817   2.350   8.431  0.00  0.00    +0.000 A 
ATOM     26  N   UNL     1      45.550   3.485   8.184  0.00  0.00    +0.000 N 
ATOM     27  C   UNL     1      45.623   4.531   9.074  0.00  0.00    +0.000 A 
ATOM     28  O   UNL     1      46.217   5.566   8.793  0.00  0.00    +0.000 OA
ATOM     29  C   UNL     1      44.923   4.313  10.323  0.00  0.00    +0.000 A 
ATOM     30  H   UNL     1      46.028   3.608   7.304  0.00  0.00    +0.000 HD
ENDBRANCH  17  20
ENDBRANCH   2  16
TORSDOF 5
ENDMDL
MODEL 9
REMARK VINA RESULT:    -6.918      3.881      9.832
REMARK INTER + INTRA:          -9.309
REMARK INTER:                  -8.502
REMARK INTRA:                  -0.807
REMARK UNBOUND:                -0.369
REMARK  Name = 
REMARK  6 active torsions:
REMARK  status: ('A' for Active; 'I' for Inactive)
REMARK    1  A    between atoms: C_1  and  C_2
REMARK    2  A    between atoms: C_2  and  N_3
REMARK    3  A    between atoms: C_2  and  C_16
REMARK    4  A    between atoms: C_4  and  C_6
REMARK    5  A    between atoms: C_19  and  O_20
REMARK    6  A    between atoms: O_20  and  C_21
REMARK                            x       y       z     vdW  Elec       q    Type
REMARK                         _______ _______ _______ _____ _____    ______ ____
ROOT
ATOM      1  C   UNL     1      47.633   2.993  16.818  0.00  0.00    +0.000 C 
ATOM      2  C   UNL     1      48.006   4.378  16.280  0.00  0.00    +0.000 C 
ENDROOT
BRANCH   2   3
ATOM      3  C   UNL     1      48.120   5.366  17.438  0.00  0.00    +0.000 A 
ATOM      4  C   UNL     1      49.263   6.172  17.536  0.00  0.00    +0.000 A 
ATOM      5  C   UNL     1      49.401   7.104  18.569  0.00  0.00    +0.000 A 
ATOM      6  C   UNL     1      48.405   7.260  19.529  0.00  0.00    +0.000 A 
ATOM      7  C   UNL     1      47.276   6.439  19.461  0.00  0.00    +0.000 A 
ATOM      8  C   UNL     1      47.139   5.489  18.437  0.00  0.00    +0.000 A 
BRANCH   6   9
ATOM      9  O   UNL     1      48.422   8.159  20.563  0.00  0.00    +0.000 OA
BRANCH   9  10
ATOM     10  C   UNL     1      48.242   9.553  20.265  0.00  0.00    +0.000 C 
ATOM     11  C   UNL     1      47.089  10.081  21.128  0.00  0.00    +0.000 C 
ATOM     12  C   UNL     1      46.665  11.473  20.688  0.00  0.00    +0.000 C 
ATOM     13  O   UNL     1      46.346  11.488  19.299  0.00  0.00    +0.000 OA
ATOM     14  C   UNL     1      47.479  11.175  18.494  0.00  0.00    +0.000 C 
ATOM     15  C   UNL     1      47.956   9.760  18.773  0.00  0.00    +0.000 C 
ENDBRANCH   9  10
ENDBRANCH   6   9
ENDBRANCH   2   3
BRANCH   2  16
ATOM     16  N   UNL     1      47.072   4.847  15.270  0.00  0.00    +0.000 N 
ATOM     17  C   UNL     1      47.460   5.617  14.201  0.00  0.00    +0.000 C 
ATOM     18  O   UNL     1      48.625   5.922  13.982  0.00  0.00    +0.000 OA
ATOM     19  H   UNL     1      46.103   4.922  15.563  0.00  0.00    +0.000 HD
BRANCH  17  20
ATOM     20  C   UNL     1      46.391   6.012  13.279  0.00  0.00    +0.000 A 
ATOM     21  C   UNL     1      46.168   7.356  13.012  0.00  0.00    +0.000 A 
ATOM     22  S   UNL     1      44.883   7.634  11.927  0.00  0.00    +0.000 S 
ATOM     23  C   UNL     1      44.559   5.969  11.801  0.00  0.00    +0.000 A 
ATOM     24  N   UNL     1      43.528   5.512  11.043  0.00  0.00    +0.000 NA
ATOM     25  C   UNL     1      43.378   4.228  11.059  0.00  0.00    +0.000 A 
ATOM     26  N   UNL     1      44.179   3.357  11.755  0.00  0.00    +0.000 N 
ATOM     27  C   UNL     1      45.257   3.772  12.500  0.00  0.00    +0.000 A 
ATOM     28  O   UNL     1      46.005   2.967  13.044  0.00  0.00    +0.000 OA
ATOM     29  C   UNL     1      45.441   5.208  12.551  0.00  0.00    +0.000 A 
ATOM     30  H   UNL     1      44.026   2.361  11.701  0.00  0.00    +0.000 HD
ENDBRANCH  17  20
ENDBRANCH   2  16
TORSDOF 5
ENDMDL
