MODEL 1
REMARK VINA RESULT:    -8.306      0.000      0.000
REMARK INTER + INTRA:         -13.468
REMARK INTER:                 -12.191
REMARK INTRA:                  -1.277
REMARK UNBOUND:                -1.277
REMARK  Name = 
REMARK  8 active torsions:
REMARK  status: ('A' for Active; 'I' for Inactive)
REMARK    1  A    between atoms: C_2  and  C_3
REMARK    2  A    between atoms: C_3  and  N_4
REMARK    3  A    between atoms: C_3  and  C_26
REMARK    4  A    between atoms: N_4  and  C_5
REMARK    5  A    between atoms: C_5  and  C_6
REMARK    6  A    between atoms: C_9  and  C_10
REMARK    7  A    between atoms: C_10  and  N_11
REMARK    8  A    between atoms: C_12  and  C_14
REMARK                            x       y       z     vdW  Elec       q    Type
REMARK                         _______ _______ _______ _____ _____    ______ ____
ROOT
ATOM      1  C   UNL     1      45.348   6.698  11.191  0.00  0.00    +0.000 A 
ATOM      2  C   UNL     1      46.669   6.255  11.375  0.00  0.00    +0.000 A 
ATOM      3  C   UNL     1      47.494   6.855  12.330  0.00  0.00    +0.000 A 
ATOM      4  C   UNL     1      47.017   7.907  13.112  0.00  0.00    +0.000 A 
ATOM      5  C   UNL     1      45.719   8.384  12.894  0.00  0.00    +0.000 A 
ATOM      6  C   UNL     1      44.888   7.780  11.948  0.00  0.00    +0.000 A 
ENDROOT
BRANCH   1   7
ATOM      7  C   UNL     1      44.448   6.019  10.193  0.00  0.00    +0.000 C 
BRANCH   7   8
ATOM      8  N   UNL     1      45.244   5.291   9.196  0.00  0.00    +0.000 NA
ATOM      9  H   UNL     1      45.319   5.864   8.358  0.00  0.00    +0.000 HD
BRANCH   8  10
ATOM     10  C   UNL     1      44.649   4.003   8.811  0.00  0.00    +0.000 C 
BRANCH  10  11
ATOM     11  C   UNL     1      45.651   3.088   8.087  0.00  0.00    +0.000 A 
ATOM     12  C   UNL     1      45.836   1.735   8.452  0.00  0.00    +0.000 A 
ATOM     13  C   UNL     1      46.717   0.909   7.767  0.00  0.00    +0.000 A 
ATOM     14  C   UNL     1      47.449   1.420   6.700  0.00  0.00    +0.000 A 
ATOM     15  C   UNL     1      47.304   2.757   6.335  0.00  0.00    +0.000 A 
ATOM     16  C   UNL     1      46.414   3.588   7.022  0.00  0.00    +0.000 A 
ENDBRANCH  10  11
BRANCH  10  18
ATOM     17  N   UNL     1      43.552   2.633  10.970  0.00  0.00    +0.000 NA
ATOM     18  C   UNL     1      44.050   3.254   9.991  0.00  0.00    +0.000 C 
ENDBRANCH  10  18
ENDBRANCH   8  10
ENDBRANCH   7   8
ENDBRANCH   1   7
BRANCH   4  19
ATOM     19  C   UNL     1      47.882   8.546  14.170  0.00  0.00    +0.000 C 
BRANCH  19  20
ATOM     20  N   UNL     1      48.123   7.654  15.273  0.00  0.00    +0.000 N 
ATOM     21  C   UNL     1      49.315   6.985  15.399  0.00  0.00    +0.000 C 
ATOM     22  O   UNL     1      50.236   7.129  14.600  0.00  0.00    +0.000 OA
ATOM     23  H   UNL     1      47.307   7.295  15.757  0.00  0.00    +0.000 HD
BRANCH  21  24
ATOM     24  C   UNL     1      49.454   6.133  16.586  0.00  0.00    +0.000 A 
ATOM     25  C   UNL     1      50.432   6.412  17.530  0.00  0.00    +0.000 A 
ATOM     26  S   UNL     1      50.421   5.342  18.859  0.00  0.00    +0.000 S 
ATOM     27  C   UNL     1      49.140   4.441  18.193  0.00  0.00    +0.000 A 
ATOM     28  N   UNL     1      48.653   3.340  18.826  0.00  0.00    +0.000 NA
ATOM     29  C   UNL     1      47.696   2.743  18.198  0.00  0.00    +0.000 A 
ATOM     30  N   UNL     1      47.175   3.152  16.996  0.00  0.00    +0.000 N 
ATOM     31  C   UNL     1      47.609   4.278  16.342  0.00  0.00    +0.000 A 
ATOM     32  O   UNL     1      47.076   4.655  15.304  0.00  0.00    +0.000 OA
ATOM     33  C   UNL     1      48.705   4.969  16.992  0.00  0.00    +0.000 A 
ATOM     34  H   UNL     1      46.409   2.653  16.568  0.00  0.00    +0.000 HD
ENDBRANCH  21  24
ENDBRANCH  19  20
ENDBRANCH   4  19
TORSDOF 8
ENDMDL
MODEL 2
REMARK VINA RESULT:    -7.910      1.572      1.919
REMARK INTER + INTRA:         -12.887
REMARK INTER:                 -11.992
REMARK INTRA:                  -0.894
REMARK UNBOUND:                -1.277
REMARK  Name = 
REMARK  8 active torsions:
REMARK  status: ('A' for Active; 'I' for Inactive)
REMARK    1  A    between atoms: C_2  and  C_3
REMARK    2  A    between atoms: C_3  and  N_4
REMARK    3  A    between atoms: C_3  and  C_26
REMARK    4  A    between atoms: N_4  and  C_5
REMARK    5  A    between atoms: C_5  and  C_6
REMARK    6  A    between atoms: C_9  and  C_10
REMARK    7  A    between atoms: C_10  and  N_11
REMARK    8  A    between atoms: C_12  and  C_14
REMARK                            x       y       z     vdW  Elec       q    Type
REMARK                         _______ _______ _______ _____ _____    ______ ____
ROOT
ATOM      1  C   UNL     1      46.037   6.037  11.915  0.00  0.00    +0.000 A 
ATOM      2  C   UNL     1      46.373   5.449  13.147  0.00  0.00    +0.000 A 
ATOM      3  C   UNL     1      47.502   5.873  13.852  0.00  0.00    +0.000 A 
ATOM      4  C   UNL     1      48.315   6.885  13.340  0.00  0.00    +0.000 A 
ATOM      5  C   UNL     1      48.010   7.434  12.089  0.00  0.00    +0.000 A 
ATOM      6  C   UNL     1      46.877   7.021  11.386  0.00  0.00    +0.000 A 
ENDROOT
BRANCH   1   7
ATOM      7  C   UNL     1      44.793   5.609  11.181  0.00  0.00    +0.000 C 
BRANCH   7   8
ATOM      8  N   UNL     1      45.104   5.309   9.777  0.00  0.00    +0.000 NA
ATOM      9  H   UNL     1      44.770   6.078   9.198  0.00  0.00    +0.000 HD
BRANCH   8  10
ATOM     10  C   UNL     1      44.469   4.073   9.297  0.00  0.00    +0.000 C 
BRANCH  10  11
ATOM     11  C   UNL     1      45.439   3.193   8.490  0.00  0.00    +0.000 A 
ATOM     12  C   UNL     1      45.551   1.801   8.709  0.00  0.00    +0.000 A 
ATOM     13  C   UNL     1      46.404   1.010   7.949  0.00  0.00    +0.000 A 
ATOM     14  C   UNL     1      47.179   1.596   6.954  0.00  0.00    +0.000 A 
ATOM     15  C   UNL     1      47.105   2.970   6.733  0.00  0.00    +0.000 A 
ATOM     16  C   UNL     1      46.244   3.766   7.495  0.00  0.00    +0.000 A 
ENDBRANCH  10  11
BRANCH  10  18
ATOM     17  N   UNL     1      43.354   2.564  11.350  0.00  0.00    +0.000 NA
ATOM     18  C   UNL     1      43.860   3.248  10.419  0.00  0.00    +0.000 C 
ENDBRANCH  10  18
ENDBRANCH   8  10
ENDBRANCH   7   8
ENDBRANCH   1   7
BRANCH   4  19
ATOM     19  C   UNL     1      49.519   7.377  14.102  0.00  0.00    +0.000 C 
BRANCH  19  20
ATOM     20  N   UNL     1      49.279   7.404  15.521  0.00  0.00    +0.000 N 
ATOM     21  C   UNL     1      50.074   6.701  16.391  0.00  0.00    +0.000 C 
ATOM     22  O   UNL     1      51.036   6.039  16.010  0.00  0.00    +0.000 OA
ATOM     23  H   UNL     1      48.350   7.681  15.822  0.00  0.00    +0.000 HD
BRANCH  21  24
ATOM     24  C   UNL     1      49.751   6.838  17.815  0.00  0.00    +0.000 A 
ATOM     25  C   UNL     1      49.874   8.071  18.439  0.00  0.00    +0.000 A 
ATOM     26  S   UNL     1      49.419   8.052  20.083  0.00  0.00    +0.000 S 
ATOM     27  C   UNL     1      49.089   6.383  20.029  0.00  0.00    +0.000 A 
ATOM     28  N   UNL     1      48.680   5.711  21.139  0.00  0.00    +0.000 NA
ATOM     29  C   UNL     1      48.486   4.448  20.957  0.00  0.00    +0.000 A 
ATOM     30  N   UNL     1      48.657   3.794  19.763  0.00  0.00    +0.000 N 
ATOM     31  C   UNL     1      49.031   4.438  18.609  0.00  0.00    +0.000 A 
ATOM     32  O   UNL     1      49.108   3.838  17.542  0.00  0.00    +0.000 OA
ATOM     33  C   UNL     1      49.290   5.856  18.766  0.00  0.00    +0.000 A 
ATOM     34  H   UNL     1      48.465   2.807  19.681  0.00  0.00    +0.000 HD
ENDBRANCH  21  24
ENDBRANCH  19  20
ENDBRANCH   4  19
TORSDOF 8
ENDMDL
MODEL 3
REMARK VINA RESULT:    -7.826      2.565      3.270
REMARK INTER + INTRA:         -12.763
REMARK INTER:                 -11.792
REMARK INTRA:                  -0.971
REMARK UNBOUND:                -1.277
REMARK  Name = 
REMARK  8 active torsions:
REMARK  status: ('A' for Active; 'I' for Inactive)
REMARK    1  A    between atoms: C_2  and  C_3
REMARK    2  A    between atoms: C_3  and  N_4
REMARK    3  A    between atoms: C_3  and  C_26
REMARK    4  A    between atoms: N_4  and  C_5
REMARK    5  A    between atoms: C_5  and  C_6
REMARK    6  A    between atoms: C_9  and  C_10
REMARK    7  A    between atoms: C_10  and  N_11
REMARK    8  A    between atoms: C_12  and  C_14
REMARK                            x       y       z     vdW  Elec       q    Type
REMARK                         _______ _______ _______ _____ _____    ______ ____
ROOT
ATOM      1  C   UNL     1      46.541   4.838  13.528  0.00  0.00    +0.000 A 
ATOM      2  C   UNL     1      46.775   4.399  14.842  0.00  0.00    +0.000 A 
ATOM      3  C   UNL     1      47.707   5.051  15.654  0.00  0.00    +0.000 A 
ATOM      4  C   UNL     1      48.421   6.147  15.169  0.00  0.00    +0.000 A 
ATOM      5  C   UNL     1      48.227   6.553  13.843  0.00  0.00    +0.000 A 
ATOM      6  C   UNL     1      47.289   5.910  13.031  0.00  0.00    +0.000 A 
ENDROOT
BRANCH   1   7
ATOM      7  C   UNL     1      45.503   4.161  12.671  0.00  0.00    +0.000 C 
BRANCH   7   8
ATOM      8  N   UNL     1      45.354   4.866  11.392  0.00  0.00    +0.000 NA
ATOM      9  H   UNL     1      44.942   5.781  11.570  0.00  0.00    +0.000 HD
BRANCH   8  10
ATOM     10  C   UNL     1      44.487   4.157  10.440  0.00  0.00    +0.000 C 
BRANCH  10  11
ATOM     11  C   UNL     1      45.277   3.557   9.264  0.00  0.00    +0.000 A 
ATOM     12  C   UNL     1      45.910   4.365   8.292  0.00  0.00    +0.000 A 
ATOM     13  C   UNL     1      46.652   3.812   7.257  0.00  0.00    +0.000 A 
ATOM     14  C   UNL     1      46.772   2.430   7.158  0.00  0.00    +0.000 A 
ATOM     15  C   UNL     1      46.138   1.610   8.090  0.00  0.00    +0.000 A 
ATOM     16  C   UNL     1      45.394   2.166   9.135  0.00  0.00    +0.000 A 
ENDBRANCH  10  11
BRANCH  10  18
ATOM     17  N   UNL     1      42.973   2.156  11.642  0.00  0.00    +0.000 NA
ATOM     18  C   UNL     1      43.660   3.064  11.097  0.00  0.00    +0.000 C 
ENDBRANCH  10  18
ENDBRANCH   8  10
ENDBRANCH   7   8
ENDBRANCH   1   7
BRANCH   4  19
ATOM     19  C   UNL     1      49.407   6.883  16.041  0.00  0.00    +0.000 C 
BRANCH  19  20
ATOM     20  N   UNL     1      50.430   6.006  16.547  0.00  0.00    +0.000 N 
ATOM     21  C   UNL     1      50.441   5.610  17.861  0.00  0.00    +0.000 C 
ATOM     22  O   UNL     1      49.575   5.960  18.658  0.00  0.00    +0.000 OA
ATOM     23  H   UNL     1      51.290   5.952  16.012  0.00  0.00    +0.000 HD
BRANCH  21  24
ATOM     24  C   UNL     1      51.513   4.687  18.248  0.00  0.00    +0.000 A 
ATOM     25  C   UNL     1      52.594   5.148  18.986  0.00  0.00    +0.000 A 
ATOM     26  S   UNL     1      53.722   3.929  19.377  0.00  0.00    +0.000 S 
ATOM     27  C   UNL     1      52.829   2.754  18.530  0.00  0.00    +0.000 A 
ATOM     28  N   UNL     1      53.267   1.469  18.440  0.00  0.00    +0.000 NA
ATOM     29  C   UNL     1      52.500   0.691  17.750  0.00  0.00    +0.000 A 
ATOM     30  N   UNL     1      51.330   1.079  17.149  0.00  0.00    +0.000 N 
ATOM     31  C   UNL     1      50.830   2.355  17.247  0.00  0.00    +0.000 A 
ATOM     32  O   UNL     1      49.747   2.653  16.756  0.00  0.00    +0.000 OA
ATOM     33  C   UNL     1      51.670   3.277  17.987  0.00  0.00    +0.000 A 
ATOM     34  H   UNL     1      50.763   0.416  16.643  0.00  0.00    +0.000 HD
ENDBRANCH  21  24
ENDBRANCH  19  20
ENDBRANCH   4  19
TORSDOF 8
ENDMDL
MODEL 4
REMARK VINA RESULT:    -7.653      1.747      2.268
REMARK INTER + INTRA:         -12.510
REMARK INTER:                 -11.174
REMARK INTRA:                  -1.336
REMARK UNBOUND:                -1.277
REMARK  Name = 
REMARK  8 active torsions:
REMARK  status: ('A' for Active; 'I' for Inactive)
REMARK    1  A    between atoms: C_2  and  C_3
REMARK    2  A    between atoms: C_3  and  N_4
REMARK    3  A    between atoms: C_3  and  C_26
REMARK    4  A    between atoms: N_4  and  C_5
REMARK    5  A    between atoms: C_5  and  C_6
REMARK    6  A    between atoms: C_9  and  C_10
REMARK    7  A    between atoms: C_10  and  N_11
REMARK    8  A    between atoms: C_12  and  C_14
REMARK                            x       y       z     vdW  Elec       q    Type
REMARK                         _______ _______ _______ _____ _____    ______ ____
ROOT
ATOM      1  C   UNL     1      45.452   6.447  12.132  0.00  0.00    +0.000 A 
ATOM      2  C   UNL     1      46.470   5.649  12.681  0.00  0.00    +0.000 A 
ATOM      3  C   UNL     1      47.721   6.196  12.975  0.00  0.00    +0.000 A 
ATOM      4  C   UNL     1      47.979   7.544  12.722  0.00  0.00    +0.000 A 
ATOM      5  C   UNL     1      46.983   8.327  12.127  0.00  0.00    +0.000 A 
ATOM      6  C   UNL     1      45.727   7.786  11.842  0.00  0.00    +0.000 A 
ENDROOT
BRANCH   1   7
ATOM      7  C   UNL     1      44.090   5.864  11.860  0.00  0.00    +0.000 C 
BRANCH   7   8
ATOM      8  N   UNL     1      43.947   5.536  10.436  0.00  0.00    +0.000 NA
ATOM      9  H   UNL     1      43.143   6.041  10.065  0.00  0.00    +0.000 HD
BRANCH   8  10
ATOM     10  C   UNL     1      43.732   4.102  10.192  0.00  0.00    +0.000 C 
BRANCH  10  11
ATOM     11  C   UNL     1      44.767   3.513   9.219  0.00  0.00    +0.000 A 
ATOM     12  C   UNL     1      45.530   4.326   8.349  0.00  0.00    +0.000 A 
ATOM     13  C   UNL     1      46.489   3.785   7.501  0.00  0.00    +0.000 A 
ATOM     14  C   UNL     1      46.703   2.411   7.493  0.00  0.00    +0.000 A 
ATOM     15  C   UNL     1      45.948   1.585   8.324  0.00  0.00    +0.000 A 
ATOM     16  C   UNL     1      44.985   2.129   9.180  0.00  0.00    +0.000 A 
ENDBRANCH  10  11
BRANCH  10  18
ATOM     17  N   UNL     1      43.716   2.600  12.533  0.00  0.00    +0.000 NA
ATOM     18  C   UNL     1      43.724   3.281  11.471  0.00  0.00    +0.000 C 
ENDBRANCH  10  18
ENDBRANCH   8  10
ENDBRANCH   7   8
ENDBRANCH   1   7
BRANCH   4  19
ATOM     19  C   UNL     1      49.313   8.159  13.062  0.00  0.00    +0.000 C 
BRANCH  19  20
ATOM     20  N   UNL     1      50.054   7.347  13.991  0.00  0.00    +0.000 N 
ATOM     21  C   UNL     1      50.871   7.915  14.937  0.00  0.00    +0.000 C 
ATOM     22  O   UNL     1      50.992   9.131  15.054  0.00  0.00    +0.000 OA
ATOM     23  H   UNL     1      50.206   6.379  13.732  0.00  0.00    +0.000 HD
BRANCH  21  24
ATOM     24  C   UNL     1      51.544   6.985  15.850  0.00  0.00    +0.000 A 
ATOM     25  C   UNL     1      52.929   6.977  15.937  0.00  0.00    +0.000 A 
ATOM     26  S   UNL     1      53.535   5.860  17.075  0.00  0.00    +0.000 S 
ATOM     27  C   UNL     1      51.968   5.315  17.455  0.00  0.00    +0.000 A 
ATOM     28  N   UNL     1      51.772   4.317  18.359  0.00  0.00    +0.000 NA
ATOM     29  C   UNL     1      50.535   3.992  18.535  0.00  0.00    +0.000 A 
ATOM     30  N   UNL     1      49.473   4.579  17.894  0.00  0.00    +0.000 N 
ATOM     31  C   UNL     1      49.621   5.615  17.005  0.00  0.00    +0.000 A 
ATOM     32  O   UNL     1      48.648   6.165  16.501  0.00  0.00    +0.000 OA
ATOM     33  C   UNL     1      50.996   5.999  16.749  0.00  0.00    +0.000 A 
ATOM     34  H   UNL     1      48.526   4.294  18.094  0.00  0.00    +0.000 HD
ENDBRANCH  21  24
ENDBRANCH  19  20
ENDBRANCH   4  19
TORSDOF 8
ENDMDL
MODEL 5
REMARK VINA RESULT:    -6.974      3.829      5.760
REMARK INTER + INTRA:         -11.513
REMARK INTER:                 -10.485
REMARK INTRA:                  -1.027
REMARK UNBOUND:                -1.277
REMARK  Name = 
REMARK  8 active torsions:
REMARK  status: ('A' for Active; 'I' for Inactive)
REMARK    1  A    between atoms: C_2  and  C_3
REMARK    2  A    between atoms: C_3  and  N_4
REMARK    3  A    between atoms: C_3  and  C_26
REMARK    4  A    between atoms: N_4  and  C_5
REMARK    5  A    between atoms: C_5  and  C_6
REMARK    6  A    between atoms: C_9  and  C_10
REMARK    7  A    between atoms: C_10  and  N_11
REMARK    8  A    between atoms: C_12  and  C_14
REMARK                            x       y       z     vdW  Elec       q    Type
REMARK                         _______ _______ _______ _____ _____    ______ ____
ROOT
ATOM      1  C   UNL     1      45.384   6.173  12.557  0.00  0.00    +0.000 A 
ATOM      2  C   UNL     1      45.844   7.499  12.627  0.00  0.00    +0.000 A 
ATOM      3  C   UNL     1      47.052   7.799  13.261  0.00  0.00    +0.000 A 
ATOM      4  C   UNL     1      47.817   6.785  13.838  0.00  0.00    +0.000 A 
ATOM      5  C   UNL     1      47.334   5.471  13.814  0.00  0.00    +0.000 A 
ATOM      6  C   UNL     1      46.132   5.165  13.172  0.00  0.00    +0.000 A 
ENDROOT
BRANCH   1   7
ATOM      7  C   UNL     1      44.104   5.848  11.832  0.00  0.00    +0.000 C 
BRANCH   7   8
ATOM      8  N   UNL     1      44.372   5.568  10.416  0.00  0.00    +0.000 NA
ATOM      9  H   UNL     1      43.901   6.270   9.849  0.00  0.00    +0.000 HD
BRANCH   8  10
ATOM     10  C   UNL     1      43.892   4.245   9.989  0.00  0.00    +0.000 C 
BRANCH  10  11
ATOM     11  C   UNL     1      44.887   3.535   9.055  0.00  0.00    +0.000 A 
ATOM     12  C   UNL     1      45.660   4.239   8.103  0.00  0.00    +0.000 A 
ATOM     13  C   UNL     1      46.582   3.591   7.292  0.00  0.00    +0.000 A 
ATOM     14  C   UNL     1      46.749   2.215   7.404  0.00  0.00    +0.000 A 
ATOM     15  C   UNL     1      45.983   1.494   8.318  0.00  0.00    +0.000 A 
ATOM     16  C   UNL     1      45.057   2.146   9.138  0.00  0.00    +0.000 A 
ENDBRANCH  10  11
BRANCH  10  18
ATOM     17  N   UNL     1      43.288   2.573  12.128  0.00  0.00    +0.000 NA
ATOM     18  C   UNL     1      43.562   3.331  11.157  0.00  0.00    +0.000 C 
ENDBRANCH  10  18
ENDBRANCH   8  10
ENDBRANCH   7   8
ENDBRANCH   1   7
BRANCH   4  19
ATOM     19  C   UNL     1      49.139   7.086  14.498  0.00  0.00    +0.000 C 
BRANCH  19  20
ATOM     20  N   UNL     1      50.131   7.501  13.542  0.00  0.00    +0.000 N 
ATOM     21  C   UNL     1      50.532   8.811  13.456  0.00  0.00    +0.000 C 
ATOM     22  O   UNL     1      50.087   9.682  14.197  0.00  0.00    +0.000 OA
ATOM     23  H   UNL     1      50.284   6.889  12.748  0.00  0.00    +0.000 HD
BRANCH  21  24
ATOM     24  C   UNL     1      51.577   9.102  12.468  0.00  0.00    +0.000 A 
ATOM     25  C   UNL     1      52.839   8.540  12.605  0.00  0.00    +0.000 A 
ATOM     26  S   UNL     1      53.911   8.956  11.346  0.00  0.00    +0.000 S 
ATOM     27  C   UNL     1      52.740   9.941  10.600  0.00  0.00    +0.000 A 
ATOM     28  N   UNL     1      53.025  10.634   9.465  0.00  0.00    +0.000 NA
ATOM     29  C   UNL     1      52.050  11.355   9.021  0.00  0.00    +0.000 A 
ATOM     30  N   UNL     1      50.811  11.439   9.604  0.00  0.00    +0.000 N 
ATOM     31  C   UNL     1      50.467  10.727  10.726  0.00  0.00    +0.000 A 
ATOM     32  O   UNL     1      49.330  10.771  11.184  0.00  0.00    +0.000 OA
ATOM     33  C   UNL     1      51.538   9.924  11.283  0.00  0.00    +0.000 A 
ATOM     34  H   UNL     1      50.083  12.004   9.193  0.00  0.00    +0.000 HD
ENDBRANCH  21  24
ENDBRANCH  19  20
ENDBRANCH   4  19
TORSDOF 8
ENDMDL
MODEL 6
REMARK VINA RESULT:    -6.953      3.068      8.336
REMARK INTER + INTRA:         -11.483
REMARK INTER:                  -9.899
REMARK INTRA:                  -1.584
REMARK UNBOUND:                -1.277
REMARK  Name = 
REMARK  8 active torsions:
REMARK  status: ('A' for Active; 'I' for Inactive)
REMARK    1  A    between atoms: C_2  and  C_3
REMARK    2  A    between atoms: C_3  and  N_4
REMARK    3  A    between atoms: C_3  and  C_26
REMARK    4  A    between atoms: N_4  and  C_5
REMARK    5  A    between atoms: C_5  and  C_6
REMARK    6  A    between atoms: C_9  and  C_10
REMARK    7  A    between atoms: C_10  and  N_11
REMARK    8  A    between atoms: C_12  and  C_14
REMARK                            x       y       z     vdW  Elec       q    Type
REMARK                         _______ _______ _______ _____ _____    ______ ____
ROOT
ATOM      1  C   UNL     1      49.427   8.320  15.804  0.00  0.00    +0.000 A 
ATOM      2  C   UNL     1      49.958   7.424  14.860  0.00  0.00    +0.000 A 
ATOM      3  C   UNL     1      49.362   7.277  13.605  0.00  0.00    +0.000 A 
ATOM      4  C   UNL     1      48.227   8.017  13.273  0.00  0.00    +0.000 A 
ATOM      5  C   UNL     1      47.666   8.871  14.231  0.00  0.00    +0.000 A 
ATOM      6  C   UNL     1      48.266   9.029  15.482  0.00  0.00    +0.000 A 
ENDROOT
BRANCH   1   7
ATOM      7  C   UNL     1      50.100   8.509  17.138  0.00  0.00    +0.000 C 
BRANCH   7   8
ATOM      8  N   UNL     1      50.110   7.248  17.891  0.00  0.00    +0.000 NA
ATOM      9  H   UNL     1      50.615   6.549  17.349  0.00  0.00    +0.000 HD
BRANCH   8  10
ATOM     10  C   UNL     1      48.762   6.725  18.159  0.00  0.00    +0.000 C 
BRANCH  10  11
ATOM     11  C   UNL     1      48.624   5.241  17.777  0.00  0.00    +0.000 A 
ATOM     12  C   UNL     1      49.749   4.409  17.572  0.00  0.00    +0.000 A 
ATOM     13  C   UNL     1      49.611   3.061  17.265  0.00  0.00    +0.000 A 
ATOM     14  C   UNL     1      48.340   2.511  17.141  0.00  0.00    +0.000 A 
ATOM     15  C   UNL     1      47.214   3.315  17.315  0.00  0.00    +0.000 A 
ATOM     16  C   UNL     1      47.352   4.671  17.628  0.00  0.00    +0.000 A 
ENDBRANCH  10  11
BRANCH  10  18
ATOM     17  N   UNL     1      47.979   7.066  20.806  0.00  0.00    +0.000 NA
ATOM     18  C   UNL     1      48.334   6.911  19.605  0.00  0.00    +0.000 C 
ENDBRANCH  10  18
ENDBRANCH   8  10
ENDBRANCH   7   8
ENDBRANCH   1   7
BRANCH   4  19
ATOM     19  C   UNL     1      47.589   7.896  11.912  0.00  0.00    +0.000 C 
BRANCH  19  20
ATOM     20  N   UNL     1      46.870   6.657  11.768  0.00  0.00    +0.000 N 
ATOM     21  C   UNL     1      45.499   6.632  11.714  0.00  0.00    +0.000 C 
ATOM     22  O   UNL     1      44.823   7.655  11.761  0.00  0.00    +0.000 OA
ATOM     23  H   UNL     1      47.366   5.809  12.023  0.00  0.00    +0.000 HD
BRANCH  21  24
ATOM     24  C   UNL     1      44.885   5.312  11.528  0.00  0.00    +0.000 A 
ATOM     25  C   UNL     1      44.141   4.742  12.551  0.00  0.00    +0.000 A 
ATOM     26  S   UNL     1      43.471   3.227  12.144  0.00  0.00    +0.000 S 
ATOM     27  C   UNL     1      44.194   3.260  10.604  0.00  0.00    +0.000 A 
ATOM     28  N   UNL     1      44.045   2.222   9.736  0.00  0.00    +0.000 NA
ATOM     29  C   UNL     1      44.664   2.373   8.613  0.00  0.00    +0.000 A 
ATOM     30  N   UNL     1      45.413   3.471   8.274  0.00  0.00    +0.000 N 
ATOM     31  C   UNL     1      45.559   4.557   9.103  0.00  0.00    +0.000 A 
ATOM     32  O   UNL     1      46.179   5.552   8.743  0.00  0.00    +0.000 OA
ATOM     33  C   UNL     1      44.907   4.425  10.391  0.00  0.00    +0.000 A 
ATOM     34  H   UNL     1      45.854   3.538   7.369  0.00  0.00    +0.000 HD
ENDBRANCH  21  24
ENDBRANCH  19  20
ENDBRANCH   4  19
TORSDOF 8
ENDMDL
MODEL 7
REMARK VINA RESULT:    -6.661      3.949      5.569
REMARK INTER + INTRA:         -11.054
REMARK INTER:                 -10.144
REMARK INTRA:                  -0.911
REMARK UNBOUND:                -1.277
REMARK  Name = 
REMARK  8 active torsions:
REMARK  status: ('A' for Active; 'I' for Inactive)
REMARK    1  A    between atoms: C_2  and  C_3
REMARK    2  A    between atoms: C_3  and  N_4
REMARK    3  A    between atoms: C_3  and  C_26
REMARK    4  A    between atoms: N_4  and  C_5
REMARK    5  A    between atoms: C_5  and  C_6
REMARK    6  A    between atoms: C_9  and  C_10
REMARK    7  A    between atoms: C_10  and  N_11
REMARK    8  A    between atoms: C_12  and  C_14
REMARK                            x       y       z     vdW  Elec       q    Type
REMARK                         _______ _______ _______ _____ _____    ______ ____
ROOT
ATOM      1  C   UNL     1      45.505   6.125  12.623  0.00  0.00    +0.000 A 
ATOM      2  C   UNL     1      46.002   7.439  12.594  0.00  0.00    +0.000 A 
ATOM      3  C   UNL     1      47.199   7.760  13.239  0.00  0.00    +0.000 A 
ATOM      4  C   UNL     1      47.916   6.780  13.924  0.00  0.00    +0.000 A 
ATOM      5  C   UNL     1      47.395   5.482  13.998  0.00  0.00    +0.000 A 
ATOM      6  C   UNL     1      46.205   5.154  13.346  0.00  0.00    +0.000 A 
ENDROOT
BRANCH   1   7
ATOM      7  C   UNL     1      44.238   5.773  11.888  0.00  0.00    +0.000 C 
BRANCH   7   8
ATOM      8  N   UNL     1      44.517   5.541  10.465  0.00  0.00    +0.000 NA
ATOM      9  H   UNL     1      44.091   6.291   9.923  0.00  0.00    +0.000 HD
BRANCH   8  10
ATOM     10  C   UNL     1      43.978   4.265   9.972  0.00  0.00    +0.000 C 
BRANCH  10  11
ATOM     11  C   UNL     1      44.952   3.549   9.020  0.00  0.00    +0.000 A 
ATOM     12  C   UNL     1      45.662   4.238   8.010  0.00  0.00    +0.000 A 
ATOM     13  C   UNL     1      46.566   3.587   7.182  0.00  0.00    +0.000 A 
ATOM     14  C   UNL     1      46.777   2.221   7.334  0.00  0.00    +0.000 A 
ATOM     15  C   UNL     1      46.073   1.513   8.306  0.00  0.00    +0.000 A 
ATOM     16  C   UNL     1      45.165   2.169   9.143  0.00  0.00    +0.000 A 
ENDBRANCH  10  11
BRANCH  10  18
ATOM     17  N   UNL     1      43.261   2.531  12.025  0.00  0.00    +0.000 NA
ATOM     18  C   UNL     1      43.587   3.317  11.093  0.00  0.00    +0.000 C 
ENDBRANCH  10  18
ENDBRANCH   8  10
ENDBRANCH   7   8
ENDBRANCH   1   7
BRANCH   4  19
ATOM     19  C   UNL     1      49.226   7.101  14.599  0.00  0.00    +0.000 C 
BRANCH  19  20
ATOM     20  N   UNL     1      50.263   7.388  13.642  0.00  0.00    +0.000 N 
ATOM     21  C   UNL     1      50.632   8.680  13.361  0.00  0.00    +0.000 C 
ATOM     22  O   UNL     1      50.120   9.645  13.921  0.00  0.00    +0.000 OA
ATOM     23  H   UNL     1      50.479   6.660  12.971  0.00  0.00    +0.000 HD
BRANCH  21  24
ATOM     24  C   UNL     1      51.726   8.842  12.396  0.00  0.00    +0.000 A 
ATOM     25  C   UNL     1      51.489   8.659  11.041  0.00  0.00    +0.000 A 
ATOM     26  S   UNL     1      52.864   8.926  10.067  0.00  0.00    +0.000 S 
ATOM     27  C   UNL     1      53.833   9.248  11.428  0.00  0.00    +0.000 A 
ATOM     28  N   UNL     1      55.159   9.526  11.297  0.00  0.00    +0.000 NA
ATOM     29  C   UNL     1      55.775   9.729  12.413  0.00  0.00    +0.000 A 
ATOM     30  N   UNL     1      55.184   9.689  13.651  0.00  0.00    +0.000 N 
ATOM     31  C   UNL     1      53.844   9.452  13.828  0.00  0.00    +0.000 A 
ATOM     32  O   UNL     1      53.333   9.490  14.942  0.00  0.00    +0.000 OA
ATOM     33  C   UNL     1      53.111   9.186  12.605  0.00  0.00    +0.000 A 
ATOM     34  H   UNL     1      55.718   9.881  14.485  0.00  0.00    +0.000 HD
ENDBRANCH  21  24
ENDBRANCH  19  20
ENDBRANCH   4  19
TORSDOF 8
ENDMDL
MODEL 8
REMARK VINA RESULT:    -6.256      3.265      8.811
REMARK INTER + INTRA:         -10.460
REMARK INTER:                  -8.749
REMARK INTRA:                  -1.711
REMARK UNBOUND:                -1.277
REMARK  Name = 
REMARK  8 active torsions:
REMARK  status: ('A' for Active; 'I' for Inactive)
REMARK    1  A    between atoms: C_2  and  C_3
REMARK    2  A    between atoms: C_3  and  N_4
REMARK    3  A    between atoms: C_3  and  C_26
REMARK    4  A    between atoms: N_4  and  C_5
REMARK    5  A    between atoms: C_5  and  C_6
REMARK    6  A    between atoms: C_9  and  C_10
REMARK    7  A    between atoms: C_10  and  N_11
REMARK    8  A    between atoms: C_12  and  C_14
REMARK                            x       y       z     vdW  Elec       q    Type
REMARK                         _______ _______ _______ _____ _____    ______ ____
ROOT
ATOM      1  C   UNL     1      50.151   8.155  14.388  0.00  0.00    +0.000 A 
ATOM      2  C   UNL     1      48.947   8.588  14.968  0.00  0.00    +0.000 A 
ATOM      3  C   UNL     1      47.761   8.584  14.230  0.00  0.00    +0.000 A 
ATOM      4  C   UNL     1      47.757   8.152  12.903  0.00  0.00    +0.000 A 
ATOM      5  C   UNL     1      48.966   7.770  12.308  0.00  0.00    +0.000 A 
ATOM      6  C   UNL     1      50.152   7.762  13.046  0.00  0.00    +0.000 A 
ENDROOT
BRANCH   1   7
ATOM      7  C   UNL     1      51.419   8.118  15.202  0.00  0.00    +0.000 C 
BRANCH   7   8
ATOM      8  N   UNL     1      51.762   6.735  15.554  0.00  0.00    +0.000 NA
ATOM      9  H   UNL     1      51.086   6.110  15.118  0.00  0.00    +0.000 HD
BRANCH   8  10
ATOM     10  C   UNL     1      51.739   6.485  17.003  0.00  0.00    +0.000 C 
BRANCH  10  11
ATOM     11  C   UNL     1      50.307   6.354  17.551  0.00  0.00    +0.000 A 
ATOM     12  C   UNL     1      49.808   7.204  18.564  0.00  0.00    +0.000 A 
ATOM     13  C   UNL     1      48.501   7.100  19.024  0.00  0.00    +0.000 A 
ATOM     14  C   UNL     1      47.659   6.132  18.488  0.00  0.00    +0.000 A 
ATOM     15  C   UNL     1      48.134   5.265  17.504  0.00  0.00    +0.000 A 
ATOM     16  C   UNL     1      49.447   5.372  17.039  0.00  0.00    +0.000 A 
ENDBRANCH  10  11
BRANCH  10  18
ATOM     17  N   UNL     1      53.209   4.241  17.736  0.00  0.00    +0.000 NA
ATOM     18  C   UNL     1      52.542   5.259  17.404  0.00  0.00    +0.000 C 
ENDBRANCH  10  18
ENDBRANCH   8  10
ENDBRANCH   7   8
ENDBRANCH   1   7
BRANCH   4  19
ATOM     19  C   UNL     1      46.481   8.110  12.101  0.00  0.00    +0.000 C 
BRANCH  19  20
ATOM     20  N   UNL     1      46.053   6.759  11.849  0.00  0.00    +0.000 N 
ATOM     21  C   UNL     1      44.753   6.477  11.511  0.00  0.00    +0.000 C 
ATOM     22  O   UNL     1      43.903   7.354  11.384  0.00  0.00    +0.000 OA
ATOM     23  H   UNL     1      46.632   6.018  12.229  0.00  0.00    +0.000 HD
BRANCH  21  24
ATOM     24  C   UNL     1      44.448   5.067  11.243  0.00  0.00    +0.000 A 
ATOM     25  C   UNL     1      43.667   4.344  12.134  0.00  0.00    +0.000 A 
ATOM     26  S   UNL     1      43.384   2.735  11.642  0.00  0.00    +0.000 S 
ATOM     27  C   UNL     1      44.337   2.936  10.246  0.00  0.00    +0.000 A 
ATOM     28  N   UNL     1      44.541   1.907   9.381  0.00  0.00    +0.000 NA
ATOM     29  C   UNL     1      45.300   2.196   8.377  0.00  0.00    +0.000 A 
ATOM     30  N   UNL     1      45.867   3.425   8.154  0.00  0.00    +0.000 N 
ATOM     31  C   UNL     1      45.656   4.502   8.979  0.00  0.00    +0.000 A 
ATOM     32  O   UNL     1      46.122   5.606   8.715  0.00  0.00    +0.000 OA
ATOM     33  C   UNL     1      44.834   4.222  10.140  0.00  0.00    +0.000 A 
ATOM     34  H   UNL     1      46.432   3.593   7.335  0.00  0.00    +0.000 HD
ENDBRANCH  21  24
ENDBRANCH  19  20
ENDBRANCH   4  19
TORSDOF 8
ENDMDL
MODEL 9
REMARK VINA RESULT:    -5.841      3.619      8.042
REMARK INTER + INTRA:          -9.849
REMARK INTER:                  -7.774
REMARK INTRA:                  -2.075
REMARK UNBOUND:                -1.277
REMARK  Name = 
REMARK  8 active torsions:
REMARK  status: ('A' for Active; 'I' for Inactive)
REMARK    1  A    between atoms: C_2  and  C_3
REMARK    2  A    between atoms: C_3  and  N_4
REMARK    3  A    between atoms: C_3  and  C_26
REMARK    4  A    between atoms: N_4  and  C_5
REMARK    5  A    between atoms: C_5  and  C_6
REMARK    6  A    between atoms: C_9  and  C_10
REMARK    7  A    between atoms: C_10  and  N_11
REMARK    8  A    between atoms: C_12  and  C_14
REMARK                            x       y       z     vdW  Elec       q    Type
REMARK                         _______ _______ _______ _____ _____    ______ ____
ROOT
ATOM      1  C   UNL     1      50.696   8.393  15.974  0.00  0.00    +0.000 A 
ATOM      2  C   UNL     1      50.662   7.452  14.932  0.00  0.00    +0.000 A 
ATOM      3  C   UNL     1      49.895   7.686  13.788  0.00  0.00    +0.000 A 
ATOM      4  C   UNL     1      49.149   8.858  13.666  0.00  0.00    +0.000 A 
ATOM      5  C   UNL     1      49.140   9.772  14.727  0.00  0.00    +0.000 A 
ATOM      6  C   UNL     1      49.914   9.547  15.868  0.00  0.00    +0.000 A 
ENDROOT
BRANCH   1   7
ATOM      7  C   UNL     1      51.560   8.158  17.186  0.00  0.00    +0.000 C 
BRANCH   7   8
ATOM      8  N   UNL     1      50.811   7.429  18.217  0.00  0.00    +0.000 NA
ATOM      9  H   UNL     1      50.954   7.892  19.112  0.00  0.00    +0.000 HD
BRANCH   8  10
ATOM     10  C   UNL     1      51.238   6.029  18.358  0.00  0.00    +0.000 C 
BRANCH  10  11
ATOM     11  C   UNL     1      50.172   5.039  17.856  0.00  0.00    +0.000 A 
ATOM     12  C   UNL     1      48.872   5.455  17.489  0.00  0.00    +0.000 A 
ATOM     13  C   UNL     1      47.931   4.558  17.002  0.00  0.00    +0.000 A 
ATOM     14  C   UNL     1      48.263   3.213  16.879  0.00  0.00    +0.000 A 
ATOM     15  C   UNL     1      49.530   2.772  17.256  0.00  0.00    +0.000 A 
ATOM     16  C   UNL     1      50.479   3.676  17.743  0.00  0.00    +0.000 A 
ENDBRANCH  10  11
BRANCH  10  18
ATOM     17  N   UNL     1      53.652   5.502  17.082  0.00  0.00    +0.000 NA
ATOM     18  C   UNL     1      52.557   5.741  17.661  0.00  0.00    +0.000 C 
ENDBRANCH  10  18
ENDBRANCH   8  10
ENDBRANCH   7   8
ENDBRANCH   1   7
BRANCH   4  19
ATOM     19  C   UNL     1      48.341   9.143  12.425  0.00  0.00    +0.000 C 
BRANCH  19  20
ATOM     20  N   UNL     1      47.442   8.062  12.114  0.00  0.00    +0.000 N 
ATOM     21  C   UNL     1      46.151   8.055  12.579  0.00  0.00    +0.000 C 
ATOM     22  O   UNL     1      45.693   8.970  13.257  0.00  0.00    +0.000 OA
ATOM     23  H   UNL     1      47.864   7.186  11.827  0.00  0.00    +0.000 HD
BRANCH  21  24
ATOM     24  C   UNL     1      45.322   6.918  12.163  0.00  0.00    +0.000 A 
ATOM     25  C   UNL     1      44.177   7.133  11.409  0.00  0.00    +0.000 A 
ATOM     26  S   UNL     1      43.361   5.696  10.984  0.00  0.00    +0.000 S 
ATOM     27  C   UNL     1      44.485   4.742  11.834  0.00  0.00    +0.000 A 
ATOM     28  N   UNL     1      44.349   3.390  11.902  0.00  0.00    +0.000 NA
ATOM     29  C   UNL     1      45.262   2.796  12.596  0.00  0.00    +0.000 A 
ATOM     30  N   UNL     1      46.304   3.430  13.223  0.00  0.00    +0.000 N 
ATOM     31  C   UNL     1      46.502   4.787  13.149  0.00  0.00    +0.000 A 
ATOM     32  O   UNL     1      47.482   5.316  13.663  0.00  0.00    +0.000 OA
ATOM     33  C   UNL     1      45.486   5.506  12.405  0.00  0.00    +0.000 A 
ATOM     34  H   UNL     1      46.999   2.905  13.732  0.00  0.00    +0.000 HD
ENDBRANCH  21  24
ENDBRANCH  19  20
ENDBRANCH   4  19
TORSDOF 8
ENDMDL
