MODEL 1
REMARK VINA RESULT:    -8.371      0.000      0.000
REMARK INTER + INTRA:         -11.024
REMARK INTER:                 -10.818
REMARK INTRA:                  -0.206
REMARK UNBOUND:                -0.206
REMARK  Name = 
REMARK  6 active torsions:
REMARK  status: ('A' for Active; 'I' for Inactive)
REMARK    1  A    between atoms: C_1  and  O_2
REMARK    2  A    between atoms: O_2  and  C_3
REMARK    3  A    between atoms: N_6  and  C_7
REMARK    4  A    between atoms: C_7  and  C_8
REMARK    5  A    between atoms: C_12  and  C_13
REMARK    6  A    between atoms: C_22  and  C_23
REMARK                            x       y       z     vdW  Elec       q    Type
REMARK                         _______ _______ _______ _____ _____    ______ ____
ROOT
ATOM      1  C   UNL     1      46.120   3.460   7.632  0.00  0.00    +0.000 A 
ATOM      2  N   UNL     1      45.292   4.372   8.197  0.00  0.00    +0.000 NA
ATOM      3  C   UNL     1      44.506   3.967   9.195  0.00  0.00    +0.000 A 
ATOM      4  N   UNL     1      43.679   4.930   9.741  0.00  0.00    +0.000 N 
ATOM      5  N   UNL     1      44.495   2.714   9.659  0.00  0.00    +0.000 NA
ATOM      6  C   UNL     1      45.329   1.828   9.063  0.00  0.00    +0.000 A 
ATOM      7  C   UNL     1      46.184   2.142   8.030  0.00  0.00    +0.000 A 
ATOM      8  H   UNL     1      44.048   5.846   9.506  0.00  0.00    +0.000 HD
ENDROOT
BRANCH   7   9
ATOM      9  C   UNL     1      47.077   1.087   7.504  0.00  0.00    +0.000 C 
ATOM     10  N   UNL     1      48.259   1.444   6.924  0.00  0.00    +0.000 N 
ATOM     11  O   UNL     1      46.768  -0.097   7.592  0.00  0.00    +0.000 OA
ATOM     12  H   UNL     1      48.550   2.409   6.821  0.00  0.00    +0.000 HD
ATOM     13  H   UNL     1      48.874   0.709   6.601  0.00  0.00    +0.000 HD
ENDBRANCH   7   9
BRANCH   1  15
ATOM     14  C   UNL     1      46.566   3.399   5.331  0.00  0.00    +0.000 C 
ATOM     15  O   UNL     1      46.949   3.898   6.614  0.00  0.00    +0.000 OA
ENDBRANCH   1  15
BRANCH   4  16
ATOM     16  C   UNL     1      43.386   4.761  11.160  0.00  0.00    +0.000 C 
BRANCH  16  17
ATOM     17  C   UNL     1      44.604   5.082  12.017  0.00  0.00    +0.000 A 
ATOM     18  N   UNL     1      44.946   4.196  12.978  0.00  0.00    +0.000 NA
ATOM     19  C   UNL     1      46.028   4.504  13.714  0.00  0.00    +0.000 A 
ATOM     20  C   UNL     1      46.778   5.641  13.525  0.00  0.00    +0.000 A 
ATOM     21  C   UNL     1      46.368   6.495  12.518  0.00  0.00    +0.000 A 
ATOM     22  N   UNL     1      45.272   6.232  11.770  0.00  0.00    +0.000 NA
BRANCH  21  23
ATOM     23  C   UNL     1      47.090   7.746  12.204  0.00  0.00    +0.000 A 
ATOM     24  C   UNL     1      48.441   7.746  11.834  0.00  0.00    +0.000 A 
ATOM     25  C   UNL     1      49.083   8.951  11.589  0.00  0.00    +0.000 A 
ATOM     26  N   UNL     1      48.479  10.151  11.677  0.00  0.00    +0.000 NA
ATOM     27  C   UNL     1      47.172  10.144  12.008  0.00  0.00    +0.000 A 
ATOM     28  C   UNL     1      46.447   8.990  12.271  0.00  0.00    +0.000 A 
ENDBRANCH  21  23
ENDBRANCH  16  17
ENDBRANCH   4  16
TORSDOF 5
ENDMDL
MODEL 2
REMARK VINA RESULT:    -7.908      2.841      6.949
REMARK INTER + INTRA:         -10.425
REMARK INTER:                  -9.376
REMARK INTRA:                  -1.050
REMARK UNBOUND:                -0.206
REMARK  Name = 
REMARK  6 active torsions:
REMARK  status: ('A' for Active; 'I' for Inactive)
REMARK    1  A    between atoms: C_1  and  O_2
REMARK    2  A    between atoms: O_2  and  C_3
REMARK    3  A    between atoms: N_6  and  C_7
REMARK    4  A    between atoms: C_7  and  C_8
REMARK    5  A    between atoms: C_12  and  C_13
REMARK    6  A    between atoms: C_22  and  C_23
REMARK                            x       y       z     vdW  Elec       q    Type
REMARK                         _______ _______ _______ _____ _____    ______ ____
ROOT
ATOM      1  C   UNL     1      48.419   6.769  13.703  0.00  0.00    +0.000 A 
ATOM      2  N   UNL     1      47.094   6.505  13.798  0.00  0.00    +0.000 NA
ATOM      3  C   UNL     1      46.293   6.975  12.840  0.00  0.00    +0.000 A 
ATOM      4  N   UNL     1      44.950   6.682  12.978  0.00  0.00    +0.000 N 
ATOM      5  N   UNL     1      46.734   7.690  11.800  0.00  0.00    +0.000 NA
ATOM      6  C   UNL     1      48.064   7.943  11.744  0.00  0.00    +0.000 A 
ATOM      7  C   UNL     1      48.977   7.501  12.676  0.00  0.00    +0.000 A 
ATOM      8  H   UNL     1      44.854   5.889  13.605  0.00  0.00    +0.000 HD
ENDROOT
BRANCH   7   9
ATOM      9  C   UNL     1      50.408   7.808  12.466  0.00  0.00    +0.000 C 
ATOM     10  N   UNL     1      51.186   8.123  13.541  0.00  0.00    +0.000 N 
ATOM     11  O   UNL     1      50.897   7.772  11.341  0.00  0.00    +0.000 OA
ATOM     12  H   UNL     1      50.823   8.174  14.485  0.00  0.00    +0.000 HD
ATOM     13  H   UNL     1      52.170   8.296  13.384  0.00  0.00    +0.000 HD
ENDBRANCH   7   9
BRANCH   1  15
ATOM     14  C   UNL     1      48.726   6.458  16.006  0.00  0.00    +0.000 C 
ATOM     15  O   UNL     1      49.242   6.255  14.689  0.00  0.00    +0.000 OA
ENDBRANCH   1  15
BRANCH   4  16
ATOM     16  C   UNL     1      44.218   6.532  11.724  0.00  0.00    +0.000 C 
BRANCH  16  17
ATOM     17  C   UNL     1      44.143   5.070  11.300  0.00  0.00    +0.000 A 
ATOM     18  N   UNL     1      43.323   4.256  12.001  0.00  0.00    +0.000 NA
ATOM     19  C   UNL     1      43.274   2.974  11.601  0.00  0.00    +0.000 A 
ATOM     20  C   UNL     1      43.992   2.480  10.537  0.00  0.00    +0.000 A 
ATOM     21  C   UNL     1      44.803   3.377   9.867  0.00  0.00    +0.000 A 
ATOM     22  N   UNL     1      44.898   4.670  10.252  0.00  0.00    +0.000 NA
BRANCH  21  23
ATOM     23  C   UNL     1      45.622   2.980   8.701  0.00  0.00    +0.000 A 
ATOM     24  C   UNL     1      46.031   1.654   8.505  0.00  0.00    +0.000 A 
ATOM     25  C   UNL     1      46.832   1.339   7.417  0.00  0.00    +0.000 A 
ATOM     26  N   UNL     1      47.248   2.243   6.510  0.00  0.00    +0.000 NA
ATOM     27  C   UNL     1      46.830   3.512   6.689  0.00  0.00    +0.000 A 
ATOM     28  C   UNL     1      46.028   3.921   7.745  0.00  0.00    +0.000 A 
ENDBRANCH  21  23
ENDBRANCH  16  17
ENDBRANCH   4  16
TORSDOF 5
ENDMDL
MODEL 3
REMARK VINA RESULT:    -7.719      3.426      7.284
REMARK INTER + INTRA:         -10.181
REMARK INTER:                 -10.129
REMARK INTRA:                  -0.052
REMARK UNBOUND:                -0.206
REMARK  Name = 
REMARK  6 active torsions:
REMARK  status: ('A' for Active; 'I' for Inactive)
REMARK    1  A    between atoms: C_1  and  O_2
REMARK    2  A    between atoms: O_2  and  C_3
REMARK    3  A    between atoms: N_6  and  C_7
REMARK    4  A    between atoms: C_7  and  C_8
REMARK    5  A    between atoms: C_12  and  C_13
REMARK    6  A    between atoms: C_22  and  C_23
REMARK                            x       y       z     vdW  Elec       q    Type
REMARK                         _______ _______ _______ _____ _____    ______ ____
ROOT
ATOM      1  C   UNL     1      48.196   5.814  14.839  0.00  0.00    +0.000 A 
ATOM      2  N   UNL     1      48.001   6.345  13.608  0.00  0.00    +0.000 NA
ATOM      3  C   UNL     1      46.986   5.877  12.880  0.00  0.00    +0.000 A 
ATOM      4  N   UNL     1      46.825   6.447  11.631  0.00  0.00    +0.000 N 
ATOM      5  N   UNL     1      46.159   4.917  13.305  0.00  0.00    +0.000 NA
ATOM      6  C   UNL     1      46.391   4.404  14.537  0.00  0.00    +0.000 A 
ATOM      7  C   UNL     1      47.406   4.817  15.371  0.00  0.00    +0.000 A 
ATOM      8  H   UNL     1      47.305   7.342  11.619  0.00  0.00    +0.000 HD
ENDROOT
BRANCH   7   9
ATOM      9  C   UNL     1      47.515   4.205  16.713  0.00  0.00    +0.000 C 
ATOM     10  N   UNL     1      48.474   4.652  17.572  0.00  0.00    +0.000 N 
ATOM     11  O   UNL     1      46.749   3.310  17.056  0.00  0.00    +0.000 OA
ATOM     12  H   UNL     1      49.134   5.381  17.328  0.00  0.00    +0.000 HD
ATOM     13  H   UNL     1      48.513   4.247  18.498  0.00  0.00    +0.000 HD
ENDBRANCH   7   9
BRANCH   1  15
ATOM     14  C   UNL     1      49.941   7.377  14.932  0.00  0.00    +0.000 C 
ATOM     15  O   UNL     1      49.238   6.325  15.594  0.00  0.00    +0.000 OA
ENDBRANCH   1  15
BRANCH   4  16
ATOM     16  C   UNL     1      45.447   6.511  11.154  0.00  0.00    +0.000 C 
BRANCH  16  17
ATOM     17  C   UNL     1      44.967   5.149  10.669  0.00  0.00    +0.000 A 
ATOM     18  N   UNL     1      43.883   4.615  11.274  0.00  0.00    +0.000 NA
ATOM     19  C   UNL     1      43.480   3.416  10.822  0.00  0.00    +0.000 A 
ATOM     20  C   UNL     1      44.099   2.741   9.796  0.00  0.00    +0.000 A 
ATOM     21  C   UNL     1      45.197   3.357   9.224  0.00  0.00    +0.000 A 
ATOM     22  N   UNL     1      45.648   4.553   9.666  0.00  0.00    +0.000 NA
BRANCH  21  23
ATOM     23  C   UNL     1      45.950   2.744   8.108  0.00  0.00    +0.000 A 
ATOM     24  C   UNL     1      46.332   1.396   8.128  0.00  0.00    +0.000 A 
ATOM     25  C   UNL     1      47.072   0.879   7.075  0.00  0.00    +0.000 A 
ATOM     26  N   UNL     1      47.453   1.602   6.004  0.00  0.00    +0.000 NA
ATOM     27  C   UNL     1      47.061   2.892   5.978  0.00  0.00    +0.000 A 
ATOM     28  C   UNL     1      46.319   3.495   6.984  0.00  0.00    +0.000 A 
ENDBRANCH  21  23
ENDBRANCH  16  17
ENDBRANCH   4  16
TORSDOF 5
ENDMDL
MODEL 4
REMARK VINA RESULT:    -7.684      4.294      8.036
REMARK INTER + INTRA:         -10.136
REMARK INTER:                  -9.700
REMARK INTRA:                  -0.436
REMARK UNBOUND:                -0.206
REMARK  Name = 
REMARK  6 active torsions:
REMARK  status: ('A' for Active; 'I' for Inactive)
REMARK    1  A    between atoms: C_1  and  O_2
REMARK    2  A    between atoms: O_2  and  C_3
REMARK    3  A    between atoms: N_6  and  C_7
REMARK    4  A    between atoms: C_7  and  C_8
REMARK    5  A    between atoms: C_12  and  C_13
REMARK    6  A    between atoms: C_22  and  C_23
REMARK                            x       y       z     vdW  Elec       q    Type
REMARK                         _______ _______ _______ _____ _____    ______ ____
ROOT
ATOM      1  C   UNL     1      48.492   5.410  16.331  0.00  0.00    +0.000 A 
ATOM      2  N   UNL     1      47.885   5.546  15.127  0.00  0.00    +0.000 NA
ATOM      3  C   UNL     1      47.307   4.469  14.595  0.00  0.00    +0.000 A 
ATOM      4  N   UNL     1      46.701   4.653  13.367  0.00  0.00    +0.000 N 
ATOM      5  N   UNL     1      47.300   3.271  15.188  0.00  0.00    +0.000 NA
ATOM      6  C   UNL     1      47.926   3.171  16.385  0.00  0.00    +0.000 A 
ATOM      7  C   UNL     1      48.548   4.220  17.024  0.00  0.00    +0.000 A 
ATOM      8  H   UNL     1      46.520   5.645  13.240  0.00  0.00    +0.000 HD
ENDROOT
BRANCH   7   9
ATOM      9  C   UNL     1      49.150   3.982  18.354  0.00  0.00    +0.000 C 
ATOM     10  N   UNL     1      48.412   3.359  19.317  0.00  0.00    +0.000 N 
ATOM     11  O   UNL     1      50.302   4.332  18.591  0.00  0.00    +0.000 OA
ATOM     12  H   UNL     1      47.455   3.062  19.168  0.00  0.00    +0.000 HD
ATOM     13  H   UNL     1      48.850   3.173  20.209  0.00  0.00    +0.000 HD
ENDBRANCH   7   9
BRANCH   1  15
ATOM     14  C   UNL     1      49.929   7.229  15.976  0.00  0.00    +0.000 C 
ATOM     15  O   UNL     1      49.067   6.541  16.885  0.00  0.00    +0.000 OA
ENDBRANCH   1  15
BRANCH   4  16
ATOM     16  C   UNL     1      45.537   3.808  13.119  0.00  0.00    +0.000 C 
BRANCH  16  17
ATOM     17  C   UNL     1      45.021   3.983  11.696  0.00  0.00    +0.000 A 
ATOM     18  N   UNL     1      43.955   4.792  11.511  0.00  0.00    +0.000 NA
ATOM     19  C   UNL     1      43.526   4.931  10.245  0.00  0.00    +0.000 A 
ATOM     20  C   UNL     1      44.116   4.311   9.169  0.00  0.00    +0.000 A 
ATOM     21  C   UNL     1      45.207   3.505   9.439  0.00  0.00    +0.000 A 
ATOM     22  N   UNL     1      45.655   3.321  10.702  0.00  0.00    +0.000 NA
BRANCH  21  23
ATOM     23  C   UNL     1      45.938   2.787   8.373  0.00  0.00    +0.000 A 
ATOM     24  C   UNL     1      46.121   1.398   8.411  0.00  0.00    +0.000 A 
ATOM     25  C   UNL     1      46.850   0.777   7.407  0.00  0.00    +0.000 A 
ATOM     26  N   UNL     1      47.401   1.434   6.369  0.00  0.00    +0.000 NA
ATOM     27  C   UNL     1      47.201   2.766   6.324  0.00  0.00    +0.000 A 
ATOM     28  C   UNL     1      46.486   3.473   7.281  0.00  0.00    +0.000 A 
ENDBRANCH  21  23
ENDBRANCH  16  17
ENDBRANCH   4  16
TORSDOF 5
ENDMDL
MODEL 5
REMARK VINA RESULT:    -7.645      5.507      7.634
REMARK INTER + INTRA:         -10.086
REMARK INTER:                  -9.310
REMARK INTRA:                  -0.776
REMARK UNBOUND:                -0.206
REMARK  Name = 
REMARK  6 active torsions:
REMARK  status: ('A' for Active; 'I' for Inactive)
REMARK    1  A    between atoms: C_1  and  O_2
REMARK    2  A    between atoms: O_2  and  C_3
REMARK    3  A    between atoms: N_6  and  C_7
REMARK    4  A    between atoms: C_7  and  C_8
REMARK    5  A    between atoms: C_12  and  C_13
REMARK    6  A    between atoms: C_22  and  C_23
REMARK                            x       y       z     vdW  Elec       q    Type
REMARK                         _______ _______ _______ _____ _____    ______ ____
ROOT
ATOM      1  C   UNL     1      45.585   4.015  12.319  0.00  0.00    +0.000 A 
ATOM      2  N   UNL     1      46.078   3.407  13.425  0.00  0.00    +0.000 NA
ATOM      3  C   UNL     1      46.773   4.149  14.288  0.00  0.00    +0.000 A 
ATOM      4  N   UNL     1      47.256   3.488  15.401  0.00  0.00    +0.000 N 
ATOM      5  N   UNL     1      47.004   5.454  14.114  0.00  0.00    +0.000 NA
ATOM      6  C   UNL     1      46.505   6.025  12.992  0.00  0.00    +0.000 A 
ATOM      7  C   UNL     1      45.771   5.352  12.040  0.00  0.00    +0.000 A 
ATOM      8  H   UNL     1      46.723   2.632  15.527  0.00  0.00    +0.000 HD
ENDROOT
BRANCH   7   9
ATOM      9  C   UNL     1      45.243   6.111  10.885  0.00  0.00    +0.000 C 
ATOM     10  N   UNL     1      45.291   5.550   9.643  0.00  0.00    +0.000 N 
ATOM     11  O   UNL     1      44.759   7.227  11.039  0.00  0.00    +0.000 OA
ATOM     12  H   UNL     1      45.690   4.636   9.468  0.00  0.00    +0.000 HD
ATOM     13  H   UNL     1      44.894   6.068   8.870  0.00  0.00    +0.000 HD
ENDBRANCH   7   9
BRANCH   1  15
ATOM     14  C   UNL     1      43.485   3.084  11.851  0.00  0.00    +0.000 C 
ATOM     15  O   UNL     1      44.845   3.240  11.443  0.00  0.00    +0.000 OA
ENDBRANCH   1  15
BRANCH   4  16
ATOM     16  C   UNL     1      47.356   4.301  16.609  0.00  0.00    +0.000 C 
BRANCH  16  17
ATOM     17  C   UNL     1      48.803   4.675  16.904  0.00  0.00    +0.000 A 
ATOM     18  N   UNL     1      49.137   5.983  16.846  0.00  0.00    +0.000 NA
ATOM     19  C   UNL     1      50.419   6.282  17.116  0.00  0.00    +0.000 A 
ATOM     20  C   UNL     1      51.367   5.343  17.448  0.00  0.00    +0.000 A 
ATOM     21  C   UNL     1      50.945   4.026  17.493  0.00  0.00    +0.000 A 
ATOM     22  N   UNL     1      49.670   3.682  17.206  0.00  0.00    +0.000 NA
BRANCH  21  23
ATOM     23  C   UNL     1      51.860   2.919  17.844  0.00  0.00    +0.000 A 
ATOM     24  C   UNL     1      53.040   3.137  18.567  0.00  0.00    +0.000 A 
ATOM     25  C   UNL     1      53.885   2.070  18.836  0.00  0.00    +0.000 A 
ATOM     26  N   UNL     1      53.637   0.805  18.447  0.00  0.00    +0.000 NA
ATOM     27  C   UNL     1      52.488   0.596  17.774  0.00  0.00    +0.000 A 
ATOM     28  C   UNL     1      51.582   1.600  17.460  0.00  0.00    +0.000 A 
ENDBRANCH  21  23
ENDBRANCH  16  17
ENDBRANCH   4  16
TORSDOF 5
ENDMDL
MODEL 6
REMARK VINA RESULT:    -7.381      3.162      7.057
REMARK INTER + INTRA:          -9.744
REMARK INTER:                  -8.970
REMARK INTRA:                  -0.775
REMARK UNBOUND:                -0.206
REMARK  Name = 
REMARK  6 active torsions:
REMARK  status: ('A' for Active; 'I' for Inactive)
REMARK    1  A    between atoms: C_1  and  O_2
REMARK    2  A    between atoms: O_2  and  C_3
REMARK    3  A    between atoms: N_6  and  C_7
REMARK    4  A    between atoms: C_7  and  C_8
REMARK    5  A    between atoms: C_12  and  C_13
REMARK    6  A    between atoms: C_22  and  C_23
REMARK                            x       y       z     vdW  Elec       q    Type
REMARK                         _______ _______ _______ _____ _____    ______ ____
ROOT
ATOM      1  C   UNL     1      48.400   8.254  12.781  0.00  0.00    +0.000 A 
ATOM      2  N   UNL     1      47.382   8.143  11.893  0.00  0.00    +0.000 NA
ATOM      3  C   UNL     1      46.564   7.095  12.009  0.00  0.00    +0.000 A 
ATOM      4  N   UNL     1      45.541   7.022  11.083  0.00  0.00    +0.000 N 
ATOM      5  N   UNL     1      46.702   6.157  12.952  0.00  0.00    +0.000 NA
ATOM      6  C   UNL     1      47.736   6.297  13.815  0.00  0.00    +0.000 A 
ATOM      7  C   UNL     1      48.635   7.341  13.787  0.00  0.00    +0.000 A 
ATOM      8  H   UNL     1      45.399   7.945  10.684  0.00  0.00    +0.000 HD
ENDROOT
BRANCH   7   9
ATOM      9  C   UNL     1      49.689   7.396  14.822  0.00  0.00    +0.000 C 
ATOM     10  N   UNL     1      50.996   7.468  14.437  0.00  0.00    +0.000 N 
ATOM     11  O   UNL     1      49.398   7.385  16.014  0.00  0.00    +0.000 OA
ATOM     12  H   UNL     1      51.283   7.469  13.466  0.00  0.00    +0.000 HD
ATOM     13  H   UNL     1      51.703   7.540  15.157  0.00  0.00    +0.000 HD
ENDBRANCH   7   9
BRANCH   1  15
ATOM     14  C   UNL     1      49.074  10.039  11.419  0.00  0.00    +0.000 C 
ATOM     15  O   UNL     1      49.226   9.358  12.666  0.00  0.00    +0.000 OA
ENDBRANCH   1  15
BRANCH   4  16
ATOM     16  C   UNL     1      44.315   6.394  11.565  0.00  0.00    +0.000 C 
BRANCH  16  17
ATOM     17  C   UNL     1      44.239   4.933  11.140  0.00  0.00    +0.000 A 
ATOM     18  N   UNL     1      43.429   4.116  11.848  0.00  0.00    +0.000 NA
ATOM     19  C   UNL     1      43.379   2.834  11.446  0.00  0.00    +0.000 A 
ATOM     20  C   UNL     1      44.088   2.343  10.375  0.00  0.00    +0.000 A 
ATOM     21  C   UNL     1      44.889   3.244   9.698  0.00  0.00    +0.000 A 
ATOM     22  N   UNL     1      44.985   4.536  10.084  0.00  0.00    +0.000 NA
BRANCH  21  23
ATOM     23  C   UNL     1      45.698   2.850   8.524  0.00  0.00    +0.000 A 
ATOM     24  C   UNL     1      46.073   3.777   7.543  0.00  0.00    +0.000 A 
ATOM     25  C   UNL     1      46.798   3.349   6.440  0.00  0.00    +0.000 A 
ATOM     26  N   UNL     1      47.182   2.073   6.247  0.00  0.00    +0.000 NA
ATOM     27  C   UNL     1      46.839   1.190   7.207  0.00  0.00    +0.000 A 
ATOM     28  C   UNL     1      46.117   1.525   8.344  0.00  0.00    +0.000 A 
ENDBRANCH  21  23
ENDBRANCH  16  17
ENDBRANCH   4  16
TORSDOF 5
ENDMDL
MODEL 7
REMARK VINA RESULT:    -7.047      4.803      8.198
REMARK INTER + INTRA:          -9.313
REMARK INTER:                  -8.842
REMARK INTRA:                  -0.471
REMARK UNBOUND:                -0.206
REMARK  Name = 
REMARK  6 active torsions:
REMARK  status: ('A' for Active; 'I' for Inactive)
REMARK    1  A    between atoms: C_1  and  O_2
REMARK    2  A    between atoms: O_2  and  C_3
REMARK    3  A    between atoms: N_6  and  C_7
REMARK    4  A    between atoms: C_7  and  C_8
REMARK    5  A    between atoms: C_12  and  C_13
REMARK    6  A    between atoms: C_22  and  C_23
REMARK                            x       y       z     vdW  Elec       q    Type
REMARK                         _______ _______ _______ _____ _____    ______ ____
ROOT
ATOM      1  C   UNL     1      49.041   3.726  17.132  0.00  0.00    +0.000 A 
ATOM      2  N   UNL     1      47.948   3.619  16.339  0.00  0.00    +0.000 NA
ATOM      3  C   UNL     1      47.511   4.719  15.725  0.00  0.00    +0.000 A 
ATOM      4  N   UNL     1      46.394   4.563  14.927  0.00  0.00    +0.000 N 
ATOM      5  N   UNL     1      48.097   5.914  15.855  0.00  0.00    +0.000 NA
ATOM      6  C   UNL     1      49.181   5.985  16.664  0.00  0.00    +0.000 A 
ATOM      7  C   UNL     1      49.716   4.910  17.340  0.00  0.00    +0.000 A 
ATOM      8  H   UNL     1      46.298   3.580  14.693  0.00  0.00    +0.000 HD
ENDROOT
BRANCH   7   9
ATOM      9  C   UNL     1      50.935   5.119  18.151  0.00  0.00    +0.000 C 
ATOM     10  N   UNL     1      52.127   5.322  17.520  0.00  0.00    +0.000 N 
ATOM     11  O   UNL     1      50.879   5.119  19.377  0.00  0.00    +0.000 OA
ATOM     12  H   UNL     1      52.222   5.321  16.512  0.00  0.00    +0.000 HD
ATOM     13  H   UNL     1      52.945   5.498  18.090  0.00  0.00    +0.000 HD
ENDBRANCH   7   9
BRANCH   1  15
ATOM     14  C   UNL     1      50.464   1.871  16.958  0.00  0.00    +0.000 C 
ATOM     15  O   UNL     1      49.499   2.573  17.744  0.00  0.00    +0.000 OA
ENDBRANCH   1  15
BRANCH   4  16
ATOM     16  C   UNL     1      46.331   5.452  13.771  0.00  0.00    +0.000 C 
BRANCH  16  17
ATOM     17  C   UNL     1      45.285   4.980  12.769  0.00  0.00    +0.000 A 
ATOM     18  N   UNL     1      43.984   5.136  13.099  0.00  0.00    +0.000 NA
ATOM     19  C   UNL     1      43.086   4.715  12.193  0.00  0.00    +0.000 A 
ATOM     20  C   UNL     1      43.428   4.162  10.981  0.00  0.00    +0.000 A 
ATOM     21  C   UNL     1      44.779   4.044  10.714  0.00  0.00    +0.000 A 
ATOM     22  N   UNL     1      45.715   4.434  11.609  0.00  0.00    +0.000 NA
BRANCH  21  23
ATOM     23  C   UNL     1      45.284   3.474   9.446  0.00  0.00    +0.000 A 
ATOM     24  C   UNL     1      45.364   2.091   9.239  0.00  0.00    +0.000 A 
ATOM     25  C   UNL     1      45.882   1.606   8.047  0.00  0.00    +0.000 A 
ATOM     26  N   UNL     1      46.318   2.395   7.046  0.00  0.00    +0.000 NA
ATOM     27  C   UNL     1      46.215   3.726   7.241  0.00  0.00    +0.000 A 
ATOM     28  C   UNL     1      45.710   4.302   8.398  0.00  0.00    +0.000 A 
ENDBRANCH  21  23
ENDBRANCH  16  17
ENDBRANCH   4  16
TORSDOF 5
ENDMDL
MODEL 8
REMARK VINA RESULT:    -6.893      5.195      7.290
REMARK INTER + INTRA:          -9.114
REMARK INTER:                  -8.544
REMARK INTRA:                  -0.570
REMARK UNBOUND:                -0.206
REMARK  Name = 
REMARK  6 active torsions:
REMARK  status: ('A' for Active; 'I' for Inactive)
REMARK    1  A    between atoms: C_1  and  O_2
REMARK    2  A    between atoms: O_2  and  C_3
REMARK    3  A    between atoms: N_6  and  C_7
REMARK    4  A    between atoms: C_7  and  C_8
REMARK    5  A    between atoms: C_12  and  C_13
REMARK    6  A    between atoms: C_22  and  C_23
REMARK                            x       y       z     vdW  Elec       q    Type
REMARK                         _______ _______ _______ _____ _____    ______ ____
ROOT
ATOM      1  C   UNL     1      45.412   5.769  12.464  0.00  0.00    +0.000 A 
ATOM      2  N   UNL     1      46.140   6.703  13.123  0.00  0.00    +0.000 NA
ATOM      3  C   UNL     1      47.123   6.281  13.920  0.00  0.00    +0.000 A 
ATOM      4  N   UNL     1      47.839   7.267  14.571  0.00  0.00    +0.000 N 
ATOM      5  N   UNL     1      47.420   4.990  14.097  0.00  0.00    +0.000 NA
ATOM      6  C   UNL     1      46.664   4.085  13.431  0.00  0.00    +0.000 A 
ATOM      7  C   UNL     1      45.631   4.413  12.581  0.00  0.00    +0.000 A 
ATOM      8  H   UNL     1      47.703   8.145  14.079  0.00  0.00    +0.000 HD
ENDROOT
BRANCH   7   9
ATOM      9  C   UNL     1      44.919   3.324  11.877  0.00  0.00    +0.000 C 
ATOM     10  N   UNL     1      43.961   2.618  12.542  0.00  0.00    +0.000 N 
ATOM     11  O   UNL     1      45.178   3.061  10.708  0.00  0.00    +0.000 OA
ATOM     12  H   UNL     1      43.721   2.794  13.511  0.00  0.00    +0.000 HD
ATOM     13  H   UNL     1      43.459   1.900  12.036  0.00  0.00    +0.000 HD
ENDBRANCH   7   9
BRANCH   1  15
ATOM     14  C   UNL     1      44.495   7.623  11.360  0.00  0.00    +0.000 C 
ATOM     15  O   UNL     1      44.411   6.221  11.622  0.00  0.00    +0.000 OA
ENDBRANCH   1  15
BRANCH   4  16
ATOM     16  C   UNL     1      49.240   6.947  14.827  0.00  0.00    +0.000 C 
BRANCH  16  17
ATOM     17  C   UNL     1      49.440   6.449  16.253  0.00  0.00    +0.000 A 
ATOM     18  N   UNL     1      48.844   7.140  17.248  0.00  0.00    +0.000 NA
ATOM     19  C   UNL     1      49.034   6.673  18.494  0.00  0.00    +0.000 A 
ATOM     20  C   UNL     1      49.778   5.553  18.782  0.00  0.00    +0.000 A 
ATOM     21  C   UNL     1      50.350   4.896  17.708  0.00  0.00    +0.000 A 
ATOM     22  N   UNL     1      50.201   5.347  16.442  0.00  0.00    +0.000 NA
BRANCH  21  23
ATOM     23  C   UNL     1      51.167   3.675  17.876  0.00  0.00    +0.000 A 
ATOM     24  C   UNL     1      52.389   3.694  18.563  0.00  0.00    +0.000 A 
ATOM     25  C   UNL     1      53.137   2.530  18.659  0.00  0.00    +0.000 A 
ATOM     26  N   UNL     1      52.756   1.351  18.130  0.00  0.00    +0.000 NA
ATOM     27  C   UNL     1      51.569   1.334  17.492  0.00  0.00    +0.000 A 
ATOM     28  C   UNL     1      50.752   2.446  17.347  0.00  0.00    +0.000 A 
ENDBRANCH  21  23
ENDBRANCH  16  17
ENDBRANCH   4  16
TORSDOF 5
ENDMDL
MODEL 9
REMARK VINA RESULT:    -6.805      4.609      6.251
REMARK INTER + INTRA:          -9.001
REMARK INTER:                  -8.132
REMARK INTRA:                  -0.869
REMARK UNBOUND:                -0.206
REMARK  Name = 
REMARK  6 active torsions:
REMARK  status: ('A' for Active; 'I' for Inactive)
REMARK    1  A    between atoms: C_1  and  O_2
REMARK    2  A    between atoms: O_2  and  C_3
REMARK    3  A    between atoms: N_6  and  C_7
REMARK    4  A    between atoms: C_7  and  C_8
REMARK    5  A    between atoms: C_12  and  C_13
REMARK    6  A    between atoms: C_22  and  C_23
REMARK                            x       y       z     vdW  Elec       q    Type
REMARK                         _______ _______ _______ _____ _____    ______ ____
ROOT
ATOM      1  C   UNL     1      45.603   3.946  12.219  0.00  0.00    +0.000 A 
ATOM      2  N   UNL     1      46.092   3.297  13.304  0.00  0.00    +0.000 NA
ATOM      3  C   UNL     1      46.821   3.998  14.174  0.00  0.00    +0.000 A 
ATOM      4  N   UNL     1      47.299   3.296  15.264  0.00  0.00    +0.000 N 
ATOM      5  N   UNL     1      47.091   5.299  14.025  0.00  0.00    +0.000 NA
ATOM      6  C   UNL     1      46.594   5.911  12.924  0.00  0.00    +0.000 A 
ATOM      7  C   UNL     1      45.826   5.283  11.968  0.00  0.00    +0.000 A 
ATOM      8  H   UNL     1      46.742   2.455  15.378  0.00  0.00    +0.000 HD
ENDROOT
BRANCH   7   9
ATOM      9  C   UNL     1      45.306   6.084  10.839  0.00  0.00    +0.000 C 
ATOM     10  N   UNL     1      45.343   5.561   9.580  0.00  0.00    +0.000 N 
ATOM     11  O   UNL     1      44.838   7.202  11.028  0.00  0.00    +0.000 OA
ATOM     12  H   UNL     1      45.728   4.647   9.376  0.00  0.00    +0.000 HD
ATOM     13  H   UNL     1      44.951   6.108   8.824  0.00  0.00    +0.000 HD
ENDBRANCH   7   9
BRANCH   1  15
ATOM     14  C   UNL     1      43.491   3.016  11.803  0.00  0.00    +0.000 C 
ATOM     15  O   UNL     1      44.827   3.214  11.337  0.00  0.00    +0.000 OA
ENDBRANCH   1  15
BRANCH   4  16
ATOM     16  C   UNL     1      47.441   4.078  16.488  0.00  0.00    +0.000 C 
BRANCH  16  17
ATOM     17  C   UNL     1      48.907   4.240  16.872  0.00  0.00    +0.000 A 
ATOM     18  N   UNL     1      49.559   3.149  17.330  0.00  0.00    +0.000 NA
ATOM     19  C   UNL     1      50.851   3.322  17.656  0.00  0.00    +0.000 A 
ATOM     20  C   UNL     1      51.514   4.521  17.536  0.00  0.00    +0.000 A 
ATOM     21  C   UNL     1      50.779   5.589  17.053  0.00  0.00    +0.000 A 
ATOM     22  N   UNL     1      49.471   5.462  16.736  0.00  0.00    +0.000 NA
BRANCH  21  23
ATOM     23  C   UNL     1      51.370   6.931  16.868  0.00  0.00    +0.000 A 
ATOM     24  C   UNL     1      52.306   7.192  15.858  0.00  0.00    +0.000 A 
ATOM     25  C   UNL     1      52.861   8.459  15.750  0.00  0.00    +0.000 A 
ATOM     26  N   UNL     1      52.549   9.483  16.567  0.00  0.00    +0.000 NA
ATOM     27  C   UNL     1      51.629   9.233  17.521  0.00  0.00    +0.000 A 
ATOM     28  C   UNL     1      51.020   8.000  17.704  0.00  0.00    +0.000 A 
ENDBRANCH  21  23
ENDBRANCH  16  17
ENDBRANCH   4  16
TORSDOF 5
ENDMDL
