MODEL 1
REMARK VINA RESULT:    -7.667      0.000      0.000
REMARK INTER + INTRA:         -11.213
REMARK INTER:                 -10.580
REMARK INTRA:                  -0.633
REMARK UNBOUND:                -0.633
REMARK  Name = 
REMARK  7 active torsions:
REMARK  status: ('A' for Active; 'I' for Inactive)
REMARK    1  A    between atoms: N_1  and  C_2
REMARK    2  A    between atoms: C_2  and  C_3
REMARK    3  A    between atoms: C_7  and  C_8
REMARK    4  A    between atoms: C_8  and  C_9
REMARK    5  A    between atoms: C_9  and  O_10
REMARK    6  A    between atoms: O_10  and  C_11
REMARK    7  A    between atoms: C_14  and  C_15
REMARK                            x       y       z     vdW  Elec       q    Type
REMARK                         _______ _______ _______ _____ _____    ______ ____
ROOT
ATOM      1  C   UNL     1      43.416   4.862  10.460  0.00  0.00    +0.000 C 
ENDROOT
BRANCH   1   2
ATOM      2  C   UNL     1      43.439   5.299  11.926  0.00  0.00    +0.000 C 
BRANCH   2   7
ATOM      3  C   UNL     1      46.709   5.189  13.899  0.00  0.00    +0.000 A 
ATOM      4  C   UNL     1      47.542   5.969  13.085  0.00  0.00    +0.000 A 
ATOM      5  C   UNL     1      47.040   6.562  11.928  0.00  0.00    +0.000 A 
ATOM      6  C   UNL     1      45.704   6.375  11.565  0.00  0.00    +0.000 A 
ATOM      7  C   UNL     1      44.854   5.600  12.364  0.00  0.00    +0.000 A 
ATOM      8  C   UNL     1      45.366   5.015  13.532  0.00  0.00    +0.000 A 
BRANCH   3   9
ATOM      9  C   UNL     1      47.267   4.469  15.099  0.00  0.00    +0.000 C 
BRANCH   9  10
ATOM     10  N   UNL     1      47.578   3.083  14.768  0.00  0.00    +0.000 NA
ATOM     11  H   UNL     1      48.148   2.678  15.506  0.00  0.00    +0.000 HD
ATOM     12  H   UNL     1      48.142   3.067  13.920  0.00  0.00    +0.000 HD
ENDBRANCH   9  10
ENDBRANCH   3   9
ENDBRANCH   2   7
ENDBRANCH   1   2
BRANCH   1  13
ATOM     13  O   UNL     1      43.634   3.447  10.351  0.00  0.00    +0.000 OA
BRANCH  13  14
ATOM     14  C   UNL     1      44.582   3.153   9.384  0.00  0.00    +0.000 A 
ATOM     15  C   UNL     1      45.050   4.182   8.572  0.00  0.00    +0.000 A 
ATOM     16  N   UNL     1      45.987   3.993   7.601  0.00  0.00    +0.000 NA
ATOM     17  C   UNL     1      46.433   2.707   7.487  0.00  0.00    +0.000 A 
ATOM     18  C   UNL     1      45.963   1.682   8.294  0.00  0.00    +0.000 A 
ATOM     19  N   UNL     1      45.032   1.885   9.257  0.00  0.00    +0.000 NA
BRANCH  17  20
ATOM     20  C   UNL     1      47.465   2.399   6.461  0.00  0.00    +0.000 C 
ATOM     21  N   UNL     1      47.398   3.119   5.300  0.00  0.00    +0.000 N 
ATOM     22  O   UNL     1      48.330   1.550   6.639  0.00  0.00    +0.000 OA
ATOM     23  H   UNL     1      46.675   3.817   5.171  0.00  0.00    +0.000 HD
ATOM     24  H   UNL     1      48.080   2.947   4.576  0.00  0.00    +0.000 HD
ENDBRANCH  17  20
ENDBRANCH  13  14
ENDBRANCH   1  13
TORSDOF 7
ENDMDL
MODEL 2
REMARK VINA RESULT:    -7.499      1.988      2.590
REMARK INTER + INTRA:         -10.982
REMARK INTER:                 -10.440
REMARK INTRA:                  -0.542
REMARK UNBOUND:                -0.633
REMARK  Name = 
REMARK  7 active torsions:
REMARK  status: ('A' for Active; 'I' for Inactive)
REMARK    1  A    between atoms: N_1  and  C_2
REMARK    2  A    between atoms: C_2  and  C_3
REMARK    3  A    between atoms: C_7  and  C_8
REMARK    4  A    between atoms: C_8  and  C_9
REMARK    5  A    between atoms: C_9  and  O_10
REMARK    6  A    between atoms: O_10  and  C_11
REMARK    7  A    between atoms: C_14  and  C_15
REMARK                            x       y       z     vdW  Elec       q    Type
REMARK                         _______ _______ _______ _____ _____    ______ ____
ROOT
ATOM      1  C   UNL     1      43.473   3.677  11.386  0.00  0.00    +0.000 C 
ENDROOT
BRANCH   1   2
ATOM      2  C   UNL     1      43.401   4.626  12.583  0.00  0.00    +0.000 C 
BRANCH   2   7
ATOM      3  C   UNL     1      46.035   7.381  12.860  0.00  0.00    +0.000 A 
ATOM      4  C   UNL     1      47.125   6.661  13.367  0.00  0.00    +0.000 A 
ATOM      5  C   UNL     1      47.025   5.286  13.579  0.00  0.00    +0.000 A 
ATOM      6  C   UNL     1      45.832   4.617  13.296  0.00  0.00    +0.000 A 
ATOM      7  C   UNL     1      44.729   5.316  12.788  0.00  0.00    +0.000 A 
ATOM      8  C   UNL     1      44.844   6.698  12.570  0.00  0.00    +0.000 A 
BRANCH   3   9
ATOM      9  C   UNL     1      46.105   8.878  12.716  0.00  0.00    +0.000 C 
BRANCH   9  10
ATOM     10  N   UNL     1      44.780   9.470  12.860  0.00  0.00    +0.000 NA
ATOM     11  H   UNL     1      44.812  10.205  13.562  0.00  0.00    +0.000 HD
ATOM     12  H   UNL     1      44.139   8.760  13.210  0.00  0.00    +0.000 HD
ENDBRANCH   9  10
ENDBRANCH   3   9
ENDBRANCH   2   7
ENDBRANCH   1   2
BRANCH   1  13
ATOM     13  O   UNL     1      43.695   4.411  10.172  0.00  0.00    +0.000 OA
BRANCH  13  14
ATOM     14  C   UNL     1      44.617   3.775   9.357  0.00  0.00    +0.000 A 
ATOM     15  C   UNL     1      44.843   2.414   9.539  0.00  0.00    +0.000 A 
ATOM     16  N   UNL     1      45.721   1.699   8.780  0.00  0.00    +0.000 NA
ATOM     17  C   UNL     1      46.368   2.430   7.824  0.00  0.00    +0.000 A 
ATOM     18  C   UNL     1      46.144   3.786   7.646  0.00  0.00    +0.000 A 
ATOM     19  N   UNL     1      45.266   4.483   8.406  0.00  0.00    +0.000 NA
BRANCH  17  20
ATOM     20  C   UNL     1      47.342   1.739   6.937  0.00  0.00    +0.000 C 
ATOM     21  N   UNL     1      48.396   2.491   6.495  0.00  0.00    +0.000 N 
ATOM     22  O   UNL     1      47.216   0.563   6.617  0.00  0.00    +0.000 OA
ATOM     23  H   UNL     1      48.484   3.462   6.770  0.00  0.00    +0.000 HD
ATOM     24  H   UNL     1      49.085   2.063   5.893  0.00  0.00    +0.000 HD
ENDBRANCH  17  20
ENDBRANCH  13  14
ENDBRANCH   1  13
TORSDOF 7
ENDMDL
MODEL 3
REMARK VINA RESULT:    -7.452      2.517      6.242
REMARK INTER + INTRA:         -10.917
REMARK INTER:                 -10.306
REMARK INTRA:                  -0.611
REMARK UNBOUND:                -0.633
REMARK  Name = 
REMARK  7 active torsions:
REMARK  status: ('A' for Active; 'I' for Inactive)
REMARK    1  A    between atoms: N_1  and  C_2
REMARK    2  A    between atoms: C_2  and  C_3
REMARK    3  A    between atoms: C_7  and  C_8
REMARK    4  A    between atoms: C_8  and  C_9
REMARK    5  A    between atoms: C_9  and  O_10
REMARK    6  A    between atoms: O_10  and  C_11
REMARK    7  A    between atoms: C_14  and  C_15
REMARK                            x       y       z     vdW  Elec       q    Type
REMARK                         _______ _______ _______ _____ _____    ______ ____
ROOT
ATOM      1  C   UNL     1      43.382   3.751  11.049  0.00  0.00    +0.000 C 
ENDROOT
BRANCH   1   2
ATOM      2  C   UNL     1      44.033   2.507  10.442  0.00  0.00    +0.000 C 
BRANCH   2   7
ATOM      3  C   UNL     1      46.571   2.246   7.599  0.00  0.00    +0.000 A 
ATOM      4  C   UNL     1      46.728   3.595   7.253  0.00  0.00    +0.000 A 
ATOM      5  C   UNL     1      46.052   4.587   7.961  0.00  0.00    +0.000 A 
ATOM      6  C   UNL     1      45.203   4.243   9.016  0.00  0.00    +0.000 A 
ATOM      7  C   UNL     1      45.031   2.901   9.379  0.00  0.00    +0.000 A 
ATOM      8  C   UNL     1      45.724   1.911   8.666  0.00  0.00    +0.000 A 
BRANCH   3   9
ATOM      9  C   UNL     1      47.225   1.164   6.780  0.00  0.00    +0.000 C 
BRANCH   9  10
ATOM     10  N   UNL     1      48.353   1.701   6.027  0.00  0.00    +0.000 NA
ATOM     11  H   UNL     1      49.101   1.013   5.999  0.00  0.00    +0.000 HD
ATOM     12  H   UNL     1      48.721   2.513   6.520  0.00  0.00    +0.000 HD
ENDBRANCH   9  10
ENDBRANCH   3   9
ENDBRANCH   2   7
ENDBRANCH   1   2
BRANCH   1  13
ATOM     13  O   UNL     1      43.558   3.769  12.474  0.00  0.00    +0.000 OA
BRANCH  13  14
ATOM     14  C   UNL     1      44.696   4.471  12.836  0.00  0.00    +0.000 A 
ATOM     15  C   UNL     1      44.747   5.838  12.584  0.00  0.00    +0.000 A 
ATOM     16  N   UNL     1      45.817   6.615  12.912  0.00  0.00    +0.000 NA
ATOM     17  C   UNL     1      46.844   5.940  13.509  0.00  0.00    +0.000 A 
ATOM     18  C   UNL     1      46.794   4.577  13.757  0.00  0.00    +0.000 A 
ATOM     19  N   UNL     1      45.722   3.818  13.427  0.00  0.00    +0.000 NA
BRANCH  17  20
ATOM     20  C   UNL     1      48.057   6.700  13.915  0.00  0.00    +0.000 C 
ATOM     21  N   UNL     1      47.887   7.624  14.909  0.00  0.00    +0.000 N 
ATOM     22  O   UNL     1      49.150   6.513  13.393  0.00  0.00    +0.000 OA
ATOM     23  H   UNL     1      46.976   7.764  15.329  0.00  0.00    +0.000 HD
ATOM     24  H   UNL     1      48.683   8.161  15.220  0.00  0.00    +0.000 HD
ENDBRANCH  17  20
ENDBRANCH  13  14
ENDBRANCH   1  13
TORSDOF 7
ENDMDL
MODEL 4
REMARK VINA RESULT:    -7.074      2.470      6.957
REMARK INTER + INTRA:         -10.395
REMARK INTER:                 -10.002
REMARK INTRA:                  -0.392
REMARK UNBOUND:                -0.633
REMARK  Name = 
REMARK  7 active torsions:
REMARK  status: ('A' for Active; 'I' for Inactive)
REMARK    1  A    between atoms: N_1  and  C_2
REMARK    2  A    between atoms: C_2  and  C_3
REMARK    3  A    between atoms: C_7  and  C_8
REMARK    4  A    between atoms: C_8  and  C_9
REMARK    5  A    between atoms: C_9  and  O_10
REMARK    6  A    between atoms: O_10  and  C_11
REMARK    7  A    between atoms: C_14  and  C_15
REMARK                            x       y       z     vdW  Elec       q    Type
REMARK                         _______ _______ _______ _____ _____    ______ ____
ROOT
ATOM      1  C   UNL     1      45.360   5.330   9.680  0.00  0.00    +0.000 C 
ENDROOT
BRANCH   1   2
ATOM      2  C   UNL     1      44.377   4.281   9.157  0.00  0.00    +0.000 C 
BRANCH   2   7
ATOM      3  C   UNL     1      46.580   2.495   6.596  0.00  0.00    +0.000 A 
ATOM      4  C   UNL     1      46.675   1.219   7.167  0.00  0.00    +0.000 A 
ATOM      5  C   UNL     1      45.999   0.923   8.349  0.00  0.00    +0.000 A 
ATOM      6  C   UNL     1      45.227   1.901   8.980  0.00  0.00    +0.000 A 
ATOM      7  C   UNL     1      45.117   3.184   8.428  0.00  0.00    +0.000 A 
ATOM      8  C   UNL     1      45.794   3.468   7.232  0.00  0.00    +0.000 A 
BRANCH   3   9
ATOM      9  C   UNL     1      47.381   2.849   5.371  0.00  0.00    +0.000 C 
BRANCH   9  10
ATOM     10  N   UNL     1      48.538   1.970   5.243  0.00  0.00    +0.000 NA
ATOM     11  H   UNL     1      48.622   1.398   6.079  0.00  0.00    +0.000 HD
ATOM     12  H   UNL     1      49.380   2.541   5.194  0.00  0.00    +0.000 HD
ENDBRANCH   9  10
ENDBRANCH   3   9
ENDBRANCH   2   7
ENDBRANCH   1   2
BRANCH   1  13
ATOM     13  O   UNL     1      44.821   5.998  10.831  0.00  0.00    +0.000 OA
BRANCH  13  14
ATOM     14  C   UNL     1      45.513   5.660  11.983  0.00  0.00    +0.000 A 
ATOM     15  C   UNL     1      45.136   4.514  12.678  0.00  0.00    +0.000 A 
ATOM     16  N   UNL     1      45.761   4.095  13.813  0.00  0.00    +0.000 NA
ATOM     17  C   UNL     1      46.792   4.894  14.220  0.00  0.00    +0.000 A 
ATOM     18  C   UNL     1      47.165   6.037  13.529  0.00  0.00    +0.000 A 
ATOM     19  N   UNL     1      46.535   6.440  12.399  0.00  0.00    +0.000 NA
BRANCH  17  20
ATOM     20  C   UNL     1      47.545   4.517  15.445  0.00  0.00    +0.000 C 
ATOM     21  N   UNL     1      47.127   3.385  16.089  0.00  0.00    +0.000 N 
ATOM     22  O   UNL     1      48.490   5.177  15.861  0.00  0.00    +0.000 OA
ATOM     23  H   UNL     1      46.344   2.851  15.730  0.00  0.00    +0.000 HD
ATOM     24  H   UNL     1      47.610   3.088  16.923  0.00  0.00    +0.000 HD
ENDBRANCH  17  20
ENDBRANCH  13  14
ENDBRANCH   1  13
TORSDOF 7
ENDMDL
MODEL 5
REMARK VINA RESULT:    -6.831      1.773      2.209
REMARK INTER + INTRA:         -10.059
REMARK INTER:                  -9.646
REMARK INTRA:                  -0.413
REMARK UNBOUND:                -0.633
REMARK  Name = 
REMARK  7 active torsions:
REMARK  status: ('A' for Active; 'I' for Inactive)
REMARK    1  A    between atoms: N_1  and  C_2
REMARK    2  A    between atoms: C_2  and  C_3
REMARK    3  A    between atoms: C_7  and  C_8
REMARK    4  A    between atoms: C_8  and  C_9
REMARK    5  A    between atoms: C_9  and  O_10
REMARK    6  A    between atoms: O_10  and  C_11
REMARK    7  A    between atoms: C_14  and  C_15
REMARK                            x       y       z     vdW  Elec       q    Type
REMARK                         _______ _______ _______ _____ _____    ______ ____
ROOT
ATOM      1  C   UNL     1      44.323   5.094  11.149  0.00  0.00    +0.000 C 
ENDROOT
BRANCH   1   2
ATOM      2  C   UNL     1      43.791   6.489  11.479  0.00  0.00    +0.000 C 
BRANCH   2   7
ATOM      3  C   UNL     1      47.007   7.533  13.259  0.00  0.00    +0.000 A 
ATOM      4  C   UNL     1      47.068   8.894  12.928  0.00  0.00    +0.000 A 
ATOM      5  C   UNL     1      46.055   9.481  12.170  0.00  0.00    +0.000 A 
ATOM      6  C   UNL     1      44.975   8.714  11.726  0.00  0.00    +0.000 A 
ATOM      7  C   UNL     1      44.893   7.353  12.045  0.00  0.00    +0.000 A 
ATOM      8  C   UNL     1      45.913   6.774  12.816  0.00  0.00    +0.000 A 
BRANCH   3   9
ATOM      9  C   UNL     1      48.141   6.872  13.996  0.00  0.00    +0.000 C 
BRANCH   9  10
ATOM     10  N   UNL     1      49.160   6.408  13.061  0.00  0.00    +0.000 NA
ATOM     11  H   UNL     1      49.422   7.171  12.440  0.00  0.00    +0.000 HD
ATOM     12  H   UNL     1      48.759   5.679  12.473  0.00  0.00    +0.000 HD
ENDBRANCH   9  10
ENDBRANCH   3   9
ENDBRANCH   2   7
ENDBRANCH   1   2
BRANCH   1  13
ATOM     13  O   UNL     1      43.742   4.607   9.930  0.00  0.00    +0.000 OA
BRANCH  13  14
ATOM     14  C   UNL     1      44.651   3.861   9.197  0.00  0.00    +0.000 A 
ATOM     15  C   UNL     1      44.713   2.487   9.406  0.00  0.00    +0.000 A 
ATOM     16  N   UNL     1      45.566   1.670   8.728  0.00  0.00    +0.000 NA
ATOM     17  C   UNL     1      46.363   2.311   7.822  0.00  0.00    +0.000 A 
ATOM     18  C   UNL     1      46.304   3.681   7.616  0.00  0.00    +0.000 A 
ATOM     19  N   UNL     1      45.448   4.480   8.297  0.00  0.00    +0.000 NA
BRANCH  17  20
ATOM     20  C   UNL     1      47.324   1.505   7.022  0.00  0.00    +0.000 C 
ATOM     21  N   UNL     1      48.419   2.171   6.541  0.00  0.00    +0.000 N 
ATOM     22  O   UNL     1      47.154   0.312   6.804  0.00  0.00    +0.000 OA
ATOM     23  H   UNL     1      48.543   3.158   6.732  0.00  0.00    +0.000 HD
ATOM     24  H   UNL     1      49.101   1.664   5.996  0.00  0.00    +0.000 HD
ENDBRANCH  17  20
ENDBRANCH  13  14
ENDBRANCH   1  13
TORSDOF 7
ENDMDL
MODEL 6
REMARK VINA RESULT:    -6.580      2.696      7.092
REMARK INTER + INTRA:          -9.713
REMARK INTER:                  -9.205
REMARK INTRA:                  -0.508
REMARK UNBOUND:                -0.633
REMARK  Name = 
REMARK  7 active torsions:
REMARK  status: ('A' for Active; 'I' for Inactive)
REMARK    1  A    between atoms: N_1  and  C_2
REMARK    2  A    between atoms: C_2  and  C_3
REMARK    3  A    between atoms: C_7  and  C_8
REMARK    4  A    between atoms: C_8  and  C_9
REMARK    5  A    between atoms: C_9  and  O_10
REMARK    6  A    between atoms: O_10  and  C_11
REMARK    7  A    between atoms: C_14  and  C_15
REMARK                            x       y       z     vdW  Elec       q    Type
REMARK                         _______ _______ _______ _____ _____    ______ ____
ROOT
ATOM      1  C   UNL     1      45.593   6.181  12.477  0.00  0.00    +0.000 C 
ENDROOT
BRANCH   1   2
ATOM      2  C   UNL     1      45.268   6.385  10.996  0.00  0.00    +0.000 C 
BRANCH   2   7
ATOM      3  C   UNL     1      45.324   3.533   8.454  0.00  0.00    +0.000 A 
ATOM      4  C   UNL     1      44.652   2.528   9.163  0.00  0.00    +0.000 A 
ATOM      5  C   UNL     1      44.146   2.781  10.437  0.00  0.00    +0.000 A 
ATOM      6  C   UNL     1      44.314   4.039  11.022  0.00  0.00    +0.000 A 
ATOM      7  C   UNL     1      44.982   5.058  10.332  0.00  0.00    +0.000 A 
ATOM      8  C   UNL     1      45.479   4.795   9.047  0.00  0.00    +0.000 A 
BRANCH   3   9
ATOM      9  C   UNL     1      45.953   3.239   7.118  0.00  0.00    +0.000 C 
BRANCH   9  10
ATOM     10  N   UNL     1      47.058   4.156   6.859  0.00  0.00    +0.000 NA
ATOM     11  H   UNL     1      47.821   3.650   6.416  0.00  0.00    +0.000 HD
ATOM     12  H   UNL     1      47.414   4.501   7.749  0.00  0.00    +0.000 HD
ENDBRANCH   9  10
ENDBRANCH   3   9
ENDBRANCH   2   7
ENDBRANCH   1   2
BRANCH   1  13
ATOM     13  O   UNL     1      47.009   6.043  12.669  0.00  0.00    +0.000 OA
BRANCH  13  14
ATOM     14  C   UNL     1      47.296   5.277  13.787  0.00  0.00    +0.000 A 
ATOM     15  C   UNL     1      47.081   3.904  13.732  0.00  0.00    +0.000 A 
ATOM     16  N   UNL     1      47.342   3.068  14.775  0.00  0.00    +0.000 NA
ATOM     17  C   UNL     1      47.833   3.689  15.889  0.00  0.00    +0.000 A 
ATOM     18  C   UNL     1      48.044   5.058  15.944  0.00  0.00    +0.000 A 
ATOM     19  N   UNL     1      47.782   5.877  14.898  0.00  0.00    +0.000 NA
BRANCH  17  20
ATOM     20  C   UNL     1      48.160   2.862  17.081  0.00  0.00    +0.000 C 
ATOM     21  N   UNL     1      47.236   2.865  18.090  0.00  0.00    +0.000 N 
ATOM     22  O   UNL     1      49.194   2.211  17.161  0.00  0.00    +0.000 OA
ATOM     23  H   UNL     1      46.386   3.410  18.006  0.00  0.00    +0.000 HD
ATOM     24  H   UNL     1      47.413   2.315  18.918  0.00  0.00    +0.000 HD
ENDBRANCH  17  20
ENDBRANCH  13  14
ENDBRANCH   1  13
TORSDOF 7
ENDMDL
MODEL 7
REMARK VINA RESULT:    -6.491      3.894      6.357
REMARK INTER + INTRA:          -9.591
REMARK INTER:                  -9.229
REMARK INTRA:                  -0.362
REMARK UNBOUND:                -0.633
REMARK  Name = 
REMARK  7 active torsions:
REMARK  status: ('A' for Active; 'I' for Inactive)
REMARK    1  A    between atoms: N_1  and  C_2
REMARK    2  A    between atoms: C_2  and  C_3
REMARK    3  A    between atoms: C_7  and  C_8
REMARK    4  A    between atoms: C_8  and  C_9
REMARK    5  A    between atoms: C_9  and  O_10
REMARK    6  A    between atoms: O_10  and  C_11
REMARK    7  A    between atoms: C_14  and  C_15
REMARK                            x       y       z     vdW  Elec       q    Type
REMARK                         _______ _______ _______ _____ _____    ______ ____
ROOT
ATOM      1  C   UNL     1      47.328   3.942  15.790  0.00  0.00    +0.000 C 
ENDROOT
BRANCH   1   2
ATOM      2  C   UNL     1      47.824   2.953  16.846  0.00  0.00    +0.000 C 
BRANCH   2   7
ATOM      3  C   UNL     1      51.543   2.558  17.629  0.00  0.00    +0.000 A 
ATOM      4  C   UNL     1      51.926   3.895  17.797  0.00  0.00    +0.000 A 
ATOM      5  C   UNL     1      50.982   4.916  17.700  0.00  0.00    +0.000 A 
ATOM      6  C   UNL     1      49.647   4.615  17.425  0.00  0.00    +0.000 A 
ATOM      7  C   UNL     1      49.241   3.285  17.253  0.00  0.00    +0.000 A 
ATOM      8  C   UNL     1      50.197   2.264  17.362  0.00  0.00    +0.000 A 
BRANCH   3   9
ATOM      9  C   UNL     1      52.572   1.458  17.640  0.00  0.00    +0.000 C 
BRANCH   9  10
ATOM     10  N   UNL     1      51.986   0.213  18.123  0.00  0.00    +0.000 NA
ATOM     11  H   UNL     1      51.335   0.415  18.878  0.00  0.00    +0.000 HD
ATOM     12  H   UNL     1      52.725  -0.365  18.522  0.00  0.00    +0.000 HD
ENDBRANCH   9  10
ENDBRANCH   3   9
ENDBRANCH   2   7
ENDBRANCH   1   2
BRANCH   1  13
ATOM     13  O   UNL     1      47.449   3.380  14.475  0.00  0.00    +0.000 OA
BRANCH  13  14
ATOM     14  C   UNL     1      46.422   3.801  13.647  0.00  0.00    +0.000 A 
ATOM     15  C   UNL     1      46.044   5.140  13.676  0.00  0.00    +0.000 A 
ATOM     16  N   UNL     1      45.053   5.649  12.892  0.00  0.00    +0.000 NA
ATOM     17  C   UNL     1      44.453   4.735  12.072  0.00  0.00    +0.000 A 
ATOM     18  C   UNL     1      44.827   3.401  12.047  0.00  0.00    +0.000 A 
ATOM     19  N   UNL     1      45.817   2.909  12.830  0.00  0.00    +0.000 NA
BRANCH  17  20
ATOM     20  C   UNL     1      43.364   5.194  11.170  0.00  0.00    +0.000 C 
ATOM     21  N   UNL     1      42.441   6.043  11.718  0.00  0.00    +0.000 N 
ATOM     22  O   UNL     1      43.290   4.838  10.000  0.00  0.00    +0.000 OA
ATOM     23  H   UNL     1      42.519   6.327  12.687  0.00  0.00    +0.000 HD
ATOM     24  H   UNL     1      41.685   6.384  11.142  0.00  0.00    +0.000 HD
ENDBRANCH  17  20
ENDBRANCH  13  14
ENDBRANCH   1  13
TORSDOF 7
ENDMDL
MODEL 8
REMARK VINA RESULT:    -6.172      2.865      3.770
REMARK INTER + INTRA:          -9.151
REMARK INTER:                  -8.792
REMARK INTRA:                  -0.358
REMARK UNBOUND:                -0.633
REMARK  Name = 
REMARK  7 active torsions:
REMARK  status: ('A' for Active; 'I' for Inactive)
REMARK    1  A    between atoms: N_1  and  C_2
REMARK    2  A    between atoms: C_2  and  C_3
REMARK    3  A    between atoms: C_7  and  C_8
REMARK    4  A    between atoms: C_8  and  C_9
REMARK    5  A    between atoms: C_9  and  O_10
REMARK    6  A    between atoms: O_10  and  C_11
REMARK    7  A    between atoms: C_14  and  C_15
REMARK                            x       y       z     vdW  Elec       q    Type
REMARK                         _______ _______ _______ _____ _____    ______ ____
ROOT
ATOM      1  C   UNL     1      45.132   5.223  11.253  0.00  0.00    +0.000 C 
ENDROOT
BRANCH   1   2
ATOM      2  C   UNL     1      44.358   6.303  12.011  0.00  0.00    +0.000 C 
BRANCH   2   7
ATOM      3  C   UNL     1      44.992  10.051  11.627  0.00  0.00    +0.000 A 
ATOM      4  C   UNL     1      46.350  10.131  11.965  0.00  0.00    +0.000 A 
ATOM      5  C   UNL     1      47.068   8.976  12.273  0.00  0.00    +0.000 A 
ATOM      6  C   UNL     1      46.436   7.730  12.257  0.00  0.00    +0.000 A 
ATOM      7  C   UNL     1      45.080   7.627  11.923  0.00  0.00    +0.000 A 
ATOM      8  C   UNL     1      44.368   8.794  11.605  0.00  0.00    +0.000 A 
BRANCH   3   9
ATOM      9  C   UNL     1      44.188  11.302  11.385  0.00  0.00    +0.000 C 
BRANCH   9  10
ATOM     10  N   UNL     1      42.866  11.187  11.990  0.00  0.00    +0.000 NA
ATOM     11  H   UNL     1      42.587  12.089  12.367  0.00  0.00    +0.000 HD
ATOM     12  H   UNL     1      42.920  10.544  12.778  0.00  0.00    +0.000 HD
ENDBRANCH   9  10
ENDBRANCH   3   9
ENDBRANCH   2   7
ENDBRANCH   1   2
BRANCH   1  13
ATOM     13  O   UNL     1      44.365   4.738  10.141  0.00  0.00    +0.000 OA
BRANCH  13  14
ATOM     14  C   UNL     1      45.172   4.125   9.197  0.00  0.00    +0.000 A 
ATOM     15  C   UNL     1      45.209   2.735   9.149  0.00  0.00    +0.000 A 
ATOM     16  N   UNL     1      45.964   2.042   8.251  0.00  0.00    +0.000 NA
ATOM     17  C   UNL     1      46.688   2.825   7.397  0.00  0.00    +0.000 A 
ATOM     18  C   UNL     1      46.653   4.210   7.447  0.00  0.00    +0.000 A 
ATOM     19  N   UNL     1      45.896   4.885   8.345  0.00  0.00    +0.000 NA
BRANCH  17  20
ATOM     20  C   UNL     1      47.538   2.164   6.371  0.00  0.00    +0.000 C 
ATOM     21  N   UNL     1      47.876   2.923   5.284  0.00  0.00    +0.000 N 
ATOM     22  O   UNL     1      47.921   1.006   6.487  0.00  0.00    +0.000 OA
ATOM     23  H   UNL     1      47.550   3.879   5.206  0.00  0.00    +0.000 HD
ATOM     24  H   UNL     1      48.455   2.518   4.564  0.00  0.00    +0.000 HD
ENDBRANCH  17  20
ENDBRANCH  13  14
ENDBRANCH   1  13
TORSDOF 7
ENDMDL
MODEL 9
REMARK VINA RESULT:    -6.029      2.838      7.100
REMARK INTER + INTRA:          -8.953
REMARK INTER:                  -8.360
REMARK INTRA:                  -0.592
REMARK UNBOUND:                -0.633
REMARK  Name = 
REMARK  7 active torsions:
REMARK  status: ('A' for Active; 'I' for Inactive)
REMARK    1  A    between atoms: N_1  and  C_2
REMARK    2  A    between atoms: C_2  and  C_3
REMARK    3  A    between atoms: C_7  and  C_8
REMARK    4  A    between atoms: C_8  and  C_9
REMARK    5  A    between atoms: C_9  and  O_10
REMARK    6  A    between atoms: O_10  and  C_11
REMARK    7  A    between atoms: C_14  and  C_15
REMARK                            x       y       z     vdW  Elec       q    Type
REMARK                         _______ _______ _______ _____ _____    ______ ____
ROOT
ATOM      1  C   UNL     1      46.328   7.267  12.823  0.00  0.00    +0.000 C 
ENDROOT
BRANCH   1   2
ATOM      2  C   UNL     1      45.776   7.084  11.408  0.00  0.00    +0.000 C 
BRANCH   2   7
ATOM      3  C   UNL     1      44.312   3.701  10.400  0.00  0.00    +0.000 A 
ATOM      4  C   UNL     1      43.306   3.545  11.364  0.00  0.00    +0.000 A 
ATOM      5  C   UNL     1      43.074   4.544  12.307  0.00  0.00    +0.000 A 
ATOM      6  C   UNL     1      43.849   5.707  12.306  0.00  0.00    +0.000 A 
ATOM      7  C   UNL     1      44.859   5.884  11.352  0.00  0.00    +0.000 A 
ATOM      8  C   UNL     1      45.079   4.876  10.401  0.00  0.00    +0.000 A 
BRANCH   3   9
ATOM      9  C   UNL     1      44.631   2.588   9.438  0.00  0.00    +0.000 C 
BRANCH   9  10
ATOM     10  N   UNL     1      44.979   3.126   8.128  0.00  0.00    +0.000 NA
ATOM     11  H   UNL     1      45.990   3.117   8.015  0.00  0.00    +0.000 HD
ATOM     12  H   UNL     1      44.690   4.102   8.086  0.00  0.00    +0.000 HD
ENDBRANCH   9  10
ENDBRANCH   3   9
ENDBRANCH   2   7
ENDBRANCH   1   2
BRANCH   1  13
ATOM     13  O   UNL     1      47.582   6.582  12.967  0.00  0.00    +0.000 OA
BRANCH  13  14
ATOM     14  C   UNL     1      47.595   5.782  14.098  0.00  0.00    +0.000 A 
ATOM     15  C   UNL     1      46.833   4.618  14.103  0.00  0.00    +0.000 A 
ATOM     16  N   UNL     1      46.789   3.763  15.162  0.00  0.00    +0.000 NA
ATOM     17  C   UNL     1      47.556   4.142  16.228  0.00  0.00    +0.000 A 
ATOM     18  C   UNL     1      48.312   5.304  16.224  0.00  0.00    +0.000 A 
ATOM     19  N   UNL     1      48.347   6.144  15.162  0.00  0.00    +0.000 NA
BRANCH  17  20
ATOM     20  C   UNL     1      47.583   3.271  17.433  0.00  0.00    +0.000 C 
ATOM     21  N   UNL     1      48.715   3.333  18.199  0.00  0.00    +0.000 N 
ATOM     22  O   UNL     1      46.648   2.537  17.730  0.00  0.00    +0.000 OA
ATOM     23  H   UNL     1      49.478   3.946  17.937  0.00  0.00    +0.000 HD
ATOM     24  H   UNL     1      48.777   2.762  19.029  0.00  0.00    +0.000 HD
ENDBRANCH  17  20
ENDBRANCH  13  14
ENDBRANCH   1  13
TORSDOF 7
ENDMDL
