MODEL 1
REMARK VINA RESULT:    -8.538      0.000      0.000
REMARK INTER + INTRA:         -12.667
REMARK INTER:                 -11.533
REMARK INTRA:                  -1.135
REMARK UNBOUND:                -1.135
REMARK  Name = 
REMARK  7 active torsions:
REMARK  status: ('A' for Active; 'I' for Inactive)
REMARK    1  A    between atoms: C_1  and  C_2
REMARK    2  A    between atoms: C_2  and  C_3
REMARK    3  A    between atoms: C_7  and  C_8
REMARK    4  A    between atoms: C_8  and  C_9
REMARK    5  A    between atoms: C_9  and  N_10
REMARK    6  A    between atoms: N_10  and  C_11
REMARK    7  A    between atoms: C_14  and  C_15
REMARK                            x       y       z     vdW  Elec       q    Type
REMARK                         _______ _______ _______ _____ _____    ______ ____
ROOT
ATOM      1  C   UNL     1      46.952   6.761  12.777  0.00  0.00    +0.000 A 
ATOM      2  C   UNL     1      47.565   5.652  13.392  0.00  0.00    +0.000 A 
ATOM      3  C   UNL     1      46.857   4.474  13.640  0.00  0.00    +0.000 A 
ATOM      4  C   UNL     1      45.513   4.377  13.289  0.00  0.00    +0.000 A 
ATOM      5  C   UNL     1      44.872   5.456  12.676  0.00  0.00    +0.000 A 
ATOM      6  C   UNL     1      45.604   6.623  12.400  0.00  0.00    +0.000 A 
ENDROOT
BRANCH   1   8
ATOM      7  C   UNL     1      48.904   7.816  11.677  0.00  0.00    +0.000 C 
ATOM      8  C   UNL     1      47.718   8.100  12.637  0.00  0.00    +0.000 C 
ATOM      9  C   UNL     1      46.798   9.207  12.050  0.00  0.00    +0.000 C 
ATOM     10  C   UNL     1      47.479  10.580  11.980  0.00  0.00    +0.000 C 
ATOM     11  N   UNL     1      47.999  11.024  13.273  0.00  0.00    +0.000 NA
ATOM     12  C   UNL     1      48.925  10.034  13.842  0.00  0.00    +0.000 C 
ATOM     13  C   UNL     1      48.284   8.646  13.979  0.00  0.00    +0.000 C 
ATOM     14  F   UNL     1      47.257   8.780  14.879  0.00  0.00    +0.000 F 
ATOM     15  H   UNL     1      47.211  11.116  13.921  0.00  0.00    +0.000 HD
ENDBRANCH   1   8
BRANCH   5  16
ATOM     16  C   UNL     1      43.404   5.386  12.322  0.00  0.00    +0.000 C 
BRANCH  16  17
ATOM     17  C   UNL     1      43.132   4.398  11.186  0.00  0.00    +0.000 C 
BRANCH  17  18
ATOM     18  N   UNL     1      43.745   4.869   9.936  0.00  0.00    +0.000 N 
ATOM     19  H   UNL     1      44.205   5.771  10.047  0.00  0.00    +0.000 HD
BRANCH  18  20
ATOM     20  C   UNL     1      44.549   3.962   9.226  0.00  0.00    +0.000 A 
ATOM     21  C   UNL     1      45.532   4.363   8.318  0.00  0.00    +0.000 A 
ATOM     22  C   UNL     1      46.353   3.426   7.694  0.00  0.00    +0.000 A 
ATOM     23  C   UNL     1      46.190   2.089   8.018  0.00  0.00    +0.000 A 
ATOM     24  N   UNL     1      45.282   1.638   8.925  0.00  0.00    +0.000 NA
ATOM     25  C   UNL     1      44.508   2.590   9.510  0.00  0.00    +0.000 A 
BRANCH  23  26
ATOM     26  C   UNL     1      47.065   1.066   7.361  0.00  0.00    +0.000 C 
ATOM     27  N   UNL     1      46.800  -0.233   7.696  0.00  0.00    +0.000 N 
ATOM     28  O   UNL     1      47.953   1.357   6.573  0.00  0.00    +0.000 OA
ATOM     29  H   UNL     1      46.064  -0.435   8.363  0.00  0.00    +0.000 HD
ATOM     30  H   UNL     1      47.362  -0.972   7.307  0.00  0.00    +0.000 HD
ENDBRANCH  23  26
ENDBRANCH  18  20
ENDBRANCH  17  18
ENDBRANCH  16  17
ENDBRANCH   5  16
TORSDOF 6
ENDMDL
MODEL 2
REMARK VINA RESULT:    -7.585      3.157      4.285
REMARK INTER + INTRA:         -11.380
REMARK INTER:                 -10.495
REMARK INTRA:                  -0.885
REMARK UNBOUND:                -1.135
REMARK  Name = 
REMARK  7 active torsions:
REMARK  status: ('A' for Active; 'I' for Inactive)
REMARK    1  A    between atoms: C_1  and  C_2
REMARK    2  A    between atoms: C_2  and  C_3
REMARK    3  A    between atoms: C_7  and  C_8
REMARK    4  A    between atoms: C_8  and  C_9
REMARK    5  A    between atoms: C_9  and  N_10
REMARK    6  A    between atoms: N_10  and  C_11
REMARK    7  A    between atoms: C_14  and  C_15
REMARK                            x       y       z     vdW  Elec       q    Type
REMARK                         _______ _______ _______ _____ _____    ______ ____
ROOT
ATOM      1  C   UNL     1      47.771   5.093  15.462  0.00  0.00    +0.000 A 
ATOM      2  C   UNL     1      48.312   6.298  14.973  0.00  0.00    +0.000 A 
ATOM      3  C   UNL     1      47.900   6.837  13.752  0.00  0.00    +0.000 A 
ATOM      4  C   UNL     1      46.943   6.180  12.983  0.00  0.00    +0.000 A 
ATOM      5  C   UNL     1      46.384   4.984  13.437  0.00  0.00    +0.000 A 
ATOM      6  C   UNL     1      46.781   4.469  14.683  0.00  0.00    +0.000 A 
ENDROOT
BRANCH   1   8
ATOM      7  C   UNL     1      48.268   2.911  16.524  0.00  0.00    +0.000 C 
ATOM      8  C   UNL     1      48.342   4.445  16.749  0.00  0.00    +0.000 C 
ATOM      9  C   UNL     1      49.812   4.887  16.988  0.00  0.00    +0.000 C 
ATOM     10  C   UNL     1      50.394   4.351  18.302  0.00  0.00    +0.000 C 
ATOM     11  N   UNL     1      49.589   4.708  19.470  0.00  0.00    +0.000 NA
ATOM     12  C   UNL     1      48.200   4.255  19.316  0.00  0.00    +0.000 C 
ATOM     13  C   UNL     1      47.546   4.798  18.038  0.00  0.00    +0.000 C 
ATOM     14  F   UNL     1      47.497   6.162  18.176  0.00  0.00    +0.000 F 
ATOM     15  H   UNL     1      49.573   5.729  19.548  0.00  0.00    +0.000 HD
ENDBRANCH   1   8
BRANCH   5  16
ATOM     16  C   UNL     1      45.372   4.235  12.600  0.00  0.00    +0.000 C 
BRANCH  16  17
ATOM     17  C   UNL     1      44.649   5.152  11.612  0.00  0.00    +0.000 C 
BRANCH  17  18
ATOM     18  N   UNL     1      43.971   4.359  10.576  0.00  0.00    +0.000 N 
ATOM     19  H   UNL     1      43.176   4.852  10.171  0.00  0.00    +0.000 HD
BRANCH  18  20
ATOM     20  C   UNL     1      44.771   3.767   9.586  0.00  0.00    +0.000 A 
ATOM     21  C   UNL     1      45.565   4.503   8.704  0.00  0.00    +0.000 A 
ATOM     22  C   UNL     1      46.396   3.864   7.787  0.00  0.00    +0.000 A 
ATOM     23  C   UNL     1      46.438   2.479   7.790  0.00  0.00    +0.000 A 
ATOM     24  N   UNL     1      45.722   1.706   8.650  0.00  0.00    +0.000 NA
ATOM     25  C   UNL     1      44.930   2.375   9.528  0.00  0.00    +0.000 A 
BRANCH  23  26
ATOM     26  C   UNL     1      47.327   1.773   6.814  0.00  0.00    +0.000 C 
ATOM     27  N   UNL     1      48.339   2.530   6.290  0.00  0.00    +0.000 N 
ATOM     28  O   UNL     1      47.175   0.601   6.501  0.00  0.00    +0.000 OA
ATOM     29  H   UNL     1      48.426   3.502   6.563  0.00  0.00    +0.000 HD
ATOM     30  H   UNL     1      48.964   2.125   5.612  0.00  0.00    +0.000 HD
ENDBRANCH  23  26
ENDBRANCH  18  20
ENDBRANCH  17  18
ENDBRANCH  16  17
ENDBRANCH   5  16
TORSDOF 6
ENDMDL
MODEL 3
REMARK VINA RESULT:    -7.564      1.886      2.345
REMARK INTER + INTRA:         -11.351
REMARK INTER:                 -10.302
REMARK INTRA:                  -1.049
REMARK UNBOUND:                -1.135
REMARK  Name = 
REMARK  7 active torsions:
REMARK  status: ('A' for Active; 'I' for Inactive)
REMARK    1  A    between atoms: C_1  and  C_2
REMARK    2  A    between atoms: C_2  and  C_3
REMARK    3  A    between atoms: C_7  and  C_8
REMARK    4  A    between atoms: C_8  and  C_9
REMARK    5  A    between atoms: C_9  and  N_10
REMARK    6  A    between atoms: N_10  and  C_11
REMARK    7  A    between atoms: C_14  and  C_15
REMARK                            x       y       z     vdW  Elec       q    Type
REMARK                         _______ _______ _______ _____ _____    ______ ____
ROOT
ATOM      1  C   UNL     1      48.234   7.447  12.409  0.00  0.00    +0.000 A 
ATOM      2  C   UNL     1      48.437   6.470  13.403  0.00  0.00    +0.000 A 
ATOM      3  C   UNL     1      47.454   5.526  13.708  0.00  0.00    +0.000 A 
ATOM      4  C   UNL     1      46.237   5.540  13.033  0.00  0.00    +0.000 A 
ATOM      5  C   UNL     1      46.000   6.492  12.039  0.00  0.00    +0.000 A 
ATOM      6  C   UNL     1      47.010   7.415  11.718  0.00  0.00    +0.000 A 
ENDROOT
BRANCH   1   8
ATOM      7  C   UNL     1      48.477   9.835  11.800  0.00  0.00    +0.000 C 
ATOM      8  C   UNL     1      49.282   8.565  12.185  0.00  0.00    +0.000 C 
ATOM      9  C   UNL     1      50.108   8.819  13.476  0.00  0.00    +0.000 C 
ATOM     10  C   UNL     1      51.227   9.851  13.281  0.00  0.00    +0.000 C 
ATOM     11  N   UNL     1      52.137   9.504  12.189  0.00  0.00    +0.000 NA
ATOM     12  C   UNL     1      51.405   9.314  10.929  0.00  0.00    +0.000 C 
ATOM     13  C   UNL     1      50.299   8.257  11.049  0.00  0.00    +0.000 C 
ATOM     14  F   UNL     1      50.927   7.067  11.318  0.00  0.00    +0.000 F 
ATOM     15  H   UNL     1      52.590   8.615  12.419  0.00  0.00    +0.000 HD
ENDBRANCH   1   8
BRANCH   5  16
ATOM     16  C   UNL     1      44.671   6.549  11.321  0.00  0.00    +0.000 C 
BRANCH  16  17
ATOM     17  C   UNL     1      43.992   5.180  11.256  0.00  0.00    +0.000 C 
BRANCH  17  18
ATOM     18  N   UNL     1      43.637   4.847   9.868  0.00  0.00    +0.000 N 
ATOM     19  H   UNL     1      43.410   5.675   9.319  0.00  0.00    +0.000 HD
BRANCH  18  20
ATOM     20  C   UNL     1      44.494   3.982   9.169  0.00  0.00    +0.000 A 
ATOM     21  C   UNL     1      45.496   4.433   8.307  0.00  0.00    +0.000 A 
ATOM     22  C   UNL     1      46.367   3.535   7.692  0.00  0.00    +0.000 A 
ATOM     23  C   UNL     1      46.234   2.187   7.980  0.00  0.00    +0.000 A 
ATOM     24  N   UNL     1      45.307   1.689   8.843  0.00  0.00    +0.000 NA
ATOM     25  C   UNL     1      44.485   2.603   9.420  0.00  0.00    +0.000 A 
BRANCH  23  26
ATOM     26  C   UNL     1      47.162   1.206   7.333  0.00  0.00    +0.000 C 
ATOM     27  N   UNL     1      48.250   1.754   6.708  0.00  0.00    +0.000 N 
ATOM     28  O   UNL     1      46.977  -0.002   7.356  0.00  0.00    +0.000 OA
ATOM     29  H   UNL     1      48.363   2.761   6.698  0.00  0.00    +0.000 HD
ATOM     30  H   UNL     1      48.906   1.155   6.235  0.00  0.00    +0.000 HD
ENDBRANCH  23  26
ENDBRANCH  18  20
ENDBRANCH  17  18
ENDBRANCH  16  17
ENDBRANCH   5  16
TORSDOF 6
ENDMDL
MODEL 4
REMARK VINA RESULT:    -7.464      1.866      2.663
REMARK INTER + INTRA:         -11.217
REMARK INTER:                 -10.414
REMARK INTRA:                  -0.803
REMARK UNBOUND:                -1.135
REMARK  Name = 
REMARK  7 active torsions:
REMARK  status: ('A' for Active; 'I' for Inactive)
REMARK    1  A    between atoms: C_1  and  C_2
REMARK    2  A    between atoms: C_2  and  C_3
REMARK    3  A    between atoms: C_7  and  C_8
REMARK    4  A    between atoms: C_8  and  C_9
REMARK    5  A    between atoms: C_9  and  N_10
REMARK    6  A    between atoms: N_10  and  C_11
REMARK    7  A    between atoms: C_14  and  C_15
REMARK                            x       y       z     vdW  Elec       q    Type
REMARK                         _______ _______ _______ _____ _____    ______ ____
ROOT
ATOM      1  C   UNL     1      47.504   7.696  13.498  0.00  0.00    +0.000 A 
ATOM      2  C   UNL     1      46.668   8.798  13.235  0.00  0.00    +0.000 A 
ATOM      3  C   UNL     1      45.455   8.646  12.559  0.00  0.00    +0.000 A 
ATOM      4  C   UNL     1      45.051   7.389  12.119  0.00  0.00    +0.000 A 
ATOM      5  C   UNL     1      45.854   6.272  12.363  0.00  0.00    +0.000 A 
ATOM      6  C   UNL     1      47.055   6.433  13.075  0.00  0.00    +0.000 A 
ENDROOT
BRANCH   1   8
ATOM      7  C   UNL     1      49.915   7.842  12.951  0.00  0.00    +0.000 C 
ATOM      8  C   UNL     1      48.904   7.908  14.127  0.00  0.00    +0.000 C 
ATOM      9  C   UNL     1      48.990   9.286  14.838  0.00  0.00    +0.000 C 
ATOM     10  C   UNL     1      50.325   9.508  15.562  0.00  0.00    +0.000 C 
ATOM     11  N   UNL     1      50.633   8.450  16.524  0.00  0.00    +0.000 NA
ATOM     12  C   UNL     1      50.624   7.128  15.882  0.00  0.00    +0.000 C 
ATOM     13  C   UNL     1      49.293   6.829  15.178  0.00  0.00    +0.000 C 
ATOM     14  F   UNL     1      48.334   6.792  16.159  0.00  0.00    +0.000 F 
ATOM     15  H   UNL     1      49.903   8.448  17.243  0.00  0.00    +0.000 HD
ENDBRANCH   1   8
BRANCH   5  16
ATOM     16  C   UNL     1      45.453   4.905  11.859  0.00  0.00    +0.000 C 
BRANCH  16  17
ATOM     17  C   UNL     1      43.970   4.839  11.490  0.00  0.00    +0.000 C 
BRANCH  17  18
ATOM     18  N   UNL     1      43.806   4.766  10.031  0.00  0.00    +0.000 N 
ATOM     19  H   UNL     1      43.684   5.685   9.609  0.00  0.00    +0.000 HD
BRANCH  18  20
ATOM     20  C   UNL     1      44.728   3.987   9.312  0.00  0.00    +0.000 A 
ATOM     21  C   UNL     1      44.753   2.592   9.364  0.00  0.00    +0.000 A 
ATOM     22  C   UNL     1      45.641   1.863   8.576  0.00  0.00    +0.000 A 
ATOM     23  C   UNL     1      46.479   2.555   7.718  0.00  0.00    +0.000 A 
ATOM     24  N   UNL     1      46.475   3.909   7.589  0.00  0.00    +0.000 NA
ATOM     25  C   UNL     1      45.589   4.575   8.375  0.00  0.00    +0.000 A 
BRANCH  23  26
ATOM     26  C   UNL     1      47.439   1.790   6.860  0.00  0.00    +0.000 C 
ATOM     27  N   UNL     1      48.527   2.496   6.425  0.00  0.00    +0.000 N 
ATOM     28  O   UNL     1      47.278   0.614   6.564  0.00  0.00    +0.000 OA
ATOM     29  H   UNL     1      48.621   3.473   6.680  0.00  0.00    +0.000 HD
ATOM     30  H   UNL     1      49.204   2.050   5.828  0.00  0.00    +0.000 HD
ENDBRANCH  23  26
ENDBRANCH  18  20
ENDBRANCH  17  18
ENDBRANCH  16  17
ENDBRANCH   5  16
TORSDOF 6
ENDMDL
MODEL 5
REMARK VINA RESULT:    -7.427      1.883      2.976
REMARK INTER + INTRA:         -11.167
REMARK INTER:                 -10.275
REMARK INTRA:                  -0.892
REMARK UNBOUND:                -1.135
REMARK  Name = 
REMARK  7 active torsions:
REMARK  status: ('A' for Active; 'I' for Inactive)
REMARK    1  A    between atoms: C_1  and  C_2
REMARK    2  A    between atoms: C_2  and  C_3
REMARK    3  A    between atoms: C_7  and  C_8
REMARK    4  A    between atoms: C_8  and  C_9
REMARK    5  A    between atoms: C_9  and  N_10
REMARK    6  A    between atoms: N_10  and  C_11
REMARK    7  A    between atoms: C_14  and  C_15
REMARK                            x       y       z     vdW  Elec       q    Type
REMARK                         _______ _______ _______ _____ _____    ______ ____
ROOT
ATOM      1  C   UNL     1      46.623   9.160  12.256  0.00  0.00    +0.000 A 
ATOM      2  C   UNL     1      46.146  10.390  11.761  0.00  0.00    +0.000 A 
ATOM      3  C   UNL     1      44.896  10.492  11.147  0.00  0.00    +0.000 A 
ATOM      4  C   UNL     1      44.093   9.364  11.002  0.00  0.00    +0.000 A 
ATOM      5  C   UNL     1      44.531   8.128  11.482  0.00  0.00    +0.000 A 
ATOM      6  C   UNL     1      45.775   8.045  12.129  0.00  0.00    +0.000 A 
ENDROOT
BRANCH   1   8
ATOM      7  C   UNL     1      48.427  10.451  13.357  0.00  0.00    +0.000 C 
ATOM      8  C   UNL     1      48.065   9.045  12.808  0.00  0.00    +0.000 C 
ATOM      9  C   UNL     1      48.143   7.985  13.941  0.00  0.00    +0.000 C 
ATOM     10  C   UNL     1      49.570   7.761  14.458  0.00  0.00    +0.000 C 
ATOM     11  N   UNL     1      50.510   7.399  13.397  0.00  0.00    +0.000 NA
ATOM     12  C   UNL     1      50.517   8.407  12.327  0.00  0.00    +0.000 C 
ATOM     13  C   UNL     1      49.119   8.642  11.737  0.00  0.00    +0.000 C 
ATOM     14  F   UNL     1      48.740   7.460  11.155  0.00  0.00    +0.000 F 
ATOM     15  H   UNL     1      50.201   6.514  12.984  0.00  0.00    +0.000 HD
ENDBRANCH   1   8
BRANCH   5  16
ATOM     16  C   UNL     1      43.692   6.884  11.301  0.00  0.00    +0.000 C 
BRANCH  16  17
ATOM     17  C   UNL     1      44.550   5.629  11.131  0.00  0.00    +0.000 C 
BRANCH  17  18
ATOM     18  N   UNL     1      43.916   4.696  10.188  0.00  0.00    +0.000 N 
ATOM     19  H   UNL     1      43.133   5.120   9.692  0.00  0.00    +0.000 HD
BRANCH  18  20
ATOM     20  C   UNL     1      44.756   3.986   9.315  0.00  0.00    +0.000 A 
ATOM     21  C   UNL     1      45.650   4.607   8.441  0.00  0.00    +0.000 A 
ATOM     22  C   UNL     1      46.513   3.856   7.646  0.00  0.00    +0.000 A 
ATOM     23  C   UNL     1      46.483   2.476   7.766  0.00  0.00    +0.000 A 
ATOM     24  N   UNL     1      45.667   1.812   8.628  0.00  0.00    +0.000 NA
ATOM     25  C   UNL     1      44.847   2.588   9.384  0.00  0.00    +0.000 A 
BRANCH  23  26
ATOM     26  C   UNL     1      47.405   1.649   6.924  0.00  0.00    +0.000 C 
ATOM     27  N   UNL     1      48.518   2.299   6.464  0.00  0.00    +0.000 N 
ATOM     28  O   UNL     1      47.194   0.474   6.661  0.00  0.00    +0.000 OA
ATOM     29  H   UNL     1      48.653   3.277   6.692  0.00  0.00    +0.000 HD
ATOM     30  H   UNL     1      49.172   1.809   5.875  0.00  0.00    +0.000 HD
ENDBRANCH  23  26
ENDBRANCH  18  20
ENDBRANCH  17  18
ENDBRANCH  16  17
ENDBRANCH   5  16
TORSDOF 6
ENDMDL
MODEL 6
REMARK VINA RESULT:    -7.410      2.066      2.890
REMARK INTER + INTRA:         -11.144
REMARK INTER:                 -10.503
REMARK INTRA:                  -0.640
REMARK UNBOUND:                -1.135
REMARK  Name = 
REMARK  7 active torsions:
REMARK  status: ('A' for Active; 'I' for Inactive)
REMARK    1  A    between atoms: C_1  and  C_2
REMARK    2  A    between atoms: C_2  and  C_3
REMARK    3  A    between atoms: C_7  and  C_8
REMARK    4  A    between atoms: C_8  and  C_9
REMARK    5  A    between atoms: C_9  and  N_10
REMARK    6  A    between atoms: N_10  and  C_11
REMARK    7  A    between atoms: C_14  and  C_15
REMARK                            x       y       z     vdW  Elec       q    Type
REMARK                         _______ _______ _______ _____ _____    ______ ____
ROOT
ATOM      1  C   UNL     1      47.779   8.187  12.333  0.00  0.00    +0.000 A 
ATOM      2  C   UNL     1      46.824   9.200  12.546  0.00  0.00    +0.000 A 
ATOM      3  C   UNL     1      45.455   8.932  12.493  0.00  0.00    +0.000 A 
ATOM      4  C   UNL     1      45.003   7.645  12.217  0.00  0.00    +0.000 A 
ATOM      5  C   UNL     1      45.921   6.614  12.002  0.00  0.00    +0.000 A 
ATOM      6  C   UNL     1      47.295   6.889  12.092  0.00  0.00    +0.000 A 
ENDROOT
BRANCH   1   8
ATOM      7  C   UNL     1      49.854   8.277  13.682  0.00  0.00    +0.000 C 
ATOM      8  C   UNL     1      49.287   8.535  12.261  0.00  0.00    +0.000 C 
ATOM      9  C   UNL     1      50.013   7.642  11.217  0.00  0.00    +0.000 C 
ATOM     10  C   UNL     1      51.491   8.011  11.034  0.00  0.00    +0.000 C 
ATOM     11  N   UNL     1      51.687   9.417  10.683  0.00  0.00    +0.000 NA
ATOM     12  C   UNL     1      51.068  10.305  11.677  0.00  0.00    +0.000 C 
ATOM     13  C   UNL     1      49.574  10.014  11.871  0.00  0.00    +0.000 C 
ATOM     14  F   UNL     1      48.966  10.288  10.672  0.00  0.00    +0.000 F 
ATOM     15  H   UNL     1      51.225   9.591   9.786  0.00  0.00    +0.000 HD
ENDBRANCH   1   8
BRANCH   5  16
ATOM     16  C   UNL     1      45.452   5.217  11.663  0.00  0.00    +0.000 C 
BRANCH  16  17
ATOM     17  C   UNL     1      44.042   5.211  11.069  0.00  0.00    +0.000 C 
BRANCH  17  18
ATOM     18  N   UNL     1      43.782   3.941  10.375  0.00  0.00    +0.000 N 
ATOM     19  H   UNL     1      42.838   3.895   9.993  0.00  0.00    +0.000 HD
BRANCH  18  20
ATOM     20  C   UNL     1      44.737   3.504   9.443  0.00  0.00    +0.000 A 
ATOM     21  C   UNL     1      45.123   2.168   9.315  0.00  0.00    +0.000 A 
ATOM     22  C   UNL     1      46.022   1.775   8.325  0.00  0.00    +0.000 A 
ATOM     23  C   UNL     1      46.501   2.738   7.452  0.00  0.00    +0.000 A 
ATOM     24  N   UNL     1      46.132   4.047   7.497  0.00  0.00    +0.000 NA
ATOM     25  C   UNL     1      45.251   4.380   8.476  0.00  0.00    +0.000 A 
BRANCH  23  26
ATOM     26  C   UNL     1      47.466   2.336   6.379  0.00  0.00    +0.000 C 
ATOM     27  N   UNL     1      47.397   3.068   5.225  0.00  0.00    +0.000 N 
ATOM     28  O   UNL     1      48.268   1.423   6.512  0.00  0.00    +0.000 OA
ATOM     29  H   UNL     1      46.710   3.810   5.147  0.00  0.00    +0.000 HD
ATOM     30  H   UNL     1      48.003   2.840   4.454  0.00  0.00    +0.000 HD
ENDBRANCH  23  26
ENDBRANCH  18  20
ENDBRANCH  17  18
ENDBRANCH  16  17
ENDBRANCH   5  16
TORSDOF 6
ENDMDL
MODEL 7
REMARK VINA RESULT:    -7.172      3.810      7.376
REMARK INTER + INTRA:         -10.822
REMARK INTER:                  -9.504
REMARK INTRA:                  -1.318
REMARK UNBOUND:                -1.135
REMARK  Name = 
REMARK  7 active torsions:
REMARK  status: ('A' for Active; 'I' for Inactive)
REMARK    1  A    between atoms: C_1  and  C_2
REMARK    2  A    between atoms: C_2  and  C_3
REMARK    3  A    between atoms: C_7  and  C_8
REMARK    4  A    between atoms: C_8  and  C_9
REMARK    5  A    between atoms: C_9  and  N_10
REMARK    6  A    between atoms: N_10  and  C_11
REMARK    7  A    between atoms: C_14  and  C_15
REMARK                            x       y       z     vdW  Elec       q    Type
REMARK                         _______ _______ _______ _____ _____    ______ ____
ROOT
ATOM      1  C   UNL     1      45.382   6.737  11.528  0.00  0.00    +0.000 A 
ATOM      2  C   UNL     1      44.690   7.840  12.063  0.00  0.00    +0.000 A 
ATOM      3  C   UNL     1      45.364   8.991  12.479  0.00  0.00    +0.000 A 
ATOM      4  C   UNL     1      46.751   9.064  12.379  0.00  0.00    +0.000 A 
ATOM      5  C   UNL     1      47.471   7.990  11.852  0.00  0.00    +0.000 A 
ATOM      6  C   UNL     1      46.778   6.852  11.405  0.00  0.00    +0.000 A 
ENDROOT
BRANCH   1   8
ATOM      7  C   UNL     1      43.136   5.815  11.040  0.00  0.00    +0.000 C 
ATOM      8  C   UNL     1      44.629   5.423  11.203  0.00  0.00    +0.000 C 
ATOM      9  C   UNL     1      45.168   4.783   9.893  0.00  0.00    +0.000 C 
ATOM     10  C   UNL     1      44.522   3.428   9.576  0.00  0.00    +0.000 C 
ATOM     11  N   UNL     1      44.653   2.466  10.669  0.00  0.00    +0.000 NA
ATOM     12  C   UNL     1      44.099   3.004  11.920  0.00  0.00    +0.000 C 
ATOM     13  C   UNL     1      44.741   4.341  12.315  0.00  0.00    +0.000 C 
ATOM     14  F   UNL     1      46.065   4.079  12.557  0.00  0.00    +0.000 F 
ATOM     15  H   UNL     1      45.650   2.290  10.824  0.00  0.00    +0.000 HD
ENDBRANCH   1   8
BRANCH   5  16
ATOM     16  C   UNL     1      48.980   8.034  11.771  0.00  0.00    +0.000 C 
BRANCH  16  17
ATOM     17  C   UNL     1      49.641   7.216  12.882  0.00  0.00    +0.000 C 
BRANCH  17  18
ATOM     18  N   UNL     1      49.134   7.631  14.198  0.00  0.00    +0.000 N 
ATOM     19  H   UNL     1      48.501   8.427  14.135  0.00  0.00    +0.000 HD
BRANCH  18  20
ATOM     20  C   UNL     1      48.622   6.631  15.040  0.00  0.00    +0.000 A 
ATOM     21  C   UNL     1      47.747   5.635  14.600  0.00  0.00    +0.000 A 
ATOM     22  C   UNL     1      47.325   4.622  15.459  0.00  0.00    +0.000 A 
ATOM     23  C   UNL     1      47.817   4.611  16.754  0.00  0.00    +0.000 A 
ATOM     24  N   UNL     1      48.702   5.526  17.232  0.00  0.00    +0.000 NA
ATOM     25  C   UNL     1      49.088   6.490  16.356  0.00  0.00    +0.000 A 
BRANCH  23  26
ATOM     26  C   UNL     1      47.378   3.530  17.692  0.00  0.00    +0.000 C 
ATOM     27  N   UNL     1      48.177   3.344  18.787  0.00  0.00    +0.000 N 
ATOM     28  O   UNL     1      46.375   2.855  17.509  0.00  0.00    +0.000 OA
ATOM     29  H   UNL     1      49.008   3.914  18.899  0.00  0.00    +0.000 HD
ATOM     30  H   UNL     1      47.952   2.621  19.451  0.00  0.00    +0.000 HD
ENDBRANCH  23  26
ENDBRANCH  18  20
ENDBRANCH  17  18
ENDBRANCH  16  17
ENDBRANCH   5  16
TORSDOF 6
ENDMDL
MODEL 8
REMARK VINA RESULT:    -6.990      1.889      2.391
REMARK INTER + INTRA:         -10.576
REMARK INTER:                  -9.780
REMARK INTRA:                  -0.797
REMARK UNBOUND:                -1.135
REMARK  Name = 
REMARK  7 active torsions:
REMARK  status: ('A' for Active; 'I' for Inactive)
REMARK    1  A    between atoms: C_1  and  C_2
REMARK    2  A    between atoms: C_2  and  C_3
REMARK    3  A    between atoms: C_7  and  C_8
REMARK    4  A    between atoms: C_8  and  C_9
REMARK    5  A    between atoms: C_9  and  N_10
REMARK    6  A    between atoms: N_10  and  C_11
REMARK    7  A    between atoms: C_14  and  C_15
REMARK                            x       y       z     vdW  Elec       q    Type
REMARK                         _______ _______ _______ _____ _____    ______ ____
ROOT
ATOM      1  C   UNL     1      47.779   6.642  13.768  0.00  0.00    +0.000 A 
ATOM      2  C   UNL     1      48.257   5.893  14.860  0.00  0.00    +0.000 A 
ATOM      3  C   UNL     1      47.588   4.752  15.309  0.00  0.00    +0.000 A 
ATOM      4  C   UNL     1      46.417   4.336  14.684  0.00  0.00    +0.000 A 
ATOM      5  C   UNL     1      45.913   5.053  13.596  0.00  0.00    +0.000 A 
ATOM      6  C   UNL     1      46.614   6.178  13.132  0.00  0.00    +0.000 A 
ENDROOT
BRANCH   1   8
ATOM      7  C   UNL     1      47.937   9.036  14.384  0.00  0.00    +0.000 C 
ATOM      8  C   UNL     1      48.460   7.977  13.376  0.00  0.00    +0.000 C 
ATOM      9  C   UNL     1      50.007   7.859  13.467  0.00  0.00    +0.000 C 
ATOM     10  C   UNL     1      50.735   9.124  12.996  0.00  0.00    +0.000 C 
ATOM     11  N   UNL     1      50.364   9.523  11.639  0.00  0.00    +0.000 NA
ATOM     12  C   UNL     1      48.911   9.707  11.519  0.00  0.00    +0.000 C 
ATOM     13  C   UNL     1      48.126   8.455  11.933  0.00  0.00    +0.000 C 
ATOM     14  F   UNL     1      48.469   7.470  11.043  0.00  0.00    +0.000 F 
ATOM     15  H   UNL     1      50.633   8.770  10.999  0.00  0.00    +0.000 HD
ENDBRANCH   1   8
BRANCH   5  16
ATOM     16  C   UNL     1      44.622   4.640  12.926  0.00  0.00    +0.000 C 
BRANCH  16  17
ATOM     17  C   UNL     1      44.800   3.402  12.045  0.00  0.00    +0.000 C 
BRANCH  17  18
ATOM     18  N   UNL     1      44.239   3.638  10.707  0.00  0.00    +0.000 N 
ATOM     19  H   UNL     1      43.799   4.554  10.628  0.00  0.00    +0.000 HD
BRANCH  18  20
ATOM     20  C   UNL     1      45.060   3.363   9.602  0.00  0.00    +0.000 A 
ATOM     21  C   UNL     1      45.391   2.067   9.200  0.00  0.00    +0.000 A 
ATOM     22  C   UNL     1      46.150   1.846   8.053  0.00  0.00    +0.000 A 
ATOM     23  C   UNL     1      46.544   2.942   7.303  0.00  0.00    +0.000 A 
ATOM     24  N   UNL     1      46.219   4.226   7.616  0.00  0.00    +0.000 NA
ATOM     25  C   UNL     1      45.474   4.390   8.741  0.00  0.00    +0.000 A 
BRANCH  23  26
ATOM     26  C   UNL     1      47.358   2.726   6.065  0.00  0.00    +0.000 C 
ATOM     27  N   UNL     1      48.681   2.448   6.275  0.00  0.00    +0.000 N 
ATOM     28  O   UNL     1      46.886   2.785   4.939  0.00  0.00    +0.000 OA
ATOM     29  H   UNL     1      49.039   2.421   7.223  0.00  0.00    +0.000 HD
ATOM     30  H   UNL     1      49.292   2.311   5.486  0.00  0.00    +0.000 HD
ENDBRANCH  23  26
ENDBRANCH  18  20
ENDBRANCH  17  18
ENDBRANCH  16  17
ENDBRANCH   5  16
TORSDOF 6
ENDMDL
MODEL 9
REMARK VINA RESULT:    -6.645      4.680      7.804
REMARK INTER + INTRA:         -10.111
REMARK INTER:                  -9.052
REMARK INTRA:                  -1.059
REMARK UNBOUND:                -1.135
REMARK  Name = 
REMARK  7 active torsions:
REMARK  status: ('A' for Active; 'I' for Inactive)
REMARK    1  A    between atoms: C_1  and  C_2
REMARK    2  A    between atoms: C_2  and  C_3
REMARK    3  A    between atoms: C_7  and  C_8
REMARK    4  A    between atoms: C_8  and  C_9
REMARK    5  A    between atoms: C_9  and  N_10
REMARK    6  A    between atoms: N_10  and  C_11
REMARK    7  A    between atoms: C_14  and  C_15
REMARK                            x       y       z     vdW  Elec       q    Type
REMARK                         _______ _______ _______ _____ _____    ______ ____
ROOT
ATOM      1  C   UNL     1      46.071   6.731  12.321  0.00  0.00    +0.000 A 
ATOM      2  C   UNL     1      45.594   8.047  12.162  0.00  0.00    +0.000 A 
ATOM      3  C   UNL     1      46.230   9.130  12.772  0.00  0.00    +0.000 A 
ATOM      4  C   UNL     1      47.355   8.925  13.566  0.00  0.00    +0.000 A 
ATOM      5  C   UNL     1      47.858   7.634  13.745  0.00  0.00    +0.000 A 
ATOM      6  C   UNL     1      47.230   6.557  13.097  0.00  0.00    +0.000 A 
ENDROOT
BRANCH   1   8
ATOM      7  C   UNL     1      45.560   5.516  10.224  0.00  0.00    +0.000 C 
ATOM      8  C   UNL     1      45.271   5.535  11.748  0.00  0.00    +0.000 C 
ATOM      9  C   UNL     1      45.724   4.200  12.402  0.00  0.00    +0.000 C 
ATOM     10  C   UNL     1      44.896   2.993  11.942  0.00  0.00    +0.000 C 
ATOM     11  N   UNL     1      43.461   3.171  12.160  0.00  0.00    +0.000 NA
ATOM     12  C   UNL     1      42.972   4.393  11.506  0.00  0.00    +0.000 C 
ATOM     13  C   UNL     1      43.733   5.645  11.962  0.00  0.00    +0.000 C 
ATOM     14  F   UNL     1      43.475   5.790  13.301  0.00  0.00    +0.000 F 
ATOM     15  H   UNL     1      43.300   3.275  13.166  0.00  0.00    +0.000 HD
ENDBRANCH   1   8
BRANCH   5  16
ATOM     16  C   UNL     1      49.055   7.385  14.633  0.00  0.00    +0.000 C 
BRANCH  16  17
ATOM     17  C   UNL     1      48.833   7.897  16.058  0.00  0.00    +0.000 C 
BRANCH  17  18
ATOM     18  N   UNL     1      48.335   6.817  16.921  0.00  0.00    +0.000 N 
ATOM     19  H   UNL     1      47.366   6.575  16.717  0.00  0.00    +0.000 HD
BRANCH  18  20
ATOM     20  C   UNL     1      49.135   5.671  17.053  0.00  0.00    +0.000 A 
ATOM     21  C   UNL     1      50.445   5.706  17.536  0.00  0.00    +0.000 A 
ATOM     22  C   UNL     1      51.172   4.532  17.717  0.00  0.00    +0.000 A 
ATOM     23  C   UNL     1      50.554   3.325  17.434  0.00  0.00    +0.000 A 
ATOM     24  N   UNL     1      49.269   3.220  17.001  0.00  0.00    +0.000 NA
ATOM     25  C   UNL     1      48.600   4.392  16.845  0.00  0.00    +0.000 A 
BRANCH  23  26
ATOM     26  C   UNL     1      51.318   2.050  17.625  0.00  0.00    +0.000 C 
ATOM     27  N   UNL     1      52.410   2.139  18.443  0.00  0.00    +0.000 N 
ATOM     28  O   UNL     1      50.996   0.996  17.097  0.00  0.00    +0.000 OA
ATOM     29  H   UNL     1      52.654   3.034  18.853  0.00  0.00    +0.000 HD
ATOM     30  H   UNL     1      52.982   1.325  18.601  0.00  0.00    +0.000 HD
ENDBRANCH  23  26
ENDBRANCH  18  20
ENDBRANCH  17  18
ENDBRANCH  16  17
ENDBRANCH   5  16
TORSDOF 6
ENDMDL
