MODEL 1
REMARK VINA RESULT:    -8.491      0.000      0.000
REMARK INTER + INTRA:         -10.850
REMARK INTER:                 -10.477
REMARK INTRA:                  -0.374
REMARK UNBOUND:                -0.374
REMARK  Name = 
REMARK  4 active torsions:
REMARK  status: ('A' for Active; 'I' for Inactive)
REMARK    1  A    between atoms: C_2  and  C_4
REMARK    2  A    between atoms: C_7  and  C_8
REMARK    3  A    between atoms: C_8  and  C_9
REMARK    4  A    between atoms: C_9  and  C_10
REMARK                            x       y       z     vdW  Elec       q    Type
REMARK                         _______ _______ _______ _____ _____    ______ ____
ROOT
ATOM      1  C   UNL     1      46.699   2.676   7.441  0.00  0.00    +0.000 A 
ATOM      2  C   UNL     1      46.020   1.864   8.345  0.00  0.00    +0.000 A 
ATOM      3  C   UNL     1      45.086   2.433   9.211  0.00  0.00    +0.000 A 
ATOM      4  C   UNL     1      44.878   3.812   9.190  0.00  0.00    +0.000 A 
ATOM      5  N   UNL     1      45.551   4.616   8.324  0.00  0.00    +0.000 NA
ATOM      6  C   UNL     1      46.449   4.038   7.480  0.00  0.00    +0.000 A 
ENDROOT
BRANCH   1   8
ATOM      7  N   UNL     1      47.860   2.899   5.320  0.00  0.00    +0.000 N 
ATOM      8  C   UNL     1      47.649   2.146   6.444  0.00  0.00    +0.000 C 
ATOM      9  O   UNL     1      48.258   1.102   6.628  0.00  0.00    +0.000 OA
ATOM     10  H   UNL     1      48.593   2.584   4.697  0.00  0.00    +0.000 HD
ATOM     11  H   UNL     1      47.580   3.868   5.252  0.00  0.00    +0.000 HD
ENDBRANCH   1   8
BRANCH   4  12
ATOM     12  C   UNL     1      43.804   4.486  10.016  0.00  0.00    +0.000 C 
BRANCH  12  13
ATOM     13  C   UNL     1      44.040   4.502  11.522  0.00  0.00    +0.000 C 
ATOM     14  C   UNL     1      43.325   3.454  12.372  0.00  0.00    +0.000 C 
ATOM     15  C   UNL     1      42.833   4.859  12.375  0.00  0.00    +0.000 C 
ATOM     16  F   UNL     1      43.029   5.577  13.542  0.00  0.00    +0.000 F 
BRANCH  13  17
ATOM     17  C   UNL     1      45.384   5.048  12.000  0.00  0.00    +0.000 A 
ATOM     18  C   UNL     1      45.901   6.265  11.530  0.00  0.00    +0.000 A 
ATOM     19  C   UNL     1      47.090   6.780  12.043  0.00  0.00    +0.000 A 
ATOM     20  C   UNL     1      47.754   6.056  13.015  0.00  0.00    +0.000 A 
ATOM     21  N   UNL     1      47.320   4.870  13.486  0.00  0.00    +0.000 NA
ATOM     22  C   UNL     1      46.157   4.406  12.970  0.00  0.00    +0.000 A 
ENDBRANCH  13  17
ENDBRANCH  12  13
ENDBRANCH   4  12
TORSDOF 4
ENDMDL
MODEL 2
REMARK VINA RESULT:    -6.519      1.670      2.389
REMARK INTER + INTRA:          -8.416
REMARK INTER:                  -8.904
REMARK INTRA:                   0.488
REMARK UNBOUND:                -0.374
REMARK  Name = 
REMARK  4 active torsions:
REMARK  status: ('A' for Active; 'I' for Inactive)
REMARK    1  A    between atoms: C_2  and  C_4
REMARK    2  A    between atoms: C_7  and  C_8
REMARK    3  A    between atoms: C_8  and  C_9
REMARK    4  A    between atoms: C_9  and  C_10
REMARK                            x       y       z     vdW  Elec       q    Type
REMARK                         _______ _______ _______ _____ _____    ______ ____
ROOT
ATOM      1  C   UNL     1      46.309   2.674   7.594  0.00  0.00    +0.000 A 
ATOM      2  C   UNL     1      46.213   4.062   7.657  0.00  0.00    +0.000 A 
ATOM      3  C   UNL     1      45.571   4.656   8.743  0.00  0.00    +0.000 A 
ATOM      4  C   UNL     1      44.996   3.852   9.728  0.00  0.00    +0.000 A 
ATOM      5  N   UNL     1      45.068   2.496   9.665  0.00  0.00    +0.000 NA
ATOM      6  C   UNL     1      45.708   1.938   8.601  0.00  0.00    +0.000 A 
ENDROOT
BRANCH   1   8
ATOM      7  N   UNL     1      47.417   2.711   5.434  0.00  0.00    +0.000 N 
ATOM      8  C   UNL     1      47.031   1.969   6.518  0.00  0.00    +0.000 C 
ATOM      9  O   UNL     1      47.316   0.783   6.605  0.00  0.00    +0.000 OA
ATOM     10  H   UNL     1      48.007   2.245   4.755  0.00  0.00    +0.000 HD
ATOM     11  H   UNL     1      47.430   3.722   5.441  0.00  0.00    +0.000 HD
ENDBRANCH   1   8
BRANCH   4  12
ATOM     12  C   UNL     1      44.385   4.423  10.990  0.00  0.00    +0.000 C 
BRANCH  12  13
ATOM     13  C   UNL     1      45.240   5.440  11.737  0.00  0.00    +0.000 C 
ATOM     14  C   UNL     1      44.751   6.886  11.790  0.00  0.00    +0.000 C 
ATOM     15  C   UNL     1      45.871   6.526  10.879  0.00  0.00    +0.000 C 
ATOM     16  F   UNL     1      47.123   7.006  11.224  0.00  0.00    +0.000 F 
BRANCH  13  17
ATOM     17  C   UNL     1      46.097   4.908  12.882  0.00  0.00    +0.000 A 
ATOM     18  C   UNL     1      46.556   5.739  13.916  0.00  0.00    +0.000 A 
ATOM     19  C   UNL     1      47.269   5.213  14.992  0.00  0.00    +0.000 A 
ATOM     20  C   UNL     1      47.524   3.855  15.008  0.00  0.00    +0.000 A 
ATOM     21  N   UNL     1      47.133   3.012  14.032  0.00  0.00    +0.000 NA
ATOM     22  C   UNL     1      46.436   3.559  13.007  0.00  0.00    +0.000 A 
ENDBRANCH  13  17
ENDBRANCH  12  13
ENDBRANCH   4  12
TORSDOF 4
ENDMDL
MODEL 3
REMARK VINA RESULT:    -6.257      3.253      6.526
REMARK INTER + INTRA:          -8.093
REMARK INTER:                  -7.911
REMARK INTRA:                  -0.183
REMARK UNBOUND:                -0.374
REMARK  Name = 
REMARK  4 active torsions:
REMARK  status: ('A' for Active; 'I' for Inactive)
REMARK    1  A    between atoms: C_2  and  C_4
REMARK    2  A    between atoms: C_7  and  C_8
REMARK    3  A    between atoms: C_8  and  C_9
REMARK    4  A    between atoms: C_9  and  C_10
REMARK                            x       y       z     vdW  Elec       q    Type
REMARK                         _______ _______ _______ _____ _____    ______ ____
ROOT
ATOM      1  C   UNL     1      47.581   4.351  15.790  0.00  0.00    +0.000 A 
ATOM      2  C   UNL     1      47.987   5.675  15.641  0.00  0.00    +0.000 A 
ATOM      3  C   UNL     1      47.867   6.292  14.396  0.00  0.00    +0.000 A 
ATOM      4  C   UNL     1      47.385   5.563  13.309  0.00  0.00    +0.000 A 
ATOM      5  N   UNL     1      47.004   4.264  13.441  0.00  0.00    +0.000 NA
ATOM      6  C   UNL     1      47.119   3.685  14.667  0.00  0.00    +0.000 A 
ENDROOT
BRANCH   1   8
ATOM      7  N   UNL     1      48.714   3.827  17.873  0.00  0.00    +0.000 N 
ATOM      8  C   UNL     1      47.608   3.646  17.086  0.00  0.00    +0.000 C 
ATOM      9  O   UNL     1      46.667   2.965  17.467  0.00  0.00    +0.000 OA
ATOM     10  H   UNL     1      48.675   3.431  18.803  0.00  0.00    +0.000 HD
ATOM     11  H   UNL     1      49.382   4.569  17.713  0.00  0.00    +0.000 HD
ENDBRANCH   1   8
BRANCH   4  12
ATOM     12  C   UNL     1      47.119   6.195  11.959  0.00  0.00    +0.000 C 
BRANCH  12  13
ATOM     13  C   UNL     1      45.667   6.177  11.494  0.00  0.00    +0.000 C 
ATOM     14  C   UNL     1      44.915   7.505  11.442  0.00  0.00    +0.000 C 
ATOM     15  C   UNL     1      44.634   6.549  12.547  0.00  0.00    +0.000 C 
ATOM     16  F   UNL     1      43.400   5.923  12.521  0.00  0.00    +0.000 F 
BRANCH  13  17
ATOM     17  C   UNL     1      45.269   5.064  10.528  0.00  0.00    +0.000 A 
ATOM     18  C   UNL     1      45.653   5.078   9.179  0.00  0.00    +0.000 A 
ATOM     19  C   UNL     1      45.345   4.010   8.338  0.00  0.00    +0.000 A 
ATOM     20  C   UNL     1      44.639   2.944   8.864  0.00  0.00    +0.000 A 
ATOM     21  N   UNL     1      44.220   2.886  10.143  0.00  0.00    +0.000 NA
ATOM     22  C   UNL     1      44.546   3.938  10.931  0.00  0.00    +0.000 A 
ENDBRANCH  13  17
ENDBRANCH  12  13
ENDBRANCH   4  12
TORSDOF 4
ENDMDL
MODEL 4
REMARK VINA RESULT:    -5.889      3.088      6.040
REMARK INTER + INTRA:          -7.640
REMARK INTER:                  -7.829
REMARK INTRA:                   0.189
REMARK UNBOUND:                -0.374
REMARK  Name = 
REMARK  4 active torsions:
REMARK  status: ('A' for Active; 'I' for Inactive)
REMARK    1  A    between atoms: C_2  and  C_4
REMARK    2  A    between atoms: C_7  and  C_8
REMARK    3  A    between atoms: C_8  and  C_9
REMARK    4  A    between atoms: C_9  and  C_10
REMARK                            x       y       z     vdW  Elec       q    Type
REMARK                         _______ _______ _______ _____ _____    ______ ____
ROOT
ATOM      1  C   UNL     1      49.131   7.670  12.855  0.00  0.00    +0.000 A 
ATOM      2  C   UNL     1      48.236   7.735  11.790  0.00  0.00    +0.000 A 
ATOM      3  C   UNL     1      47.151   6.859  11.753  0.00  0.00    +0.000 A 
ATOM      4  C   UNL     1      47.003   5.902  12.758  0.00  0.00    +0.000 A 
ATOM      5  N   UNL     1      47.883   5.819  13.791  0.00  0.00    +0.000 NA
ATOM      6  C   UNL     1      48.928   6.691  13.813  0.00  0.00    +0.000 A 
ENDROOT
BRANCH   1   8
ATOM      7  N   UNL     1      51.516   8.059  13.095  0.00  0.00    +0.000 N 
ATOM      8  C   UNL     1      50.263   8.604  13.008  0.00  0.00    +0.000 C 
ATOM      9  O   UNL     1      50.100   9.816  13.011  0.00  0.00    +0.000 OA
ATOM     10  H   UNL     1      52.292   8.708  13.088  0.00  0.00    +0.000 HD
ATOM     11  H   UNL     1      51.712   7.100  12.842  0.00  0.00    +0.000 HD
ENDBRANCH   1   8
BRANCH   4  12
ATOM     12  C   UNL     1      45.793   4.997  12.847  0.00  0.00    +0.000 C 
BRANCH  12  13
ATOM     13  C   UNL     1      44.767   5.152  11.730  0.00  0.00    +0.000 C 
ATOM     14  C   UNL     1      43.966   6.451  11.668  0.00  0.00    +0.000 C 
ATOM     15  C   UNL     1      43.314   5.214  12.174  0.00  0.00    +0.000 C 
ATOM     16  F   UNL     1      42.343   4.653  11.362  0.00  0.00    +0.000 F 
BRANCH  13  17
ATOM     17  C   UNL     1      45.040   4.391  10.435  0.00  0.00    +0.000 A 
ATOM     18  C   UNL     1      44.786   3.017  10.313  0.00  0.00    +0.000 A 
ATOM     19  C   UNL     1      44.968   2.362   9.096  0.00  0.00    +0.000 A 
ATOM     20  C   UNL     1      45.419   3.099   8.017  0.00  0.00    +0.000 A 
ATOM     21  N   UNL     1      45.707   4.414   8.080  0.00  0.00    +0.000 NA
ATOM     22  C   UNL     1      45.509   5.016   9.277  0.00  0.00    +0.000 A 
ENDBRANCH  13  17
ENDBRANCH  12  13
ENDBRANCH   4  12
TORSDOF 4
ENDMDL
MODEL 5
REMARK VINA RESULT:    -5.837      3.482      6.183
REMARK INTER + INTRA:          -7.576
REMARK INTER:                  -8.242
REMARK INTRA:                   0.666
REMARK UNBOUND:                -0.374
REMARK  Name = 
REMARK  4 active torsions:
REMARK  status: ('A' for Active; 'I' for Inactive)
REMARK    1  A    between atoms: C_2  and  C_4
REMARK    2  A    between atoms: C_7  and  C_8
REMARK    3  A    between atoms: C_8  and  C_9
REMARK    4  A    between atoms: C_9  and  C_10
REMARK                            x       y       z     vdW  Elec       q    Type
REMARK                         _______ _______ _______ _____ _____    ______ ____
ROOT
ATOM      1  C   UNL     1      45.789   9.044  12.108  0.00  0.00    +0.000 A 
ATOM      2  C   UNL     1      46.782   8.363  12.807  0.00  0.00    +0.000 A 
ATOM      3  C   UNL     1      46.670   6.985  12.989  0.00  0.00    +0.000 A 
ATOM      4  C   UNL     1      45.545   6.315  12.509  0.00  0.00    +0.000 A 
ATOM      5  N   UNL     1      44.561   6.975  11.841  0.00  0.00    +0.000 NA
ATOM      6  C   UNL     1      44.696   8.318  11.665  0.00  0.00    +0.000 A 
ENDROOT
BRANCH   1   8
ATOM      7  N   UNL     1      44.725  11.223  11.993  0.00  0.00    +0.000 N 
ATOM      8  C   UNL     1      45.865  10.487  11.809  0.00  0.00    +0.000 C 
ATOM      9  O   UNL     1      46.909  11.016  11.457  0.00  0.00    +0.000 OA
ATOM     10  H   UNL     1      44.815  12.227  11.893  0.00  0.00    +0.000 HD
ATOM     11  H   UNL     1      43.932  10.880  12.517  0.00  0.00    +0.000 HD
ENDBRANCH   1   8
BRANCH   4  12
ATOM     12  C   UNL     1      45.407   4.809  12.567  0.00  0.00    +0.000 C 
BRANCH  12  13
ATOM     13  C   UNL     1      44.433   4.194  11.568  0.00  0.00    +0.000 C 
ATOM     14  C   UNL     1      42.955   4.557  11.692  0.00  0.00    +0.000 C 
ATOM     15  C   UNL     1      43.421   3.220  12.149  0.00  0.00    +0.000 C 
ATOM     16  F   UNL     1      43.024   2.136  11.385  0.00  0.00    +0.000 F 
BRANCH  13  17
ATOM     17  C   UNL     1      44.993   3.839  10.193  0.00  0.00    +0.000 A 
ATOM     18  C   UNL     1      45.149   2.509   9.775  0.00  0.00    +0.000 A 
ATOM     19  C   UNL     1      45.587   2.212   8.485  0.00  0.00    +0.000 A 
ATOM     20  C   UNL     1      45.876   3.261   7.634  0.00  0.00    +0.000 A 
ATOM     21  N   UNL     1      45.772   4.558   7.987  0.00  0.00    +0.000 NA
ATOM     22  C   UNL     1      45.336   4.806   9.245  0.00  0.00    +0.000 A 
ENDBRANCH  13  17
ENDBRANCH  12  13
ENDBRANCH   4  12
TORSDOF 4
ENDMDL
MODEL 6
REMARK VINA RESULT:    -5.815      3.634      5.241
REMARK INTER + INTRA:          -7.549
REMARK INTER:                  -7.171
REMARK INTRA:                  -0.378
REMARK UNBOUND:                -0.374
REMARK  Name = 
REMARK  4 active torsions:
REMARK  status: ('A' for Active; 'I' for Inactive)
REMARK    1  A    between atoms: C_2  and  C_4
REMARK    2  A    between atoms: C_7  and  C_8
REMARK    3  A    between atoms: C_8  and  C_9
REMARK    4  A    between atoms: C_9  and  C_10
REMARK                            x       y       z     vdW  Elec       q    Type
REMARK                         _______ _______ _______ _____ _____    ______ ____
ROOT
ATOM      1  C   UNL     1      44.579   4.085  11.493  0.00  0.00    +0.000 A 
ATOM      2  C   UNL     1      45.053   4.212  12.796  0.00  0.00    +0.000 A 
ATOM      3  C   UNL     1      45.571   5.435  13.221  0.00  0.00    +0.000 A 
ATOM      4  C   UNL     1      45.648   6.500  12.323  0.00  0.00    +0.000 A 
ATOM      5  N   UNL     1      45.205   6.380  11.043  0.00  0.00    +0.000 NA
ATOM      6  C   UNL     1      44.694   5.180  10.653  0.00  0.00    +0.000 A 
ENDROOT
BRANCH   1   8
ATOM      7  N   UNL     1      44.552   2.238   9.917  0.00  0.00    +0.000 N 
ATOM      8  C   UNL     1      43.952   2.849  10.985  0.00  0.00    +0.000 C 
ATOM      9  O   UNL     1      42.966   2.363  11.520  0.00  0.00    +0.000 OA
ATOM     10  H   UNL     1      44.181   1.335   9.647  0.00  0.00    +0.000 HD
ATOM     11  H   UNL     1      45.491   2.460   9.618  0.00  0.00    +0.000 HD
ENDBRANCH   1   8
BRANCH   4  12
ATOM     12  C   UNL     1      46.089   7.887  12.740  0.00  0.00    +0.000 C 
BRANCH  12  13
ATOM     13  C   UNL     1      47.593   8.081  12.902  0.00  0.00    +0.000 C 
ATOM     14  C   UNL     1      48.284   9.106  12.006  0.00  0.00    +0.000 C 
ATOM     15  C   UNL     1      48.444   7.656  11.716  0.00  0.00    +0.000 C 
ATOM     16  F   UNL     1      49.696   7.115  11.953  0.00  0.00    +0.000 F 
BRANCH  13  17
ATOM     17  C   UNL     1      48.177   7.795  14.284  0.00  0.00    +0.000 A 
ATOM     18  C   UNL     1      48.262   8.785  15.274  0.00  0.00    +0.000 A 
ATOM     19  C   UNL     1      48.724   8.477  16.553  0.00  0.00    +0.000 A 
ATOM     20  C   UNL     1      49.111   7.176  16.815  0.00  0.00    +0.000 A 
ATOM     21  N   UNL     1      49.078   6.191  15.897  0.00  0.00    +0.000 NA
ATOM     22  C   UNL     1      48.615   6.526  14.669  0.00  0.00    +0.000 A 
ENDBRANCH  13  17
ENDBRANCH  12  13
ENDBRANCH   4  12
TORSDOF 4
ENDMDL
