MODEL 1
REMARK VINA RESULT:    -8.113      0.000      0.000
REMARK INTER + INTRA:         -12.036
REMARK INTER:                 -11.669
REMARK INTRA:                  -0.367
REMARK UNBOUND:                -0.367
REMARK  Name = 
REMARK  8 active torsions:
REMARK  status: ('A' for Active; 'I' for Inactive)
REMARK    1  A    between atoms: N_1  and  C_2
REMARK    2  A    between atoms: C_2  and  C_3
REMARK    3  A    between atoms: C_3  and  N_4
REMARK    4  A    between atoms: C_3  and  C_11
REMARK    5  A    between atoms: C_5  and  C_7
REMARK    6  A    between atoms: C_14  and  C_15
REMARK    7  A    between atoms: C_15  and  N_16
REMARK    8  A    between atoms: C_17  and  C_19
REMARK                            x       y       z     vdW  Elec       q    Type
REMARK                         _______ _______ _______ _____ _____    ______ ____
ROOT
ATOM      1  C   UNL     1      44.649   5.760  11.171  0.00  0.00    +0.000 A 
ATOM      2  C   UNL     1      44.209   7.018  11.580  0.00  0.00    +0.000 A 
ATOM      3  C   UNL     1      45.068   7.843  12.313  0.00  0.00    +0.000 A 
ATOM      4  C   UNL     1      46.355   7.408  12.628  0.00  0.00    +0.000 A 
ATOM      5  C   UNL     1      46.708   6.136  12.198  0.00  0.00    +0.000 A 
ATOM      6  N   UNL     1      45.892   5.312  11.498  0.00  0.00    +0.000 NA
ENDROOT
BRANCH   1   7
ATOM      7  C   UNL     1      43.743   4.760  10.449  0.00  0.00    +0.000 C 
BRANCH   7   8
ATOM      8  N   UNL     1      44.366   4.379   9.176  0.00  0.00    +0.000 N 
ATOM      9  C   UNL     1      45.040   3.196   9.009  0.00  0.00    +0.000 C 
ATOM     10  O   UNL     1      45.239   2.377   9.895  0.00  0.00    +0.000 OA
ATOM     11  H   UNL     1      44.198   4.976   8.379  0.00  0.00    +0.000 HD
BRANCH   9  12
ATOM     12  C   UNL     1      45.490   2.957   7.619  0.00  0.00    +0.000 C 
ATOM     13  C   UNL     1      46.742   2.137   7.393  0.00  0.00    +0.000 C 
ATOM     14  C   UNL     1      46.735   3.599   7.086  0.00  0.00    +0.000 C 
ATOM     15  F   UNL     1      46.741   3.947   5.745  0.00  0.00    +0.000 F 
ENDBRANCH   9  12
ENDBRANCH   7   8
BRANCH   7  16
ATOM     16  C   UNL     1      43.360   3.480  11.248  0.00  0.00    +0.000 C 
BRANCH  16  17
ATOM     17  N   UNL     1      44.010   3.332  12.555  0.00  0.00    +0.000 NA
ATOM     18  H   UNL     1      44.899   3.830  12.545  0.00  0.00    +0.000 HD
ATOM     19  H   UNL     1      44.250   2.348  12.693  0.00  0.00    +0.000 HD
ENDBRANCH  16  17
ENDBRANCH   7  16
ENDBRANCH   1   7
BRANCH   4  20
ATOM     20  C   UNL     1      47.289   8.228  13.468  0.00  0.00    +0.000 C 
BRANCH  20  21
ATOM     21  N   UNL     1      47.668   7.497  14.654  0.00  0.00    +0.000 N 
ATOM     22  C   UNL     1      48.895   6.901  14.784  0.00  0.00    +0.000 C 
ATOM     23  O   UNL     1      49.764   7.003  13.922  0.00  0.00    +0.000 OA
ATOM     24  H   UNL     1      46.917   7.212  15.273  0.00  0.00    +0.000 HD
BRANCH  22  25
ATOM     25  C   UNL     1      49.137   6.185  16.044  0.00  0.00    +0.000 A 
ATOM     26  C   UNL     1      50.156   6.603  16.888  0.00  0.00    +0.000 A 
ATOM     27  S   UNL     1      50.261   5.700  18.333  0.00  0.00    +0.000 S 
ATOM     28  C   UNL     1      48.980   4.684  17.857  0.00  0.00    +0.000 A 
ATOM     29  N   UNL     1      48.569   3.662  18.654  0.00  0.00    +0.000 NA
ATOM     30  C   UNL     1      47.612   2.951  18.152  0.00  0.00    +0.000 A 
ATOM     31  N   UNL     1      47.026   3.173  16.936  0.00  0.00    +0.000 N 
ATOM     32  C   UNL     1      47.382   4.219  16.117  0.00  0.00    +0.000 A 
ATOM     33  O   UNL     1      46.794   4.430  15.063  0.00  0.00    +0.000 OA
ATOM     34  C   UNL     1      48.468   5.039  16.621  0.00  0.00    +0.000 A 
ATOM     35  H   UNL     1      46.273   2.585  16.611  0.00  0.00    +0.000 HD
ENDBRANCH  22  25
ENDBRANCH  20  21
ENDBRANCH   4  20
TORSDOF 8
ENDMDL
MODEL 2
REMARK VINA RESULT:    -7.960      2.494      3.515
REMARK INTER + INTRA:         -11.817
REMARK INTER:                 -10.708
REMARK INTRA:                  -1.109
REMARK UNBOUND:                -0.367
REMARK  Name = 
REMARK  8 active torsions:
REMARK  status: ('A' for Active; 'I' for Inactive)
REMARK    1  A    between atoms: N_1  and  C_2
REMARK    2  A    between atoms: C_2  and  C_3
REMARK    3  A    between atoms: C_3  and  N_4
REMARK    4  A    between atoms: C_3  and  C_11
REMARK    5  A    between atoms: C_5  and  C_7
REMARK    6  A    between atoms: C_14  and  C_15
REMARK    7  A    between atoms: C_15  and  N_16
REMARK    8  A    between atoms: C_17  and  C_19
REMARK                            x       y       z     vdW  Elec       q    Type
REMARK                         _______ _______ _______ _____ _____    ______ ____
ROOT
ATOM      1  C   UNL     1      45.206   5.215  11.950  0.00  0.00    +0.000 A 
ATOM      2  C   UNL     1      46.097   6.192  12.395  0.00  0.00    +0.000 A 
ATOM      3  C   UNL     1      46.962   5.903  13.454  0.00  0.00    +0.000 A 
ATOM      4  C   UNL     1      46.934   4.646  14.056  0.00  0.00    +0.000 A 
ATOM      5  C   UNL     1      46.007   3.738  13.565  0.00  0.00    +0.000 A 
ATOM      6  N   UNL     1      45.148   3.995  12.550  0.00  0.00    +0.000 NA
ENDROOT
BRANCH   1   7
ATOM      7  C   UNL     1      44.162   5.480  10.862  0.00  0.00    +0.000 C 
BRANCH   7   8
ATOM      8  N   UNL     1      44.278   4.449   9.824  0.00  0.00    +0.000 N 
ATOM      9  C   UNL     1      45.256   4.475   8.863  0.00  0.00    +0.000 C 
ATOM     10  O   UNL     1      46.083   5.367   8.736  0.00  0.00    +0.000 OA
ATOM     11  H   UNL     1      43.667   3.648   9.895  0.00  0.00    +0.000 HD
BRANCH   9  12
ATOM     12  C   UNL     1      45.263   3.282   7.987  0.00  0.00    +0.000 C 
ATOM     13  C   UNL     1      45.789   1.976   8.544  0.00  0.00    +0.000 C 
ATOM     14  C   UNL     1      46.547   2.700   7.479  0.00  0.00    +0.000 C 
ATOM     15  F   UNL     1      46.527   2.133   6.215  0.00  0.00    +0.000 F 
ENDBRANCH   9  12
ENDBRANCH   7   8
BRANCH   7  16
ATOM     16  C   UNL     1      42.684   5.579  11.340  0.00  0.00    +0.000 C 
BRANCH  16  17
ATOM     17  N   UNL     1      42.485   5.554  12.793  0.00  0.00    +0.000 NA
ATOM     18  H   UNL     1      41.545   5.884  13.008  0.00  0.00    +0.000 HD
ATOM     19  H   UNL     1      43.117   6.233  13.222  0.00  0.00    +0.000 HD
ENDBRANCH  16  17
ENDBRANCH   7  16
ENDBRANCH   1   7
BRANCH   4  20
ATOM     20  C   UNL     1      47.795   4.310  15.238  0.00  0.00    +0.000 C 
BRANCH  20  21
ATOM     21  N   UNL     1      47.733   5.365  16.220  0.00  0.00    +0.000 N 
ATOM     22  C   UNL     1      48.806   5.700  17.004  0.00  0.00    +0.000 C 
ATOM     23  O   UNL     1      49.900   5.158  16.876  0.00  0.00    +0.000 OA
ATOM     24  H   UNL     1      46.807   5.673  16.500  0.00  0.00    +0.000 HD
BRANCH  22  25
ATOM     25  C   UNL     1      48.591   6.789  17.965  0.00  0.00    +0.000 A 
ATOM     26  C   UNL     1      48.602   6.518  19.326  0.00  0.00    +0.000 A 
ATOM     27  S   UNL     1      48.397   7.903  20.302  0.00  0.00    +0.000 S 
ATOM     28  C   UNL     1      48.235   8.909  18.938  0.00  0.00    +0.000 A 
ATOM     29  N   UNL     1      48.014  10.243  19.079  0.00  0.00    +0.000 NA
ATOM     30  C   UNL     1      47.876  10.878  17.960  0.00  0.00    +0.000 A 
ATOM     31  N   UNL     1      47.947  10.305  16.720  0.00  0.00    +0.000 N 
ATOM     32  C   UNL     1      48.210   8.968  16.531  0.00  0.00    +0.000 A 
ATOM     33  O   UNL     1      48.331   8.497  15.407  0.00  0.00    +0.000 OA
ATOM     34  C   UNL     1      48.352   8.201  17.755  0.00  0.00    +0.000 A 
ATOM     35  H   UNL     1      47.842  10.864  15.886  0.00  0.00    +0.000 HD
ENDBRANCH  22  25
ENDBRANCH  20  21
ENDBRANCH   4  20
TORSDOF 8
ENDMDL
MODEL 3
REMARK VINA RESULT:    -7.793      1.264      1.561
REMARK INTER + INTRA:         -11.576
REMARK INTER:                 -11.099
REMARK INTRA:                  -0.477
REMARK UNBOUND:                -0.367
REMARK  Name = 
REMARK  8 active torsions:
REMARK  status: ('A' for Active; 'I' for Inactive)
REMARK    1  A    between atoms: N_1  and  C_2
REMARK    2  A    between atoms: C_2  and  C_3
REMARK    3  A    between atoms: C_3  and  N_4
REMARK    4  A    between atoms: C_3  and  C_11
REMARK    5  A    between atoms: C_5  and  C_7
REMARK    6  A    between atoms: C_14  and  C_15
REMARK    7  A    between atoms: C_15  and  N_16
REMARK    8  A    between atoms: C_17  and  C_19
REMARK                            x       y       z     vdW  Elec       q    Type
REMARK                         _______ _______ _______ _____ _____    ______ ____
ROOT
ATOM      1  C   UNL     1      44.802   6.482  11.757  0.00  0.00    +0.000 A 
ATOM      2  C   UNL     1      45.999   5.772  11.852  0.00  0.00    +0.000 A 
ATOM      3  C   UNL     1      47.084   6.339  12.526  0.00  0.00    +0.000 A 
ATOM      4  C   UNL     1      46.965   7.603  13.102  0.00  0.00    +0.000 A 
ATOM      5  C   UNL     1      45.746   8.249  12.948  0.00  0.00    +0.000 A 
ATOM      6  N   UNL     1      44.683   7.729  12.289  0.00  0.00    +0.000 NA
ENDROOT
BRANCH   1   7
ATOM      7  C   UNL     1      43.600   5.974  10.958  0.00  0.00    +0.000 C 
BRANCH   7   8
ATOM      8  N   UNL     1      44.071   5.066   9.905  0.00  0.00    +0.000 N 
ATOM      9  C   UNL     1      43.938   3.704   9.991  0.00  0.00    +0.000 C 
ATOM     10  O   UNL     1      43.475   3.109  10.955  0.00  0.00    +0.000 OA
ATOM     11  H   UNL     1      44.414   5.483   9.051  0.00  0.00    +0.000 HD
BRANCH   9  12
ATOM     12  C   UNL     1      44.374   2.984   8.773  0.00  0.00    +0.000 C 
ATOM     13  C   UNL     1      45.596   2.095   8.855  0.00  0.00    +0.000 C 
ATOM     14  C   UNL     1      45.638   3.360   8.062  0.00  0.00    +0.000 C 
ATOM     15  F   UNL     1      45.650   3.222   6.683  0.00  0.00    +0.000 F 
ENDBRANCH   9  12
ENDBRANCH   7   8
BRANCH   7  16
ATOM     16  C   UNL     1      42.472   5.283  11.779  0.00  0.00    +0.000 C 
BRANCH  16  17
ATOM     17  N   UNL     1      42.645   5.307  13.235  0.00  0.00    +0.000 NA
ATOM     18  H   UNL     1      43.417   5.929  13.471  0.00  0.00    +0.000 HD
ATOM     19  H   UNL     1      42.937   4.379  13.547  0.00  0.00    +0.000 HD
ENDBRANCH  16  17
ENDBRANCH   7  16
ENDBRANCH   1   7
BRANCH   4  20
ATOM     20  C   UNL     1      48.120   8.282  13.778  0.00  0.00    +0.000 C 
BRANCH  20  21
ATOM     21  N   UNL     1      48.407   7.644  15.040  0.00  0.00    +0.000 N 
ATOM     22  C   UNL     1      49.672   7.248  15.388  0.00  0.00    +0.000 C 
ATOM     23  O   UNL     1      50.643   7.465  14.669  0.00  0.00    +0.000 OA
ATOM     24  H   UNL     1      47.617   7.259  15.546  0.00  0.00    +0.000 HD
BRANCH  22  25
ATOM     25  C   UNL     1      49.811   6.604  16.701  0.00  0.00    +0.000 A 
ATOM     26  C   UNL     1      50.668   7.149  17.647  0.00  0.00    +0.000 A 
ATOM     27  S   UNL     1      50.666   6.313  19.135  0.00  0.00    +0.000 S 
ATOM     28  C   UNL     1      49.556   5.161  18.549  0.00  0.00    +0.000 A 
ATOM     29  N   UNL     1      49.140   4.133  19.336  0.00  0.00    +0.000 NA
ATOM     30  C   UNL     1      48.326   3.315  18.752  0.00  0.00    +0.000 A 
ATOM     31  N   UNL     1      47.887   3.435  17.461  0.00  0.00    +0.000 N 
ATOM     32  C   UNL     1      48.250   4.481  16.645  0.00  0.00    +0.000 A 
ATOM     33  O   UNL     1      47.788   4.596  15.516  0.00  0.00    +0.000 OA
ATOM     34  C   UNL     1      49.181   5.420  17.243  0.00  0.00    +0.000 A 
ATOM     35  H   UNL     1      47.240   2.766  17.072  0.00  0.00    +0.000 HD
ENDBRANCH  22  25
ENDBRANCH  20  21
ENDBRANCH   4  20
TORSDOF 8
ENDMDL
MODEL 4
REMARK VINA RESULT:    -7.644      1.840      2.083
REMARK INTER + INTRA:         -11.362
REMARK INTER:                 -10.504
REMARK INTRA:                  -0.858
REMARK UNBOUND:                -0.367
REMARK  Name = 
REMARK  8 active torsions:
REMARK  status: ('A' for Active; 'I' for Inactive)
REMARK    1  A    between atoms: N_1  and  C_2
REMARK    2  A    between atoms: C_2  and  C_3
REMARK    3  A    between atoms: C_3  and  N_4
REMARK    4  A    between atoms: C_3  and  C_11
REMARK    5  A    between atoms: C_5  and  C_7
REMARK    6  A    between atoms: C_14  and  C_15
REMARK    7  A    between atoms: C_15  and  N_16
REMARK    8  A    between atoms: C_17  and  C_19
REMARK                            x       y       z     vdW  Elec       q    Type
REMARK                         _______ _______ _______ _____ _____    ______ ____
ROOT
ATOM      1  C   UNL     1      45.533   4.689  11.780  0.00  0.00    +0.000 A 
ATOM      2  C   UNL     1      45.944   5.896  11.216  0.00  0.00    +0.000 A 
ATOM      3  C   UNL     1      46.912   6.666  11.868  0.00  0.00    +0.000 A 
ATOM      4  C   UNL     1      47.462   6.224  13.070  0.00  0.00    +0.000 A 
ATOM      5  C   UNL     1      46.987   5.021  13.571  0.00  0.00    +0.000 A 
ATOM      6  N   UNL     1      46.041   4.262  12.968  0.00  0.00    +0.000 NA
ENDROOT
BRANCH   1   7
ATOM      7  C   UNL     1      44.414   3.834  11.181  0.00  0.00    +0.000 C 
BRANCH   7   8
ATOM      8  N   UNL     1      44.950   3.061  10.054  0.00  0.00    +0.000 N 
ATOM      9  C   UNL     1      44.893   3.507   8.759  0.00  0.00    +0.000 C 
ATOM     10  O   UNL     1      44.353   4.546   8.404  0.00  0.00    +0.000 OA
ATOM     11  H   UNL     1      45.462   2.218  10.271  0.00  0.00    +0.000 HD
BRANCH   9  12
ATOM     12  C   UNL     1      45.593   2.629   7.794  0.00  0.00    +0.000 C 
ATOM     13  C   UNL     1      47.095   2.756   7.656  0.00  0.00    +0.000 C 
ATOM     14  C   UNL     1      46.198   3.182   6.540  0.00  0.00    +0.000 C 
ATOM     15  F   UNL     1      46.180   2.368   5.419  0.00  0.00    +0.000 F 
ENDBRANCH   9  12
ENDBRANCH   7   8
BRANCH   7  16
ATOM     16  C   UNL     1      43.677   2.880  12.167  0.00  0.00    +0.000 C 
BRANCH  16  17
ATOM     17  N   UNL     1      43.099   1.674  11.566  0.00  0.00    +0.000 NA
ATOM     18  H   UNL     1      42.594   1.930  10.719  0.00  0.00    +0.000 HD
ATOM     19  H   UNL     1      42.393   1.297  12.202  0.00  0.00    +0.000 HD
ENDBRANCH  16  17
ENDBRANCH   7  16
ENDBRANCH   1   7
BRANCH   4  20
ATOM     20  C   UNL     1      48.454   7.045  13.841  0.00  0.00    +0.000 C 
BRANCH  20  21
ATOM     21  N   UNL     1      48.252   6.874  15.260  0.00  0.00    +0.000 N 
ATOM     22  C   UNL     1      49.005   7.538  16.192  0.00  0.00    +0.000 C 
ATOM     23  O   UNL     1      49.859   8.361  15.873  0.00  0.00    +0.000 OA
ATOM     24  H   UNL     1      47.723   6.057  15.549  0.00  0.00    +0.000 HD
BRANCH  22  25
ATOM     25  C   UNL     1      48.691   7.257  17.599  0.00  0.00    +0.000 A 
ATOM     26  C   UNL     1      48.263   8.285  18.427  0.00  0.00    +0.000 A 
ATOM     27  S   UNL     1      47.885   7.776  20.011  0.00  0.00    +0.000 S 
ATOM     28  C   UNL     1      48.330   6.170  19.661  0.00  0.00    +0.000 A 
ATOM     29  N   UNL     1      48.261   5.204  20.616  0.00  0.00    +0.000 NA
ATOM     30  C   UNL     1      48.663   4.039  20.221  0.00  0.00    +0.000 A 
ATOM     31  N   UNL     1      49.118   3.753  18.963  0.00  0.00    +0.000 N 
ATOM     32  C   UNL     1      49.165   4.689  17.956  0.00  0.00    +0.000 A 
ATOM     33  O   UNL     1      49.516   4.385  16.823  0.00  0.00    +0.000 OA
ATOM     34  C   UNL     1      48.745   6.021  18.349  0.00  0.00    +0.000 A 
ATOM     35  H   UNL     1      49.404   2.816  18.719  0.00  0.00    +0.000 HD
ENDBRANCH  22  25
ENDBRANCH  20  21
ENDBRANCH   4  20
TORSDOF 8
ENDMDL
MODEL 5
REMARK VINA RESULT:    -7.489      2.310      2.755
REMARK INTER + INTRA:         -11.140
REMARK INTER:                 -10.266
REMARK INTRA:                  -0.874
REMARK UNBOUND:                -0.367
REMARK  Name = 
REMARK  8 active torsions:
REMARK  status: ('A' for Active; 'I' for Inactive)
REMARK    1  A    between atoms: N_1  and  C_2
REMARK    2  A    between atoms: C_2  and  C_3
REMARK    3  A    between atoms: C_3  and  N_4
REMARK    4  A    between atoms: C_3  and  C_11
REMARK    5  A    between atoms: C_5  and  C_7
REMARK    6  A    between atoms: C_14  and  C_15
REMARK    7  A    between atoms: C_15  and  N_16
REMARK    8  A    between atoms: C_17  and  C_19
REMARK                            x       y       z     vdW  Elec       q    Type
REMARK                         _______ _______ _______ _____ _____    ______ ____
ROOT
ATOM      1  C   UNL     1      45.254   4.895  11.569  0.00  0.00    +0.000 A 
ATOM      2  C   UNL     1      45.515   4.496  12.880  0.00  0.00    +0.000 A 
ATOM      3  C   UNL     1      46.429   5.220  13.651  0.00  0.00    +0.000 A 
ATOM      4  C   UNL     1      47.069   6.335  13.111  0.00  0.00    +0.000 A 
ATOM      5  C   UNL     1      46.765   6.654  11.795  0.00  0.00    +0.000 A 
ATOM      6  N   UNL     1      45.895   5.963  11.021  0.00  0.00    +0.000 NA
ENDROOT
BRANCH   1   7
ATOM      7  C   UNL     1      44.341   4.103  10.629  0.00  0.00    +0.000 C 
BRANCH   7   8
ATOM      8  N   UNL     1      45.150   3.142   9.871  0.00  0.00    +0.000 N 
ATOM      9  C   UNL     1      45.375   3.266   8.523  0.00  0.00    +0.000 C 
ATOM     10  O   UNL     1      44.893   4.139   7.815  0.00  0.00    +0.000 OA
ATOM     11  H   UNL     1      45.630   2.424  10.394  0.00  0.00    +0.000 HD
BRANCH   9  12
ATOM     12  C   UNL     1      46.310   2.256   7.979  0.00  0.00    +0.000 C 
ATOM     13  C   UNL     1      47.537   2.733   7.231  0.00  0.00    +0.000 C 
ATOM     14  C   UNL     1      46.436   2.033   6.502  0.00  0.00    +0.000 C 
ATOM     15  F   UNL     1      46.701   0.739   6.081  0.00  0.00    +0.000 F 
ENDBRANCH   9  12
ENDBRANCH   7   8
BRANCH   7  16
ATOM     16  C   UNL     1      43.142   3.367  11.296  0.00  0.00    +0.000 C 
BRANCH  16  17
ATOM     17  N   UNL     1      43.323   1.928  11.509  0.00  0.00    +0.000 NA
ATOM     18  H   UNL     1      44.306   1.738  11.703  0.00  0.00    +0.000 HD
ATOM     19  H   UNL     1      43.118   1.438  10.636  0.00  0.00    +0.000 HD
ENDBRANCH  16  17
ENDBRANCH   7  16
ENDBRANCH   1   7
BRANCH   4  20
ATOM     20  C   UNL     1      48.106   7.105  13.875  0.00  0.00    +0.000 C 
BRANCH  20  21
ATOM     21  N   UNL     1      48.036   6.782  15.279  0.00  0.00    +0.000 N 
ATOM     22  C   UNL     1      49.152   6.488  16.019  0.00  0.00    +0.000 C 
ATOM     23  O   UNL     1      50.282   6.537  15.541  0.00  0.00    +0.000 OA
ATOM     24  H   UNL     1      47.125   6.520  15.642  0.00  0.00    +0.000 HD
BRANCH  22  25
ATOM     25  C   UNL     1      48.925   6.170  17.435  0.00  0.00    +0.000 A 
ATOM     26  C   UNL     1      49.236   4.905  17.914  0.00  0.00    +0.000 A 
ATOM     27  S   UNL     1      48.968   4.723  19.590  0.00  0.00    +0.000 S 
ATOM     28  C   UNL     1      48.378   6.315  19.724  0.00  0.00    +0.000 A 
ATOM     29  N   UNL     1      47.949   6.800  20.921  0.00  0.00    +0.000 NA
ATOM     30  C   UNL     1      47.495   8.010  20.870  0.00  0.00    +0.000 A 
ATOM     31  N   UNL     1      47.438   8.778  19.739  0.00  0.00    +0.000 N 
ATOM     32  C   UNL     1      47.898   8.343  18.518  0.00  0.00    +0.000 A 
ATOM     33  O   UNL     1      47.893   9.078  17.538  0.00  0.00    +0.000 OA
ATOM     34  C   UNL     1      48.401   6.981  18.512  0.00  0.00    +0.000 A 
ATOM     35  H   UNL     1      47.082   9.722  19.773  0.00  0.00    +0.000 HD
ENDBRANCH  22  25
ENDBRANCH  20  21
ENDBRANCH   4  20
TORSDOF 8
ENDMDL
MODEL 6
REMARK VINA RESULT:    -6.862      3.819      5.394
REMARK INTER + INTRA:         -10.237
REMARK INTER:                  -9.422
REMARK INTRA:                  -0.815
REMARK UNBOUND:                -0.367
REMARK  Name = 
REMARK  8 active torsions:
REMARK  status: ('A' for Active; 'I' for Inactive)
REMARK    1  A    between atoms: N_1  and  C_2
REMARK    2  A    between atoms: C_2  and  C_3
REMARK    3  A    between atoms: C_3  and  N_4
REMARK    4  A    between atoms: C_3  and  C_11
REMARK    5  A    between atoms: C_5  and  C_7
REMARK    6  A    between atoms: C_14  and  C_15
REMARK    7  A    between atoms: C_15  and  N_16
REMARK    8  A    between atoms: C_17  and  C_19
REMARK                            x       y       z     vdW  Elec       q    Type
REMARK                         _______ _______ _______ _____ _____    ______ ____
ROOT
ATOM      1  C   UNL     1      47.354   5.666  14.079  0.00  0.00    +0.000 A 
ATOM      2  C   UNL     1      46.810   4.502  14.620  0.00  0.00    +0.000 A 
ATOM      3  C   UNL     1      47.262   4.043  15.861  0.00  0.00    +0.000 A 
ATOM      4  C   UNL     1      48.246   4.750  16.551  0.00  0.00    +0.000 A 
ATOM      5  C   UNL     1      48.746   5.889  15.935  0.00  0.00    +0.000 A 
ATOM      6  N   UNL     1      48.336   6.348  14.729  0.00  0.00    +0.000 NA
ENDROOT
BRANCH   1   7
ATOM      7  C   UNL     1      46.984   6.183  12.687  0.00  0.00    +0.000 C 
BRANCH   7   8
ATOM      8  N   UNL     1      45.722   5.565  12.264  0.00  0.00    +0.000 N 
ATOM      9  C   UNL     1      45.388   5.395  10.944  0.00  0.00    +0.000 C 
ATOM     10  O   UNL     1      46.063   5.782  10.001  0.00  0.00    +0.000 OA
ATOM     11  H   UNL     1      45.135   5.167  12.983  0.00  0.00    +0.000 HD
BRANCH   9  12
ATOM     12  C   UNL     1      44.126   4.648  10.740  0.00  0.00    +0.000 C 
ATOM     13  C   UNL     1      42.852   5.199  11.343  0.00  0.00    +0.000 C 
ATOM     14  C   UNL     1      43.453   3.938  11.875  0.00  0.00    +0.000 C 
ATOM     15  F   UNL     1      42.784   2.762  11.576  0.00  0.00    +0.000 F 
ENDBRANCH   9  12
ENDBRANCH   7   8
BRANCH   7  16
ATOM     16  C   UNL     1      46.886   7.730  12.533  0.00  0.00    +0.000 C 
BRANCH  16  17
ATOM     17  N   UNL     1      46.297   8.442  13.672  0.00  0.00    +0.000 NA
ATOM     18  H   UNL     1      46.885   8.306  14.493  0.00  0.00    +0.000 HD
ATOM     19  H   UNL     1      45.401   8.009  13.903  0.00  0.00    +0.000 HD
ENDBRANCH  16  17
ENDBRANCH   7  16
ENDBRANCH   1   7
BRANCH   4  20
ATOM     20  C   UNL     1      48.811   4.264  17.853  0.00  0.00    +0.000 C 
BRANCH  20  21
ATOM     21  N   UNL     1      50.185   3.858  17.683  0.00  0.00    +0.000 N 
ATOM     22  C   UNL     1      51.152   4.142  18.612  0.00  0.00    +0.000 C 
ATOM     23  O   UNL     1      50.893   4.708  19.670  0.00  0.00    +0.000 OA
ATOM     24  H   UNL     1      50.470   3.594  16.745  0.00  0.00    +0.000 HD
BRANCH  22  25
ATOM     25  C   UNL     1      52.509   3.673  18.298  0.00  0.00    +0.000 A 
ATOM     26  C   UNL     1      53.585   4.537  18.442  0.00  0.00    +0.000 A 
ATOM     27  S   UNL     1      55.093   3.817  18.095  0.00  0.00    +0.000 S 
ATOM     28  C   UNL     1      54.354   2.337  17.689  0.00  0.00    +0.000 A 
ATOM     29  N   UNL     1      55.100   1.277  17.276  0.00  0.00    +0.000 NA
ATOM     30  C   UNL     1      54.406   0.230  16.967  0.00  0.00    +0.000 A 
ATOM     31  N   UNL     1      53.043   0.144  17.040  0.00  0.00    +0.000 N 
ATOM     32  C   UNL     1      52.254   1.177  17.491  0.00  0.00    +0.000 A 
ATOM     33  O   UNL     1      51.042   1.047  17.607  0.00  0.00    +0.000 OA
ATOM     34  C   UNL     1      52.979   2.387  17.832  0.00  0.00    +0.000 A 
ATOM     35  H   UNL     1      52.565  -0.711  16.796  0.00  0.00    +0.000 HD
ENDBRANCH  22  25
ENDBRANCH  20  21
ENDBRANCH   4  20
TORSDOF 8
ENDMDL
MODEL 7
REMARK VINA RESULT:    -6.854      2.332      2.829
REMARK INTER + INTRA:         -10.226
REMARK INTER:                  -9.740
REMARK INTRA:                  -0.486
REMARK UNBOUND:                -0.367
REMARK  Name = 
REMARK  8 active torsions:
REMARK  status: ('A' for Active; 'I' for Inactive)
REMARK    1  A    between atoms: N_1  and  C_2
REMARK    2  A    between atoms: C_2  and  C_3
REMARK    3  A    between atoms: C_3  and  N_4
REMARK    4  A    between atoms: C_3  and  C_11
REMARK    5  A    between atoms: C_5  and  C_7
REMARK    6  A    between atoms: C_14  and  C_15
REMARK    7  A    between atoms: C_15  and  N_16
REMARK    8  A    between atoms: C_17  and  C_19
REMARK                            x       y       z     vdW  Elec       q    Type
REMARK                         _______ _______ _______ _____ _____    ______ ____
ROOT
ATOM      1  C   UNL     1      45.792   5.613  13.064  0.00  0.00    +0.000 A 
ATOM      2  C   UNL     1      46.640   4.867  13.883  0.00  0.00    +0.000 A 
ATOM      3  C   UNL     1      47.689   5.506  14.551  0.00  0.00    +0.000 A 
ATOM      4  C   UNL     1      47.880   6.879  14.400  0.00  0.00    +0.000 A 
ATOM      5  C   UNL     1      47.002   7.543  13.555  0.00  0.00    +0.000 A 
ATOM      6  N   UNL     1      45.987   6.948  12.886  0.00  0.00    +0.000 NA
ENDROOT
BRANCH   1   7
ATOM      7  C   UNL     1      44.681   4.977  12.226  0.00  0.00    +0.000 C 
BRANCH   7   8
ATOM      8  N   UNL     1      45.268   4.390  11.015  0.00  0.00    +0.000 N 
ATOM      9  C   UNL     1      44.631   4.411   9.801  0.00  0.00    +0.000 C 
ATOM     10  O   UNL     1      43.509   4.859   9.611  0.00  0.00    +0.000 OA
ATOM     11  H   UNL     1      46.217   4.051  11.077  0.00  0.00    +0.000 HD
BRANCH   9  12
ATOM     12  C   UNL     1      45.447   3.869   8.690  0.00  0.00    +0.000 C 
ATOM     13  C   UNL     1      44.750   3.100   7.588  0.00  0.00    +0.000 C 
ATOM     14  C   UNL     1      45.664   2.395   8.537  0.00  0.00    +0.000 C 
ATOM     15  F   UNL     1      46.886   1.987   8.026  0.00  0.00    +0.000 F 
ENDBRANCH   9  12
ENDBRANCH   7   8
BRANCH   7  16
ATOM     16  C   UNL     1      43.800   3.915  12.947  0.00  0.00    +0.000 C 
BRANCH  16  17
ATOM     17  N   UNL     1      44.002   2.527  12.517  0.00  0.00    +0.000 NA
ATOM     18  H   UNL     1      43.184   2.216  11.994  0.00  0.00    +0.000 HD
ATOM     19  H   UNL     1      44.042   1.929  13.344  0.00  0.00    +0.000 HD
ENDBRANCH  16  17
ENDBRANCH   7  16
ENDBRANCH   1   7
BRANCH   4  20
ATOM     20  C   UNL     1      49.030   7.598  15.043  0.00  0.00    +0.000 C 
BRANCH  20  21
ATOM     21  N   UNL     1      49.982   6.650  15.570  0.00  0.00    +0.000 N 
ATOM     22  C   UNL     1      49.990   6.278  16.888  0.00  0.00    +0.000 C 
ATOM     23  O   UNL     1      49.150   6.686  17.685  0.00  0.00    +0.000 OA
ATOM     24  H   UNL     1      50.806   6.471  15.005  0.00  0.00    +0.000 HD
BRANCH  22  25
ATOM     25  C   UNL     1      51.023   5.311  17.282  0.00  0.00    +0.000 A 
ATOM     26  C   UNL     1      52.271   5.765  17.688  0.00  0.00    +0.000 A 
ATOM     27  S   UNL     1      53.331   4.516  18.167  0.00  0.00    +0.000 S 
ATOM     28  C   UNL     1      52.176   3.319  17.799  0.00  0.00    +0.000 A 
ATOM     29  N   UNL     1      52.463   2.000  17.967  0.00  0.00    +0.000 NA
ATOM     30  C   UNL     1      51.508   1.202  17.615  0.00  0.00    +0.000 A 
ATOM     31  N   UNL     1      50.296   1.601  17.121  0.00  0.00    +0.000 N 
ATOM     32  C   UNL     1      49.950   2.924  16.973  0.00  0.00    +0.000 A 
ATOM     33  O   UNL     1      48.833   3.249  16.588  0.00  0.00    +0.000 OA
ATOM     34  C   UNL     1      50.993   3.865  17.333  0.00  0.00    +0.000 A 
ATOM     35  H   UNL     1      49.589   0.922  16.877  0.00  0.00    +0.000 HD
ENDBRANCH  22  25
ENDBRANCH  20  21
ENDBRANCH   4  20
TORSDOF 8
ENDMDL
MODEL 8
REMARK VINA RESULT:    -6.751      3.418      4.408
REMARK INTER + INTRA:         -10.078
REMARK INTER:                  -9.169
REMARK INTRA:                  -0.909
REMARK UNBOUND:                -0.367
REMARK  Name = 
REMARK  8 active torsions:
REMARK  status: ('A' for Active; 'I' for Inactive)
REMARK    1  A    between atoms: N_1  and  C_2
REMARK    2  A    between atoms: C_2  and  C_3
REMARK    3  A    between atoms: C_3  and  N_4
REMARK    4  A    between atoms: C_3  and  C_11
REMARK    5  A    between atoms: C_5  and  C_7
REMARK    6  A    between atoms: C_14  and  C_15
REMARK    7  A    between atoms: C_15  and  N_16
REMARK    8  A    between atoms: C_17  and  C_19
REMARK                            x       y       z     vdW  Elec       q    Type
REMARK                         _______ _______ _______ _____ _____    ______ ____
ROOT
ATOM      1  C   UNL     1      44.877   5.199  11.340  0.00  0.00    +0.000 A 
ATOM      2  C   UNL     1      44.235   6.382  10.974  0.00  0.00    +0.000 A 
ATOM      3  C   UNL     1      44.614   7.586  11.575  0.00  0.00    +0.000 A 
ATOM      4  C   UNL     1      45.630   7.600  12.530  0.00  0.00    +0.000 A 
ATOM      5  C   UNL     1      46.205   6.378  12.849  0.00  0.00    +0.000 A 
ATOM      6  N   UNL     1      45.849   5.196  12.292  0.00  0.00    +0.000 NA
ENDROOT
BRANCH   1   7
ATOM      7  C   UNL     1      44.459   3.830  10.800  0.00  0.00    +0.000 C 
BRANCH   7   8
ATOM      8  N   UNL     1      45.475   3.356   9.852  0.00  0.00    +0.000 N 
ATOM      9  C   UNL     1      45.437   3.661   8.516  0.00  0.00    +0.000 C 
ATOM     10  O   UNL     1      44.545   4.298   7.972  0.00  0.00    +0.000 OA
ATOM     11  H   UNL     1      46.275   2.872  10.233  0.00  0.00    +0.000 HD
BRANCH   9  12
ATOM     12  C   UNL     1      46.617   3.181   7.761  0.00  0.00    +0.000 C 
ATOM     13  C   UNL     1      46.427   2.734   6.327  0.00  0.00    +0.000 C 
ATOM     14  C   UNL     1      46.763   1.737   7.388  0.00  0.00    +0.000 C 
ATOM     15  F   UNL     1      48.048   1.220   7.362  0.00  0.00    +0.000 F 
ENDBRANCH   9  12
ENDBRANCH   7   8
BRANCH   7  16
ATOM     16  C   UNL     1      44.184   2.728  11.866  0.00  0.00    +0.000 C 
BRANCH  16  17
ATOM     17  N   UNL     1      42.953   1.954  11.672  0.00  0.00    +0.000 NA
ATOM     18  H   UNL     1      42.725   1.930  10.679  0.00  0.00    +0.000 HD
ATOM     19  H   UNL     1      42.180   2.451  12.119  0.00  0.00    +0.000 HD
ENDBRANCH  16  17
ENDBRANCH   7  16
ENDBRANCH   1   7
BRANCH   4  20
ATOM     20  C   UNL     1      46.026   8.854  13.252  0.00  0.00    +0.000 C 
BRANCH  20  21
ATOM     21  N   UNL     1      47.419   9.149  13.016  0.00  0.00    +0.000 N 
ATOM     22  C   UNL     1      48.338   9.202  14.031  0.00  0.00    +0.000 C 
ATOM     23  O   UNL     1      48.039   8.945  15.194  0.00  0.00    +0.000 OA
ATOM     24  H   UNL     1      47.650   9.575  12.124  0.00  0.00    +0.000 HD
BRANCH  22  25
ATOM     25  C   UNL     1      49.717   9.522  13.641  0.00  0.00    +0.000 A 
ATOM     26  C   UNL     1      50.371  10.591  14.238  0.00  0.00    +0.000 A 
ATOM     27  S   UNL     1      51.983  10.787  13.714  0.00  0.00    +0.000 S 
ATOM     28  C   UNL     1      51.848   9.480  12.630  0.00  0.00    +0.000 A 
ATOM     29  N   UNL     1      52.895   9.121  11.839  0.00  0.00    +0.000 NA
ATOM     30  C   UNL     1      52.641   8.136  11.040  0.00  0.00    +0.000 A 
ATOM     31  N   UNL     1      51.445   7.475  10.967  0.00  0.00    +0.000 N 
ATOM     32  C   UNL     1      50.375   7.778  11.776  0.00  0.00    +0.000 A 
ATOM     33  O   UNL     1      49.339   7.126  11.731  0.00  0.00    +0.000 OA
ATOM     34  C   UNL     1      50.597   8.892  12.679  0.00  0.00    +0.000 A 
ATOM     35  H   UNL     1      51.319   6.704  10.328  0.00  0.00    +0.000 HD
ENDBRANCH  22  25
ENDBRANCH  20  21
ENDBRANCH   4  20
TORSDOF 8
ENDMDL
MODEL 9
REMARK VINA RESULT:    -6.436      2.921      4.152
REMARK INTER + INTRA:          -9.625
REMARK INTER:                  -8.999
REMARK INTRA:                  -0.625
REMARK UNBOUND:                -0.367
REMARK  Name = 
REMARK  8 active torsions:
REMARK  status: ('A' for Active; 'I' for Inactive)
REMARK    1  A    between atoms: N_1  and  C_2
REMARK    2  A    between atoms: C_2  and  C_3
REMARK    3  A    between atoms: C_3  and  N_4
REMARK    4  A    between atoms: C_3  and  C_11
REMARK    5  A    between atoms: C_5  and  C_7
REMARK    6  A    between atoms: C_14  and  C_15
REMARK    7  A    between atoms: C_15  and  N_16
REMARK    8  A    between atoms: C_17  and  C_19
REMARK                            x       y       z     vdW  Elec       q    Type
REMARK                         _______ _______ _______ _____ _____    ______ ____
ROOT
ATOM      1  C   UNL     1      47.051   7.348  13.353  0.00  0.00    +0.000 A 
ATOM      2  C   UNL     1      47.787   6.306  13.917  0.00  0.00    +0.000 A 
ATOM      3  C   UNL     1      48.686   6.580  14.952  0.00  0.00    +0.000 A 
ATOM      4  C   UNL     1      48.839   7.885  15.417  0.00  0.00    +0.000 A 
ATOM      5  C   UNL     1      48.081   8.865  14.791  0.00  0.00    +0.000 A 
ATOM      6  N   UNL     1      47.214   8.630  13.778  0.00  0.00    +0.000 NA
ENDROOT
BRANCH   1   7
ATOM      7  C   UNL     1      46.118   7.149  12.156  0.00  0.00    +0.000 C 
BRANCH   7   8
ATOM      8  N   UNL     1      45.595   5.778  12.177  0.00  0.00    +0.000 N 
ATOM      9  C   UNL     1      45.444   5.027  11.039  0.00  0.00    +0.000 C 
ATOM     10  O   UNL     1      45.671   5.429   9.906  0.00  0.00    +0.000 OA
ATOM     11  H   UNL     1      45.438   5.354  13.080  0.00  0.00    +0.000 HD
BRANCH   9  12
ATOM     12  C   UNL     1      45.011   3.635  11.295  0.00  0.00    +0.000 C 
ATOM     13  C   UNL     1      44.112   2.958  10.283  0.00  0.00    +0.000 C 
ATOM     14  C   UNL     1      43.587   3.317  11.635  0.00  0.00    +0.000 C 
ATOM     15  F   UNL     1      43.367   2.265  12.510  0.00  0.00    +0.000 F 
ENDBRANCH   9  12
ENDBRANCH   7   8
BRANCH   7  16
ATOM     16  C   UNL     1      44.938   8.157  12.032  0.00  0.00    +0.000 C 
BRANCH  16  17
ATOM     17  N   UNL     1      43.867   7.767  11.109  0.00  0.00    +0.000 NA
ATOM     18  H   UNL     1      43.065   7.438  11.646  0.00  0.00    +0.000 HD
ATOM     19  H   UNL     1      44.180   6.962  10.564  0.00  0.00    +0.000 HD
ENDBRANCH  16  17
ENDBRANCH   7  16
ENDBRANCH   1   7
BRANCH   4  20
ATOM     20  C   UNL     1      49.838   8.240  16.479  0.00  0.00    +0.000 C 
BRANCH  20  21
ATOM     21  N   UNL     1      50.706   7.118  16.746  0.00  0.00    +0.000 N 
ATOM     22  C   UNL     1      50.558   6.327  17.855  0.00  0.00    +0.000 C 
ATOM     23  O   UNL     1      49.642   6.493  18.656  0.00  0.00    +0.000 OA
ATOM     24  H   UNL     1      51.584   7.091  16.238  0.00  0.00    +0.000 HD
BRANCH  22  25
ATOM     25  C   UNL     1      51.520   5.227  17.999  0.00  0.00    +0.000 A 
ATOM     26  C   UNL     1      52.808   5.493  18.444  0.00  0.00    +0.000 A 
ATOM     27  S   UNL     1      53.777   4.098  18.611  0.00  0.00    +0.000 S 
ATOM     28  C   UNL     1      52.524   3.093  18.044  0.00  0.00    +0.000 A 
ATOM     29  N   UNL     1      52.710   1.751  17.921  0.00  0.00    +0.000 NA
ATOM     30  C   UNL     1      51.688   1.116  17.445  0.00  0.00    +0.000 A 
ATOM     31  N   UNL     1      50.501   1.697  17.091  0.00  0.00    +0.000 N 
ATOM     32  C   UNL     1      50.256   3.043  17.237  0.00  0.00    +0.000 A 
ATOM     33  O   UNL     1      49.161   3.522  16.970  0.00  0.00    +0.000 OA
ATOM     34  C   UNL     1      51.378   3.809  17.747  0.00  0.00    +0.000 A 
ATOM     35  H   UNL     1      49.738   1.138  16.737  0.00  0.00    +0.000 HD
ENDBRANCH  22  25
ENDBRANCH  20  21
ENDBRANCH   4  20
TORSDOF 8
ENDMDL
