MODEL 1
REMARK VINA RESULT:    -8.791      0.000      0.000
REMARK INTER + INTRA:         -12.526
REMARK INTER:                 -11.875
REMARK INTRA:                  -0.652
REMARK UNBOUND:                -0.652
REMARK  Name = 
REMARK  7 active torsions:
REMARK  status: ('A' for Active; 'I' for Inactive)
REMARK    1  A    between atoms: C_1  and  C_2
REMARK    2  A    between atoms: C_2  and  N_3
REMARK    3  A    between atoms: C_2  and  C_16
REMARK    4  A    between atoms: C_4  and  C_6
REMARK    5  A    between atoms: C_19  and  O_20
REMARK    6  A    between atoms: O_20  and  C_21
REMARK    7  A    between atoms: C_21  and  C_22
REMARK                            x       y       z     vdW  Elec       q    Type
REMARK                         _______ _______ _______ _____ _____    ______ ____
ROOT
ATOM      1  C   UNL     1      45.539   8.769  12.883  0.00  0.00    +0.000 C 
ATOM      2  C   UNL     1      46.416   7.521  12.745  0.00  0.00    +0.000 C 
ENDROOT
BRANCH   2   3
ATOM      3  C   UNL     1      45.588   6.399  12.123  0.00  0.00    +0.000 A 
ATOM      4  C   UNL     1      44.471   6.670  11.326  0.00  0.00    +0.000 A 
ATOM      5  C   UNL     1      43.852   5.625  10.636  0.00  0.00    +0.000 A 
ATOM      6  C   UNL     1      44.353   4.335  10.754  0.00  0.00    +0.000 A 
ATOM      7  C   UNL     1      45.413   4.141  11.631  0.00  0.00    +0.000 A 
ATOM      8  N   UNL     1      46.042   5.133  12.301  0.00  0.00    +0.000 NA
BRANCH   6   9
ATOM      9  O   UNL     1      43.769   3.372   9.980  0.00  0.00    +0.000 OA
BRANCH   9  10
ATOM     10  C   UNL     1      44.520   2.153   9.873  0.00  0.00    +0.000 C 
BRANCH  10  11
ATOM     11  C   UNL     1      45.416   2.189   8.658  0.00  0.00    +0.000 A 
ATOM     12  C   UNL     1      45.526   3.363   7.913  0.00  0.00    +0.000 A 
ATOM     13  C   UNL     1      46.407   3.395   6.838  0.00  0.00    +0.000 A 
ATOM     14  C   UNL     1      47.153   2.262   6.536  0.00  0.00    +0.000 A 
ATOM     15  C   UNL     1      46.990   1.141   7.329  0.00  0.00    +0.000 A 
ATOM     16  N   UNL     1      46.148   1.079   8.383  0.00  0.00    +0.000 NA
ENDBRANCH  10  11
ENDBRANCH   9  10
ENDBRANCH   6   9
ENDBRANCH   2   3
BRANCH   2  17
ATOM     17  N   UNL     1      46.991   7.133  14.025  0.00  0.00    +0.000 N 
ATOM     18  C   UNL     1      48.284   6.670  14.132  0.00  0.00    +0.000 C 
ATOM     19  O   UNL     1      49.073   6.639  13.197  0.00  0.00    +0.000 OA
ATOM     20  H   UNL     1      46.321   6.826  14.722  0.00  0.00    +0.000 HD
BRANCH  18  21
ATOM     21  C   UNL     1      48.694   6.266  15.474  0.00  0.00    +0.000 A 
ATOM     22  C   UNL     1      49.676   6.974  16.158  0.00  0.00    +0.000 A 
ATOM     23  S   UNL     1      50.040   6.322  17.694  0.00  0.00    +0.000 S 
ATOM     24  C   UNL     1      48.915   5.064  17.488  0.00  0.00    +0.000 A 
ATOM     25  N   UNL     1      48.743   4.105  18.436  0.00  0.00    +0.000 NA
ATOM     26  C   UNL     1      47.862   3.208  18.137  0.00  0.00    +0.000 A 
ATOM     27  N   UNL     1      47.129   3.188  16.979  0.00  0.00    +0.000 N 
ATOM     28  C   UNL     1      47.250   4.150  16.011  0.00  0.00    +0.000 A 
ATOM     29  O   UNL     1      46.521   4.145  15.021  0.00  0.00    +0.000 OA
ATOM     30  C   UNL     1      48.246   5.159  16.284  0.00  0.00    +0.000 A 
ATOM     31  H   UNL     1      46.433   2.476  16.816  0.00  0.00    +0.000 HD
ENDBRANCH  18  21
ENDBRANCH   2  17
TORSDOF 6
ENDMDL
MODEL 2
REMARK VINA RESULT:    -8.426      1.711      2.029
REMARK INTER + INTRA:         -12.034
REMARK INTER:                 -11.070
REMARK INTRA:                  -0.963
REMARK UNBOUND:                -0.652
REMARK  Name = 
REMARK  7 active torsions:
REMARK  status: ('A' for Active; 'I' for Inactive)
REMARK    1  A    between atoms: C_1  and  C_2
REMARK    2  A    between atoms: C_2  and  N_3
REMARK    3  A    between atoms: C_2  and  C_16
REMARK    4  A    between atoms: C_4  and  C_6
REMARK    5  A    between atoms: C_19  and  O_20
REMARK    6  A    between atoms: O_20  and  C_21
REMARK    7  A    between atoms: C_21  and  C_22
REMARK                            x       y       z     vdW  Elec       q    Type
REMARK                         _______ _______ _______ _____ _____    ______ ____
ROOT
ATOM      1  C   UNL     1      48.430   8.004  12.722  0.00  0.00    +0.000 C 
ATOM      2  C   UNL     1      48.220   6.643  13.391  0.00  0.00    +0.000 C 
ENDROOT
BRANCH   2   3
ATOM      3  C   UNL     1      47.040   5.939  12.724  0.00  0.00    +0.000 A 
ATOM      4  C   UNL     1      46.436   6.455  11.573  0.00  0.00    +0.000 A 
ATOM      5  C   UNL     1      45.482   5.690  10.898  0.00  0.00    +0.000 A 
ATOM      6  C   UNL     1      45.146   4.432  11.382  0.00  0.00    +0.000 A 
ATOM      7  C   UNL     1      45.732   4.031  12.576  0.00  0.00    +0.000 A 
ATOM      8  N   UNL     1      46.669   4.742  13.244  0.00  0.00    +0.000 NA
BRANCH   6   9
ATOM      9  O   UNL     1      44.281   3.691  10.628  0.00  0.00    +0.000 OA
BRANCH   9  10
ATOM     10  C   UNL     1      44.269   4.023   9.231  0.00  0.00    +0.000 C 
BRANCH  10  11
ATOM     11  C   UNL     1      45.269   3.178   8.478  0.00  0.00    +0.000 A 
ATOM     12  C   UNL     1      46.153   3.782   7.585  0.00  0.00    +0.000 A 
ATOM     13  C   UNL     1      47.109   2.995   6.951  0.00  0.00    +0.000 A 
ATOM     14  C   UNL     1      47.159   1.634   7.226  0.00  0.00    +0.000 A 
ATOM     15  C   UNL     1      46.251   1.114   8.130  0.00  0.00    +0.000 A 
ATOM     16  N   UNL     1      45.314   1.852   8.765  0.00  0.00    +0.000 NA
ENDBRANCH  10  11
ENDBRANCH   9  10
ENDBRANCH   6   9
ENDBRANCH   2   3
BRANCH   2  17
ATOM     17  N   UNL     1      48.034   6.782  14.828  0.00  0.00    +0.000 N 
ATOM     18  C   UNL     1      49.091   6.722  15.709  0.00  0.00    +0.000 C 
ATOM     19  O   UNL     1      50.262   6.647  15.359  0.00  0.00    +0.000 OA
ATOM     20  H   UNL     1      47.118   6.511  15.172  0.00  0.00    +0.000 HD
BRANCH  18  21
ATOM     21  C   UNL     1      48.735   6.820  17.122  0.00  0.00    +0.000 A 
ATOM     22  C   UNL     1      48.318   8.031  17.665  0.00  0.00    +0.000 A 
ATOM     23  S   UNL     1      47.985   7.946  19.338  0.00  0.00    +0.000 S 
ATOM     24  C   UNL     1      48.404   6.300  19.395  0.00  0.00    +0.000 A 
ATOM     25  N   UNL     1      48.375   5.601  20.561  0.00  0.00    +0.000 NA
ATOM     26  C   UNL     1      48.728   4.363  20.452  0.00  0.00    +0.000 A 
ATOM     27  N   UNL     1      49.099   3.755  19.280  0.00  0.00    +0.000 N 
ATOM     28  C   UNL     1      49.114   4.414  18.080  0.00  0.00    +0.000 A 
ATOM     29  O   UNL     1      49.376   3.819  17.036  0.00  0.00    +0.000 OA
ATOM     30  C   UNL     1      48.757   5.812  18.153  0.00  0.00    +0.000 A 
ATOM     31  H   UNL     1      49.337   2.775  19.255  0.00  0.00    +0.000 HD
ENDBRANCH  18  21
ENDBRANCH   2  17
TORSDOF 6
ENDMDL
MODEL 3
REMARK VINA RESULT:    -8.071      2.728      3.974
REMARK INTER + INTRA:         -11.554
REMARK INTER:                 -10.557
REMARK INTRA:                  -0.997
REMARK UNBOUND:                -0.652
REMARK  Name = 
REMARK  7 active torsions:
REMARK  status: ('A' for Active; 'I' for Inactive)
REMARK    1  A    between atoms: C_1  and  C_2
REMARK    2  A    between atoms: C_2  and  N_3
REMARK    3  A    between atoms: C_2  and  C_16
REMARK    4  A    between atoms: C_4  and  C_6
REMARK    5  A    between atoms: C_19  and  O_20
REMARK    6  A    between atoms: O_20  and  C_21
REMARK    7  A    between atoms: C_21  and  C_22
REMARK                            x       y       z     vdW  Elec       q    Type
REMARK                         _______ _______ _______ _____ _____    ______ ____
ROOT
ATOM      1  C   UNL     1      47.137   4.404  14.885  0.00  0.00    +0.000 C 
ATOM      2  C   UNL     1      46.710   5.596  14.024  0.00  0.00    +0.000 C 
ENDROOT
BRANCH   2   3
ATOM      3  C   UNL     1      45.860   5.090  12.861  0.00  0.00    +0.000 A 
ATOM      4  C   UNL     1      45.887   5.714  11.610  0.00  0.00    +0.000 A 
ATOM      5  C   UNL     1      45.234   5.114  10.530  0.00  0.00    +0.000 A 
ATOM      6  C   UNL     1      44.567   3.911  10.717  0.00  0.00    +0.000 A 
ATOM      7  C   UNL     1      44.519   3.402  12.009  0.00  0.00    +0.000 A 
ATOM      8  N   UNL     1      45.154   3.951  13.070  0.00  0.00    +0.000 NA
BRANCH   6   9
ATOM      9  O   UNL     1      44.030   3.324   9.607  0.00  0.00    +0.000 OA
BRANCH   9  10
ATOM     10  C   UNL     1      44.569   2.030   9.295  0.00  0.00    +0.000 C 
BRANCH  10  11
ATOM     11  C   UNL     1      45.621   2.140   8.217  0.00  0.00    +0.000 A 
ATOM     12  C   UNL     1      45.706   3.301   7.450  0.00  0.00    +0.000 A 
ATOM     13  C   UNL     1      46.724   3.410   6.507  0.00  0.00    +0.000 A 
ATOM     14  C   UNL     1      47.626   2.363   6.357  0.00  0.00    +0.000 A 
ATOM     15  C   UNL     1      47.475   1.248   7.162  0.00  0.00    +0.000 A 
ATOM     16  N   UNL     1      46.502   1.115   8.090  0.00  0.00    +0.000 NA
ENDBRANCH  10  11
ENDBRANCH   9  10
ENDBRANCH   6   9
ENDBRANCH   2   3
BRANCH   2  17
ATOM     17  N   UNL     1      47.863   6.360  13.569  0.00  0.00    +0.000 N 
ATOM     18  C   UNL     1      47.833   7.733  13.464  0.00  0.00    +0.000 C 
ATOM     19  O   UNL     1      46.888   8.420  13.830  0.00  0.00    +0.000 OA
ATOM     20  H   UNL     1      48.501   5.855  12.962  0.00  0.00    +0.000 HD
BRANCH  18  21
ATOM     21  C   UNL     1      49.048   8.347  12.937  0.00  0.00    +0.000 A 
ATOM     22  C   UNL     1      49.009   9.116  11.778  0.00  0.00    +0.000 A 
ATOM     23  S   UNL     1      50.537   9.713  11.306  0.00  0.00    +0.000 S 
ATOM     24  C   UNL     1      51.303   8.951  12.619  0.00  0.00    +0.000 A 
ATOM     25  N   UNL     1      52.648   9.029  12.798  0.00  0.00    +0.000 NA
ATOM     26  C   UNL     1      53.089   8.392  13.832  0.00  0.00    +0.000 A 
ATOM     27  N   UNL     1      52.305   7.691  14.711  0.00  0.00    +0.000 N 
ATOM     28  C   UNL     1      50.943   7.612  14.586  0.00  0.00    +0.000 A 
ATOM     29  O   UNL     1      50.263   7.041  15.436  0.00  0.00    +0.000 OA
ATOM     30  C   UNL     1      50.404   8.282  13.425  0.00  0.00    +0.000 A 
ATOM     31  H   UNL     1      52.706   7.239  15.519  0.00  0.00    +0.000 HD
ENDBRANCH  18  21
ENDBRANCH   2  17
TORSDOF 6
ENDMDL
MODEL 4
REMARK VINA RESULT:    -7.537      2.733      7.860
REMARK INTER + INTRA:         -10.832
REMARK INTER:                  -9.519
REMARK INTRA:                  -1.313
REMARK UNBOUND:                -0.652
REMARK  Name = 
REMARK  7 active torsions:
REMARK  status: ('A' for Active; 'I' for Inactive)
REMARK    1  A    between atoms: C_1  and  C_2
REMARK    2  A    between atoms: C_2  and  N_3
REMARK    3  A    between atoms: C_2  and  C_16
REMARK    4  A    between atoms: C_4  and  C_6
REMARK    5  A    between atoms: C_19  and  O_20
REMARK    6  A    between atoms: O_20  and  C_21
REMARK    7  A    between atoms: C_21  and  C_22
REMARK                            x       y       z     vdW  Elec       q    Type
REMARK                         _______ _______ _______ _____ _____    ______ ____
ROOT
ATOM      1  C   UNL     1      49.235   7.826  11.354  0.00  0.00    +0.000 C 
ATOM      2  C   UNL     1      48.028   7.821  12.298  0.00  0.00    +0.000 C 
ENDROOT
BRANCH   2   3
ATOM      3  C   UNL     1      48.526   7.864  13.741  0.00  0.00    +0.000 A 
ATOM      4  C   UNL     1      47.907   8.667  14.704  0.00  0.00    +0.000 A 
ATOM      5  C   UNL     1      48.282   8.541  16.044  0.00  0.00    +0.000 A 
ATOM      6  C   UNL     1      49.263   7.624  16.397  0.00  0.00    +0.000 A 
ATOM      7  C   UNL     1      49.884   6.927  15.369  0.00  0.00    +0.000 A 
ATOM      8  N   UNL     1      49.534   7.016  14.065  0.00  0.00    +0.000 NA
BRANCH   6   9
ATOM      9  O   UNL     1      49.518   7.476  17.732  0.00  0.00    +0.000 OA
BRANCH   9  10
ATOM     10  C   UNL     1      48.476   6.818  18.470  0.00  0.00    +0.000 C 
BRANCH  10  11
ATOM     11  C   UNL     1      48.430   5.349  18.124  0.00  0.00    +0.000 A 
ATOM     12  C   UNL     1      47.228   4.772  17.717  0.00  0.00    +0.000 A 
ATOM     13  C   UNL     1      47.220   3.433  17.339  0.00  0.00    +0.000 A 
ATOM     14  C   UNL     1      48.406   2.710  17.376  0.00  0.00    +0.000 A 
ATOM     15  C   UNL     1      49.556   3.359  17.786  0.00  0.00    +0.000 A 
ATOM     16  N   UNL     1      49.598   4.658  18.153  0.00  0.00    +0.000 NA
ENDBRANCH  10  11
ENDBRANCH   9  10
ENDBRANCH   6   9
ENDBRANCH   2   3
BRANCH   2  17
ATOM     17  N   UNL     1      47.166   6.675  12.050  0.00  0.00    +0.000 N 
ATOM     18  C   UNL     1      45.792   6.778  12.071  0.00  0.00    +0.000 C 
ATOM     19  O   UNL     1      45.194   7.839  12.200  0.00  0.00    +0.000 OA
ATOM     20  H   UNL     1      47.574   5.773  12.273  0.00  0.00    +0.000 HD
BRANCH  18  21
ATOM     21  C   UNL     1      45.068   5.528  11.862  0.00  0.00    +0.000 A 
ATOM     22  C   UNL     1      44.333   4.953  12.894  0.00  0.00    +0.000 A 
ATOM     23  S   UNL     1      43.592   3.477  12.460  0.00  0.00    +0.000 S 
ATOM     24  C   UNL     1      44.242   3.547  10.891  0.00  0.00    +0.000 A 
ATOM     25  N   UNL     1      44.022   2.555   9.988  0.00  0.00    +0.000 NA
ATOM     26  C   UNL     1      44.587   2.740   8.840  0.00  0.00    +0.000 A 
ATOM     27  N   UNL     1      45.345   3.833   8.510  0.00  0.00    +0.000 N 
ATOM     28  C   UNL     1      45.567   4.868   9.378  0.00  0.00    +0.000 A 
ATOM     29  O   UNL     1      46.186   5.869   9.023  0.00  0.00    +0.000 OA
ATOM     30  C   UNL     1      44.982   4.694  10.687  0.00  0.00    +0.000 A 
ATOM     31  H   UNL     1      45.736   3.935   7.585  0.00  0.00    +0.000 HD
ENDBRANCH  18  21
ENDBRANCH   2  17
TORSDOF 6
ENDMDL
MODEL 5
REMARK VINA RESULT:    -7.518      3.189      7.881
REMARK INTER + INTRA:         -10.806
REMARK INTER:                  -9.775
REMARK INTRA:                  -1.031
REMARK UNBOUND:                -0.652
REMARK  Name = 
REMARK  7 active torsions:
REMARK  status: ('A' for Active; 'I' for Inactive)
REMARK    1  A    between atoms: C_1  and  C_2
REMARK    2  A    between atoms: C_2  and  N_3
REMARK    3  A    between atoms: C_2  and  C_16
REMARK    4  A    between atoms: C_4  and  C_6
REMARK    5  A    between atoms: C_19  and  O_20
REMARK    6  A    between atoms: O_20  and  C_21
REMARK    7  A    between atoms: C_21  and  C_22
REMARK                            x       y       z     vdW  Elec       q    Type
REMARK                         _______ _______ _______ _____ _____    ______ ____
ROOT
ATOM      1  C   UNL     1      49.239   8.523  11.682  0.00  0.00    +0.000 C 
ATOM      2  C   UNL     1      48.225   7.796  12.570  0.00  0.00    +0.000 C 
ENDROOT
BRANCH   2   3
ATOM      3  C   UNL     1      48.944   7.256  13.805  0.00  0.00    +0.000 A 
ATOM      4  C   UNL     1      50.200   7.734  14.187  0.00  0.00    +0.000 A 
ATOM      5  C   UNL     1      50.739   7.342  15.415  0.00  0.00    +0.000 A 
ATOM      6  C   UNL     1      50.020   6.483  16.234  0.00  0.00    +0.000 A 
ATOM      7  C   UNL     1      48.818   5.989  15.742  0.00  0.00    +0.000 A 
ATOM      8  N   UNL     1      48.264   6.361  14.566  0.00  0.00    +0.000 NA
BRANCH   6   9
ATOM      9  O   UNL     1      50.551   6.212  17.464  0.00  0.00    +0.000 OA
BRANCH   9  10
ATOM     10  C   UNL     1      49.937   5.112  18.152  0.00  0.00    +0.000 C 
BRANCH  10  11
ATOM     11  C   UNL     1      50.675   3.827  17.860  0.00  0.00    +0.000 A 
ATOM     12  C   UNL     1      51.977   3.655  18.328  0.00  0.00    +0.000 A 
ATOM     13  C   UNL     1      52.616   2.439  18.106  0.00  0.00    +0.000 A 
ATOM     14  C   UNL     1      51.941   1.431  17.428  0.00  0.00    +0.000 A 
ATOM     15  C   UNL     1      50.648   1.680  17.003  0.00  0.00    +0.000 A 
ATOM     16  N   UNL     1      50.000   2.847  17.207  0.00  0.00    +0.000 NA
ENDBRANCH  10  11
ENDBRANCH   9  10
ENDBRANCH   6   9
ENDBRANCH   2   3
BRANCH   2  17
ATOM     17  N   UNL     1      47.533   6.747  11.835  0.00  0.00    +0.000 N 
ATOM     18  C   UNL     1      46.201   6.848  11.501  0.00  0.00    +0.000 C 
ATOM     19  O   UNL     1      45.526   7.849  11.702  0.00  0.00    +0.000 OA
ATOM     20  H   UNL     1      47.921   5.816  11.948  0.00  0.00    +0.000 HD
BRANCH  18  21
ATOM     21  C   UNL     1      45.638   5.687  10.816  0.00  0.00    +0.000 A 
ATOM     22  C   UNL     1      45.786   5.535   9.442  0.00  0.00    +0.000 A 
ATOM     23  S   UNL     1      45.025   4.136   8.827  0.00  0.00    +0.000 S 
ATOM     24  C   UNL     1      44.457   3.699  10.369  0.00  0.00    +0.000 A 
ATOM     25  N   UNL     1      43.688   2.593  10.555  0.00  0.00    +0.000 NA
ATOM     26  C   UNL     1      43.323   2.395  11.778  0.00  0.00    +0.000 A 
ATOM     27  N   UNL     1      43.665   3.195  12.837  0.00  0.00    +0.000 N 
ATOM     28  C   UNL     1      44.462   4.301  12.699  0.00  0.00    +0.000 A 
ATOM     29  O   UNL     1      44.814   4.951  13.681  0.00  0.00    +0.000 OA
ATOM     30  C   UNL     1      44.871   4.585  11.343  0.00  0.00    +0.000 A 
ATOM     31  H   UNL     1      43.373   2.970  13.776  0.00  0.00    +0.000 HD
ENDBRANCH  18  21
ENDBRANCH   2  17
TORSDOF 6
ENDMDL
MODEL 6
REMARK VINA RESULT:    -7.508      2.054      3.761
REMARK INTER + INTRA:         -10.794
REMARK INTER:                 -10.301
REMARK INTRA:                  -0.493
REMARK UNBOUND:                -0.652
REMARK  Name = 
REMARK  7 active torsions:
REMARK  status: ('A' for Active; 'I' for Inactive)
REMARK    1  A    between atoms: C_1  and  C_2
REMARK    2  A    between atoms: C_2  and  N_3
REMARK    3  A    between atoms: C_2  and  C_16
REMARK    4  A    between atoms: C_4  and  C_6
REMARK    5  A    between atoms: C_19  and  O_20
REMARK    6  A    between atoms: O_20  and  C_21
REMARK    7  A    between atoms: C_21  and  C_22
REMARK                            x       y       z     vdW  Elec       q    Type
REMARK                         _______ _______ _______ _____ _____    ______ ____
ROOT
ATOM      1  C   UNL     1      47.393   3.444  14.716  0.00  0.00    +0.000 C 
ATOM      2  C   UNL     1      46.572   4.722  14.513  0.00  0.00    +0.000 C 
ENDROOT
BRANCH   2   3
ATOM      3  C   UNL     1      45.777   4.600  13.215  0.00  0.00    +0.000 A 
ATOM      4  C   UNL     1      45.865   5.569  12.211  0.00  0.00    +0.000 A 
ATOM      5  C   UNL     1      45.262   5.329  10.973  0.00  0.00    +0.000 A 
ATOM      6  C   UNL     1      44.584   4.137  10.762  0.00  0.00    +0.000 A 
ATOM      7  C   UNL     1      44.474   3.266  11.838  0.00  0.00    +0.000 A 
ATOM      8  N   UNL     1      45.059   3.462  13.042  0.00  0.00    +0.000 NA
BRANCH   6   9
ATOM      9  O   UNL     1      44.100   3.916   9.503  0.00  0.00    +0.000 OA
BRANCH   9  10
ATOM     10  C   UNL     1      44.957   4.370   8.444  0.00  0.00    +0.000 C 
BRANCH  10  11
ATOM     11  C   UNL     1      45.754   3.219   7.878  0.00  0.00    +0.000 A 
ATOM     12  C   UNL     1      46.634   3.440   6.820  0.00  0.00    +0.000 A 
ATOM     13  C   UNL     1      47.408   2.380   6.357  0.00  0.00    +0.000 A 
ATOM     14  C   UNL     1      47.284   1.135   6.961  0.00  0.00    +0.000 A 
ATOM     15  C   UNL     1      46.393   1.001   8.010  0.00  0.00    +0.000 A 
ATOM     16  N   UNL     1      45.632   2.010   8.486  0.00  0.00    +0.000 NA
ENDBRANCH  10  11
ENDBRANCH   9  10
ENDBRANCH   6   9
ENDBRANCH   2   3
BRANCH   2  17
ATOM     17  N   UNL     1      47.421   5.904  14.528  0.00  0.00    +0.000 N 
ATOM     18  C   UNL     1      48.291   6.164  15.563  0.00  0.00    +0.000 C 
ATOM     19  O   UNL     1      48.493   5.390  16.490  0.00  0.00    +0.000 OA
ATOM     20  H   UNL     1      47.065   6.696  14.002  0.00  0.00    +0.000 HD
BRANCH  18  21
ATOM     21  C   UNL     1      49.030   7.420  15.460  0.00  0.00    +0.000 A 
ATOM     22  C   UNL     1      49.218   8.225  16.578  0.00  0.00    +0.000 A 
ATOM     23  S   UNL     1      50.073   9.665  16.242  0.00  0.00    +0.000 S 
ATOM     24  C   UNL     1      50.201   9.271  14.593  0.00  0.00    +0.000 A 
ATOM     25  N   UNL     1      50.803  10.109  13.708  0.00  0.00    +0.000 NA
ATOM     26  C   UNL     1      50.816   9.681  12.489  0.00  0.00    +0.000 A 
ATOM     27  N   UNL     1      50.292   8.485  12.075  0.00  0.00    +0.000 N 
ATOM     28  C   UNL     1      49.703   7.598  12.937  0.00  0.00    +0.000 A 
ATOM     29  O   UNL     1      49.314   6.500  12.544  0.00  0.00    +0.000 OA
ATOM     30  C   UNL     1      49.635   8.044  14.309  0.00  0.00    +0.000 A 
ATOM     31  H   UNL     1      50.360   8.192  11.111  0.00  0.00    +0.000 HD
ENDBRANCH  18  21
ENDBRANCH   2  17
TORSDOF 6
ENDMDL
MODEL 7
REMARK VINA RESULT:    -7.481      3.027      8.181
REMARK INTER + INTRA:         -10.757
REMARK INTER:                  -9.653
REMARK INTRA:                  -1.103
REMARK UNBOUND:                -0.652
REMARK  Name = 
REMARK  7 active torsions:
REMARK  status: ('A' for Active; 'I' for Inactive)
REMARK    1  A    between atoms: C_1  and  C_2
REMARK    2  A    between atoms: C_2  and  N_3
REMARK    3  A    between atoms: C_2  and  C_16
REMARK    4  A    between atoms: C_4  and  C_6
REMARK    5  A    between atoms: C_19  and  O_20
REMARK    6  A    between atoms: O_20  and  C_21
REMARK    7  A    between atoms: C_21  and  C_22
REMARK                            x       y       z     vdW  Elec       q    Type
REMARK                         _______ _______ _______ _____ _____    ______ ____
ROOT
ATOM      1  C   UNL     1      48.968   7.790  11.390  0.00  0.00    +0.000 C 
ATOM      2  C   UNL     1      47.909   7.487  12.454  0.00  0.00    +0.000 C 
ENDROOT
BRANCH   2   3
ATOM      3  C   UNL     1      48.604   7.261  13.795  0.00  0.00    +0.000 A 
ATOM      4  C   UNL     1      48.017   6.486  14.800  0.00  0.00    +0.000 A 
ATOM      5  C   UNL     1      48.762   6.160  15.937  0.00  0.00    +0.000 A 
ATOM      6  C   UNL     1      50.069   6.612  16.051  0.00  0.00    +0.000 A 
ATOM      7  C   UNL     1      50.546   7.445  15.047  0.00  0.00    +0.000 A 
ATOM      8  N   UNL     1      49.856   7.766  13.928  0.00  0.00    +0.000 NA
BRANCH   6   9
ATOM      9  O   UNL     1      50.779   6.182  17.136  0.00  0.00    +0.000 OA
BRANCH   9  10
ATOM     10  C   UNL     1      50.132   5.158  17.907  0.00  0.00    +0.000 C 
BRANCH  10  11
ATOM     11  C   UNL     1      50.864   3.845  17.765  0.00  0.00    +0.000 A 
ATOM     12  C   UNL     1      52.167   3.724  18.246  0.00  0.00    +0.000 A 
ATOM     13  C   UNL     1      52.800   2.487  18.165  0.00  0.00    +0.000 A 
ATOM     14  C   UNL     1      52.119   1.410  17.611  0.00  0.00    +0.000 A 
ATOM     15  C   UNL     1      50.826   1.613  17.163  0.00  0.00    +0.000 A 
ATOM     16  N   UNL     1      50.182   2.799  17.232  0.00  0.00    +0.000 NA
ENDBRANCH  10  11
ENDBRANCH   9  10
ENDBRANCH   6   9
ENDBRANCH   2   3
BRANCH   2  17
ATOM     17  N   UNL     1      47.080   6.354  12.068  0.00  0.00    +0.000 N 
ATOM     18  C   UNL     1      45.704   6.422  12.075  0.00  0.00    +0.000 C 
ATOM     19  O   UNL     1      45.077   7.448  12.307  0.00  0.00    +0.000 OA
ATOM     20  H   UNL     1      47.507   5.443  12.201  0.00  0.00    +0.000 HD
BRANCH  18  21
ATOM     21  C   UNL     1      45.015   5.185  11.720  0.00  0.00    +0.000 A 
ATOM     22  C   UNL     1      44.253   4.502  12.662  0.00  0.00    +0.000 A 
ATOM     23  S   UNL     1      43.560   3.062  12.061  0.00  0.00    +0.000 S 
ATOM     24  C   UNL     1      44.270   3.291  10.533  0.00  0.00    +0.000 A 
ATOM     25  N   UNL     1      44.106   2.386   9.532  0.00  0.00    +0.000 NA
ATOM     26  C   UNL     1      44.712   2.689   8.432  0.00  0.00    +0.000 A 
ATOM     27  N   UNL     1      45.459   3.821   8.237  0.00  0.00    +0.000 N 
ATOM     28  C   UNL     1      45.626   4.773   9.208  0.00  0.00    +0.000 A 
ATOM     29  O   UNL     1      46.237   5.814   8.974  0.00  0.00    +0.000 OA
ATOM     30  C   UNL     1      44.993   4.465  10.470  0.00  0.00    +0.000 A 
ATOM     31  H   UNL     1      45.884   4.017   7.343  0.00  0.00    +0.000 HD
ENDBRANCH  18  21
ENDBRANCH   2  17
TORSDOF 6
ENDMDL
MODEL 8
REMARK VINA RESULT:    -7.123      4.471      8.540
REMARK INTER + INTRA:         -10.274
REMARK INTER:                  -9.962
REMARK INTRA:                  -0.312
REMARK UNBOUND:                -0.652
REMARK  Name = 
REMARK  7 active torsions:
REMARK  status: ('A' for Active; 'I' for Inactive)
REMARK    1  A    between atoms: C_1  and  C_2
REMARK    2  A    between atoms: C_2  and  N_3
REMARK    3  A    between atoms: C_2  and  C_16
REMARK    4  A    between atoms: C_4  and  C_6
REMARK    5  A    between atoms: C_19  and  O_20
REMARK    6  A    between atoms: O_20  and  C_21
REMARK    7  A    between atoms: C_21  and  C_22
REMARK                            x       y       z     vdW  Elec       q    Type
REMARK                         _______ _______ _______ _____ _____    ______ ____
ROOT
ATOM      1  C   UNL     1      49.744   7.193  16.745  0.00  0.00    +0.000 C 
ATOM      2  C   UNL     1      48.803   5.993  16.889  0.00  0.00    +0.000 C 
ENDROOT
BRANCH   2   3
ATOM      3  C   UNL     1      49.636   4.717  16.985  0.00  0.00    +0.000 A 
ATOM      4  C   UNL     1      50.964   4.743  17.419  0.00  0.00    +0.000 A 
ATOM      5  C   UNL     1      51.630   3.538  17.661  0.00  0.00    +0.000 A 
ATOM      6  C   UNL     1      50.963   2.336  17.463  0.00  0.00    +0.000 A 
ATOM      7  C   UNL     1      49.673   2.400  16.951  0.00  0.00    +0.000 A 
ATOM      8  N   UNL     1      48.998   3.549  16.722  0.00  0.00    +0.000 NA
BRANCH   6   9
ATOM      9  O   UNL     1      51.631   1.195  17.808  0.00  0.00    +0.000 OA
BRANCH   9  10
ATOM     10  C   UNL     1      53.031   1.378  18.070  0.00  0.00    +0.000 C 
BRANCH  10  11
ATOM     11  C   UNL     1      53.790   0.100  17.801  0.00  0.00    +0.000 A 
ATOM     12  C   UNL     1      54.328  -0.132  16.536  0.00  0.00    +0.000 A 
ATOM     13  C   UNL     1      55.080  -1.284  16.327  0.00  0.00    +0.000 A 
ATOM     14  C   UNL     1      55.277  -2.168  17.381  0.00  0.00    +0.000 A 
ATOM     15  C   UNL     1      54.715  -1.860  18.607  0.00  0.00    +0.000 A 
ATOM     16  N   UNL     1      53.984  -0.748  18.843  0.00  0.00    +0.000 NA
ENDBRANCH  10  11
ENDBRANCH   9  10
ENDBRANCH   6   9
ENDBRANCH   2   3
BRANCH   2  17
ATOM     17  N   UNL     1      47.841   5.940  15.797  0.00  0.00    +0.000 N 
ATOM     18  C   UNL     1      48.180   6.296  14.510  0.00  0.00    +0.000 C 
ATOM     19  O   UNL     1      49.318   6.587  14.164  0.00  0.00    +0.000 OA
ATOM     20  H   UNL     1      46.870   6.040  16.074  0.00  0.00    +0.000 HD
BRANCH  18  21
ATOM     21  C   UNL     1      47.090   6.245  13.540  0.00  0.00    +0.000 A 
ATOM     22  C   UNL     1      46.608   7.410  12.953  0.00  0.00    +0.000 A 
ATOM     23  S   UNL     1      45.310   7.143  11.877  0.00  0.00    +0.000 S 
ATOM     24  C   UNL     1      45.335   5.469  12.173  0.00  0.00    +0.000 A 
ATOM     25  N   UNL     1      44.442   4.631  11.583  0.00  0.00    +0.000 NA
ATOM     26  C   UNL     1      44.576   3.388  11.911  0.00  0.00    +0.000 A 
ATOM     27  N   UNL     1      45.531   2.904  12.768  0.00  0.00    +0.000 N 
ATOM     28  C   UNL     1      46.468   3.709  13.360  0.00  0.00    +0.000 A 
ATOM     29  O   UNL     1      47.358   3.231  14.060  0.00  0.00    +0.000 OA
ATOM     30  C   UNL     1      46.340   5.114  13.050  0.00  0.00    +0.000 A 
ATOM     31  H   UNL     1      45.604   1.917  12.961  0.00  0.00    +0.000 HD
ENDBRANCH  18  21
ENDBRANCH   2  17
TORSDOF 6
ENDMDL
MODEL 9
REMARK VINA RESULT:    -6.757      2.975      8.931
REMARK INTER + INTRA:          -9.779
REMARK INTER:                  -8.712
REMARK INTRA:                  -1.067
REMARK UNBOUND:                -0.652
REMARK  Name = 
REMARK  7 active torsions:
REMARK  status: ('A' for Active; 'I' for Inactive)
REMARK    1  A    between atoms: C_1  and  C_2
REMARK    2  A    between atoms: C_2  and  N_3
REMARK    3  A    between atoms: C_2  and  C_16
REMARK    4  A    between atoms: C_4  and  C_6
REMARK    5  A    between atoms: C_19  and  O_20
REMARK    6  A    between atoms: O_20  and  C_21
REMARK    7  A    between atoms: C_21  and  C_22
REMARK                            x       y       z     vdW  Elec       q    Type
REMARK                         _______ _______ _______ _____ _____    ______ ____
ROOT
ATOM      1  C   UNL     1      48.391   8.092  11.791  0.00  0.00    +0.000 C 
ATOM      2  C   UNL     1      47.607   7.415  12.919  0.00  0.00    +0.000 C 
ENDROOT
BRANCH   2   3
ATOM      3  C   UNL     1      48.577   7.024  14.032  0.00  0.00    +0.000 A 
ATOM      4  C   UNL     1      49.796   7.685  14.204  0.00  0.00    +0.000 A 
ATOM      5  C   UNL     1      50.568   7.416  15.338  0.00  0.00    +0.000 A 
ATOM      6  C   UNL     1      50.113   6.496  16.272  0.00  0.00    +0.000 A 
ATOM      7  C   UNL     1      48.932   5.823  15.982  0.00  0.00    +0.000 A 
ATOM      8  N   UNL     1      48.156   6.072  14.903  0.00  0.00    +0.000 NA
BRANCH   6   9
ATOM      9  O   UNL     1      50.861   6.346  17.406  0.00  0.00    +0.000 OA
BRANCH   9  10
ATOM     10  C   UNL     1      50.615   7.333  18.419  0.00  0.00    +0.000 C 
BRANCH  10  11
ATOM     11  C   UNL     1      49.604   6.824  19.420  0.00  0.00    +0.000 A 
ATOM     12  C   UNL     1      48.492   7.602  19.738  0.00  0.00    +0.000 A 
ATOM     13  C   UNL     1      47.539   7.087  20.610  0.00  0.00    +0.000 A 
ATOM     14  C   UNL     1      47.719   5.814  21.139  0.00  0.00    +0.000 A 
ATOM     15  C   UNL     1      48.847   5.104  20.767  0.00  0.00    +0.000 A 
ATOM     16  N   UNL     1      49.787   5.574  19.918  0.00  0.00    +0.000 NA
ENDBRANCH  10  11
ENDBRANCH   9  10
ENDBRANCH   6   9
ENDBRANCH   2   3
BRANCH   2  17
ATOM     17  N   UNL     1      46.850   6.273  12.426  0.00  0.00    +0.000 N 
ATOM     18  C   UNL     1      45.491   6.338  12.212  0.00  0.00    +0.000 C 
ATOM     19  O   UNL     1      44.836   7.367  12.321  0.00  0.00    +0.000 OA
ATOM     20  H   UNL     1      47.250   5.366  12.642  0.00  0.00    +0.000 HD
BRANCH  18  21
ATOM     21  C   UNL     1      44.866   5.093  11.773  0.00  0.00    +0.000 A 
ATOM     22  C   UNL     1      44.085   4.346  12.648  0.00  0.00    +0.000 A 
ATOM     23  S   UNL     1      43.477   2.908  11.956  0.00  0.00    +0.000 S 
ATOM     24  C   UNL     1      44.251   3.225  10.476  0.00  0.00    +0.000 A 
ATOM     25  N   UNL     1      44.171   2.357   9.433  0.00  0.00    +0.000 NA
ATOM     26  C   UNL     1      44.818   2.727   8.378  0.00  0.00    +0.000 A 
ATOM     27  N   UNL     1      45.531   3.892   8.265  0.00  0.00    +0.000 N 
ATOM     28  C   UNL     1      45.613   4.808   9.280  0.00  0.00    +0.000 A 
ATOM     29  O   UNL     1      46.196   5.879   9.119  0.00  0.00    +0.000 OA
ATOM     30  C   UNL     1      44.932   4.426  10.496  0.00  0.00    +0.000 A 
ATOM     31  H   UNL     1      45.991   4.140   7.402  0.00  0.00    +0.000 HD
ENDBRANCH  18  21
ENDBRANCH   2  17
TORSDOF 6
ENDMDL
