MODEL 1
REMARK VINA RESULT:    -8.099      0.000      0.000
REMARK INTER + INTRA:         -11.349
REMARK INTER:                 -10.466
REMARK INTRA:                  -0.883
REMARK UNBOUND:                -0.883
REMARK  Name = 
REMARK  5 active torsions:
REMARK  status: ('A' for Active; 'I' for Inactive)
REMARK    1  A    between atoms: C_2  and  C_20
REMARK    2  A    between atoms: N_3  and  C_4
REMARK    3  A    between atoms: C_4  and  C_5
REMARK    4  A    between atoms: C_8  and  C_9
REMARK    5  A    between atoms: C_9  and  C_12
REMARK                            x       y       z     vdW  Elec       q    Type
REMARK                         _______ _______ _______ _____ _____    ______ ____
ROOT
ATOM      1  C   UNL     1      48.011   6.912  13.953  0.00  0.00    +0.000 C 
ENDROOT
BRANCH   1   2
ATOM      2  C   UNL     1      47.010   6.199  13.073  0.00  0.00    +0.000 A 
ATOM      3  C   UNL     1      46.592   6.821  11.890  0.00  0.00    +0.000 A 
ATOM      4  C   UNL     1      45.703   6.190  11.013  0.00  0.00    +0.000 A 
ATOM      5  C   UNL     1      45.229   4.897  11.288  0.00  0.00    +0.000 A 
ATOM      6  C   UNL     1      45.626   4.287  12.489  0.00  0.00    +0.000 A 
ATOM      7  C   UNL     1      46.489   4.936  13.382  0.00  0.00    +0.000 A 
BRANCH   5   8
ATOM      8  C   UNL     1      44.324   4.127  10.322  0.00  0.00    +0.000 C 
ATOM      9  F   UNL     1      43.618   3.157  10.995  0.00  0.00    +0.000 F 
ATOM     10  F   UNL     1      43.337   4.957   9.845  0.00  0.00    +0.000 F 
BRANCH   8  11
ATOM     11  C   UNL     1      45.119   3.511   9.169  0.00  0.00    +0.000 A 
ATOM     12  C   UNL     1      45.354   2.139   9.171  0.00  0.00    +0.000 A 
ATOM     13  N   UNL     1      46.117   1.517   8.239  0.00  0.00    +0.000 NA
ATOM     14  C   UNL     1      46.631   2.317   7.280  0.00  0.00    +0.000 A 
ATOM     15  C   UNL     1      46.372   3.675   7.235  0.00  0.00    +0.000 A 
ATOM     16  N   UNL     1      45.622   4.303   8.172  0.00  0.00    +0.000 NA
ENDBRANCH   8  11
ENDBRANCH   5   8
ENDBRANCH   1   2
BRANCH   1  19
ATOM     17  O   UNL     1      50.233   6.476  15.674  0.00  0.00    +0.000 OA
ATOM     18  C   UNL     1      49.092   6.324  16.092  0.00  0.00    +0.000 C 
ATOM     19  N   UNL     1      47.974   6.480  15.321  0.00  0.00    +0.000 N 
ATOM     20  H   UNL     1      47.065   6.515  15.758  0.00  0.00    +0.000 HD
BRANCH  18  21
ATOM     21  C   UNL     1      48.824   5.911  17.472  0.00  0.00    +0.000 A 
ATOM     22  C   UNL     1      49.043   4.610  17.904  0.00  0.00    +0.000 A 
ATOM     23  S   UNL     1      48.650   4.385  19.553  0.00  0.00    +0.000 S 
ATOM     24  C   UNL     1      48.204   6.020  19.731  0.00  0.00    +0.000 A 
ATOM     25  N   UNL     1      47.777   6.517  20.917  0.00  0.00    +0.000 NA
ATOM     26  C   UNL     1      47.501   7.776  20.904  0.00  0.00    +0.000 A 
ATOM     27  N   UNL     1      47.607   8.595  19.800  0.00  0.00    +0.000 N 
ATOM     28  C   UNL     1      47.952   8.123  18.582  0.00  0.00    +0.000 A 
ATOM     29  O   UNL     1      47.866   8.852  17.596  0.00  0.00    +0.000 OA
ATOM     30  C   UNL     1      48.327   6.724  18.549  0.00  0.00    +0.000 A 
ATOM     31  H   UNL     1      47.314   9.558  19.838  0.00  0.00    +0.000 HD
ENDBRANCH  18  21
ENDBRANCH   1  19
TORSDOF 5
ENDMDL
MODEL 2
REMARK VINA RESULT:    -7.965      1.332      2.018
REMARK INTER + INTRA:         -11.176
REMARK INTER:                 -10.487
REMARK INTRA:                  -0.689
REMARK UNBOUND:                -0.883
REMARK  Name = 
REMARK  5 active torsions:
REMARK  status: ('A' for Active; 'I' for Inactive)
REMARK    1  A    between atoms: C_2  and  C_20
REMARK    2  A    between atoms: N_3  and  C_4
REMARK    3  A    between atoms: C_4  and  C_5
REMARK    4  A    between atoms: C_8  and  C_9
REMARK    5  A    between atoms: C_9  and  C_12
REMARK                            x       y       z     vdW  Elec       q    Type
REMARK                         _______ _______ _______ _____ _____    ______ ____
ROOT
ATOM      1  C   UNL     1      48.300   7.131  13.618  0.00  0.00    +0.000 C 
ENDROOT
BRANCH   1   2
ATOM      2  C   UNL     1      47.225   6.387  12.861  0.00  0.00    +0.000 A 
ATOM      3  C   UNL     1      46.768   6.916  11.648  0.00  0.00    +0.000 A 
ATOM      4  C   UNL     1      45.808   6.248  10.880  0.00  0.00    +0.000 A 
ATOM      5  C   UNL     1      45.298   5.008  11.300  0.00  0.00    +0.000 A 
ATOM      6  C   UNL     1      45.736   4.494  12.530  0.00  0.00    +0.000 A 
ATOM      7  C   UNL     1      46.672   5.182  13.313  0.00  0.00    +0.000 A 
BRANCH   5   8
ATOM      8  C   UNL     1      44.311   4.195  10.458  0.00  0.00    +0.000 C 
ATOM      9  F   UNL     1      43.653   3.276  11.242  0.00  0.00    +0.000 F 
ATOM     10  F   UNL     1      43.296   5.008  10.012  0.00  0.00    +0.000 F 
BRANCH   8  11
ATOM     11  C   UNL     1      45.004   3.501   9.283  0.00  0.00    +0.000 A 
ATOM     12  C   UNL     1      45.247   2.133   9.357  0.00  0.00    +0.000 A 
ATOM     13  N   UNL     1      45.928   1.448   8.406  0.00  0.00    +0.000 NA
ATOM     14  C   UNL     1      46.350   2.180   7.353  0.00  0.00    +0.000 A 
ATOM     15  C   UNL     1      46.081   3.532   7.239  0.00  0.00    +0.000 A 
ATOM     16  N   UNL     1      45.413   4.223   8.194  0.00  0.00    +0.000 NA
ENDBRANCH   8  11
ENDBRANCH   5   8
ENDBRANCH   1   2
BRANCH   1  19
ATOM     17  O   UNL     1      50.352   6.704  15.541  0.00  0.00    +0.000 OA
ATOM     18  C   UNL     1      49.195   6.878  15.904  0.00  0.00    +0.000 C 
ATOM     19  N   UNL     1      48.148   7.056  15.043  0.00  0.00    +0.000 N 
ATOM     20  H   UNL     1      47.257   7.369  15.397  0.00  0.00    +0.000 HD
BRANCH  18  21
ATOM     21  C   UNL     1      48.821   6.867  17.321  0.00  0.00    +0.000 A 
ATOM     22  C   UNL     1      48.365   8.007  17.968  0.00  0.00    +0.000 A 
ATOM     23  S   UNL     1      47.998   7.732  19.615  0.00  0.00    +0.000 S 
ATOM     24  C   UNL     1      48.416   6.084  19.494  0.00  0.00    +0.000 A 
ATOM     25  N   UNL     1      48.318   5.245  20.553  0.00  0.00    +0.000 NA
ATOM     26  C   UNL     1      48.644   4.024  20.301  0.00  0.00    +0.000 A 
ATOM     27  N   UNL     1      49.068   3.556  19.076  0.00  0.00    +0.000 N 
ATOM     28  C   UNL     1      49.254   4.375  18.017  0.00  0.00    +0.000 A 
ATOM     29  O   UNL     1      49.796   3.947  17.001  0.00  0.00    +0.000 OA
ATOM     30  C   UNL     1      48.852   5.751  18.226  0.00  0.00    +0.000 A 
ATOM     31  H   UNL     1      49.371   2.602  18.960  0.00  0.00    +0.000 HD
ENDBRANCH  18  21
ENDBRANCH   1  19
TORSDOF 5
ENDMDL
MODEL 3
REMARK VINA RESULT:    -7.504      2.992      4.442
REMARK INTER + INTRA:         -10.581
REMARK INTER:                  -9.438
REMARK INTRA:                  -1.143
REMARK UNBOUND:                -0.883
REMARK  Name = 
REMARK  5 active torsions:
REMARK  status: ('A' for Active; 'I' for Inactive)
REMARK    1  A    between atoms: C_2  and  C_20
REMARK    2  A    between atoms: N_3  and  C_4
REMARK    3  A    between atoms: C_4  and  C_5
REMARK    4  A    between atoms: C_8  and  C_9
REMARK    5  A    between atoms: C_9  and  C_12
REMARK                            x       y       z     vdW  Elec       q    Type
REMARK                         _______ _______ _______ _____ _____    ______ ____
ROOT
ATOM      1  C   UNL     1      47.453   5.303  14.692  0.00  0.00    +0.000 C 
ENDROOT
BRANCH   1   2
ATOM      2  C   UNL     1      46.601   4.872  13.521  0.00  0.00    +0.000 A 
ATOM      3  C   UNL     1      46.314   5.806  12.518  0.00  0.00    +0.000 A 
ATOM      4  C   UNL     1      45.569   5.453  11.387  0.00  0.00    +0.000 A 
ATOM      5  C   UNL     1      45.112   4.135  11.219  0.00  0.00    +0.000 A 
ATOM      6  C   UNL     1      45.375   3.208  12.240  0.00  0.00    +0.000 A 
ATOM      7  C   UNL     1      46.092   3.574  13.387  0.00  0.00    +0.000 A 
BRANCH   5   8
ATOM      8  C   UNL     1      44.368   3.675   9.963  0.00  0.00    +0.000 C 
ATOM      9  F   UNL     1      43.458   2.691  10.277  0.00  0.00    +0.000 F 
ATOM     10  F   UNL     1      43.576   4.693   9.490  0.00  0.00    +0.000 F 
BRANCH   8  11
ATOM     11  C   UNL     1      45.332   3.188   8.878  0.00  0.00    +0.000 A 
ATOM     12  C   UNL     1      45.624   1.830   8.797  0.00  0.00    +0.000 A 
ATOM     13  N   UNL     1      46.527   1.317   7.927  0.00  0.00    +0.000 NA
ATOM     14  C   UNL     1      47.127   2.215   7.115  0.00  0.00    +0.000 A 
ATOM     15  C   UNL     1      46.818   3.563   7.150  0.00  0.00    +0.000 A 
ATOM     16  N   UNL     1      45.926   4.081   8.028  0.00  0.00    +0.000 NA
ENDBRANCH   8  11
ENDBRANCH   5   8
ENDBRANCH   1   2
BRANCH   1  19
ATOM     17  O   UNL     1      49.907   6.381  15.642  0.00  0.00    +0.000 OA
ATOM     18  C   UNL     1      49.102   7.100  15.064  0.00  0.00    +0.000 C 
ATOM     19  N   UNL     1      47.888   6.667  14.608  0.00  0.00    +0.000 N 
ATOM     20  H   UNL     1      47.348   7.253  13.989  0.00  0.00    +0.000 HD
BRANCH  18  21
ATOM     21  C   UNL     1      49.359   8.526  14.845  0.00  0.00    +0.000 A 
ATOM     22  C   UNL     1      49.350   9.442  15.888  0.00  0.00    +0.000 A 
ATOM     23  S   UNL     1      49.675  11.038  15.370  0.00  0.00    +0.000 S 
ATOM     24  C   UNL     1      49.857  10.539  13.751  0.00  0.00    +0.000 A 
ATOM     25  N   UNL     1      50.163  11.417  12.765  0.00  0.00    +0.000 NA
ATOM     26  C   UNL     1      50.295  10.888  11.597  0.00  0.00    +0.000 A 
ATOM     27  N   UNL     1      50.141   9.548  11.317  0.00  0.00    +0.000 N 
ATOM     28  C   UNL     1      49.760   8.653  12.255  0.00  0.00    +0.000 A 
ATOM     29  O   UNL     1      49.469   7.506  11.925  0.00  0.00    +0.000 OA
ATOM     30  C   UNL     1      49.650   9.182  13.599  0.00  0.00    +0.000 A 
ATOM     31  H   UNL     1      50.193   9.205  10.370  0.00  0.00    +0.000 HD
ENDBRANCH  18  21
ENDBRANCH   1  19
TORSDOF 5
ENDMDL
MODEL 4
REMARK VINA RESULT:    -7.404      4.562      8.785
REMARK INTER + INTRA:         -10.452
REMARK INTER:                  -9.388
REMARK INTRA:                  -1.063
REMARK UNBOUND:                -0.883
REMARK  Name = 
REMARK  5 active torsions:
REMARK  status: ('A' for Active; 'I' for Inactive)
REMARK    1  A    between atoms: C_2  and  C_20
REMARK    2  A    between atoms: N_3  and  C_4
REMARK    3  A    between atoms: C_4  and  C_5
REMARK    4  A    between atoms: C_8  and  C_9
REMARK    5  A    between atoms: C_9  and  C_12
REMARK                            x       y       z     vdW  Elec       q    Type
REMARK                         _______ _______ _______ _____ _____    ______ ____
ROOT
ATOM      1  C   UNL     1      47.908   7.019  13.357  0.00  0.00    +0.000 C 
ENDROOT
BRANCH   1   2
ATOM      2  C   UNL     1      48.297   6.378  14.668  0.00  0.00    +0.000 A 
ATOM      3  C   UNL     1      47.553   5.285  15.130  0.00  0.00    +0.000 A 
ATOM      4  C   UNL     1      47.895   4.622  16.314  0.00  0.00    +0.000 A 
ATOM      5  C   UNL     1      49.017   5.025  17.057  0.00  0.00    +0.000 A 
ATOM      6  C   UNL     1      49.743   6.139  16.609  0.00  0.00    +0.000 A 
ATOM      7  C   UNL     1      49.378   6.822  15.441  0.00  0.00    +0.000 A 
BRANCH   5   8
ATOM      8  C   UNL     1      49.484   4.282  18.312  0.00  0.00    +0.000 C 
ATOM      9  F   UNL     1      49.866   5.176  19.285  0.00  0.00    +0.000 F 
ATOM     10  F   UNL     1      48.424   3.626  18.889  0.00  0.00    +0.000 F 
BRANCH   8  11
ATOM     11  C   UNL     1      50.622   3.306  18.003  0.00  0.00    +0.000 A 
ATOM     12  C   UNL     1      50.330   2.123  17.331  0.00  0.00    +0.000 A 
ATOM     13  N   UNL     1      51.254   1.161  17.088  0.00  0.00    +0.000 NA
ATOM     14  C   UNL     1      52.502   1.430  17.527  0.00  0.00    +0.000 A 
ATOM     15  C   UNL     1      52.822   2.619  18.158  0.00  0.00    +0.000 A 
ATOM     16  N   UNL     1      51.899   3.577  18.416  0.00  0.00    +0.000 NA
ENDBRANCH   8  11
ENDBRANCH   5   8
ENDBRANCH   1   2
BRANCH   1  19
ATOM     17  O   UNL     1      45.681   7.673  11.714  0.00  0.00    +0.000 OA
ATOM     18  C   UNL     1      46.143   6.538  11.699  0.00  0.00    +0.000 C 
ATOM     19  N   UNL     1      47.189   6.136  12.483  0.00  0.00    +0.000 N 
ATOM     20  H   UNL     1      47.637   5.251  12.303  0.00  0.00    +0.000 HD
BRANCH  18  21
ATOM     21  C   UNL     1      45.576   5.483  10.856  0.00  0.00    +0.000 A 
ATOM     22  C   UNL     1      45.718   5.492   9.475  0.00  0.00    +0.000 A 
ATOM     23  S   UNL     1      44.964   4.154   8.724  0.00  0.00    +0.000 S 
ATOM     24  C   UNL     1      44.454   3.524  10.223  0.00  0.00    +0.000 A 
ATOM     25  N   UNL     1      43.758   2.364  10.309  0.00  0.00    +0.000 NA
ATOM     26  C   UNL     1      43.466   2.002  11.510  0.00  0.00    +0.000 A 
ATOM     27  N   UNL     1      43.803   2.700  12.650  0.00  0.00    +0.000 N 
ATOM     28  C   UNL     1      44.427   3.898  12.603  0.00  0.00    +0.000 A 
ATOM     29  O   UNL     1      44.553   4.563  13.629  0.00  0.00    +0.000 OA
ATOM     30  C   UNL     1      44.829   4.330  11.280  0.00  0.00    +0.000 A 
ATOM     31  H   UNL     1      43.489   2.397  13.557  0.00  0.00    +0.000 HD
ENDBRANCH  18  21
ENDBRANCH   1  19
TORSDOF 5
ENDMDL
MODEL 5
REMARK VINA RESULT:    -7.268      5.316      9.541
REMARK INTER + INTRA:         -10.276
REMARK INTER:                  -9.572
REMARK INTRA:                  -0.704
REMARK UNBOUND:                -0.883
REMARK  Name = 
REMARK  5 active torsions:
REMARK  status: ('A' for Active; 'I' for Inactive)
REMARK    1  A    between atoms: C_2  and  C_20
REMARK    2  A    between atoms: N_3  and  C_4
REMARK    3  A    between atoms: C_4  and  C_5
REMARK    4  A    between atoms: C_8  and  C_9
REMARK    5  A    between atoms: C_9  and  C_12
REMARK                            x       y       z     vdW  Elec       q    Type
REMARK                         _______ _______ _______ _____ _____    ______ ____
ROOT
ATOM      1  C   UNL     1      47.195   3.608  16.692  0.00  0.00    +0.000 C 
ENDROOT
BRANCH   1   2
ATOM      2  C   UNL     1      48.633   3.848  17.086  0.00  0.00    +0.000 A 
ATOM      3  C   UNL     1      49.487   2.747  17.220  0.00  0.00    +0.000 A 
ATOM      4  C   UNL     1      50.840   2.911  17.538  0.00  0.00    +0.000 A 
ATOM      5  C   UNL     1      51.382   4.196  17.704  0.00  0.00    +0.000 A 
ATOM      6  C   UNL     1      50.518   5.297  17.599  0.00  0.00    +0.000 A 
ATOM      7  C   UNL     1      49.156   5.128  17.314  0.00  0.00    +0.000 A 
BRANCH   5   8
ATOM      8  C   UNL     1      52.871   4.435  17.968  0.00  0.00    +0.000 C 
ATOM      9  F   UNL     1      53.478   4.961  16.851  0.00  0.00    +0.000 F 
ATOM     10  F   UNL     1      53.026   5.429  18.904  0.00  0.00    +0.000 F 
BRANCH   8  11
ATOM     11  C   UNL     1      53.581   3.155  18.414  0.00  0.00    +0.000 A 
ATOM     12  C   UNL     1      53.810   2.950  19.771  0.00  0.00    +0.000 A 
ATOM     13  N   UNL     1      54.503   1.890  20.254  0.00  0.00    +0.000 NA
ATOM     14  C   UNL     1      54.953   1.018  19.326  0.00  0.00    +0.000 A 
ATOM     15  C   UNL     1      54.698   1.181  17.976  0.00  0.00    +0.000 A 
ATOM     16  N   UNL     1      54.018   2.246  17.488  0.00  0.00    +0.000 NA
ENDBRANCH   8  11
ENDBRANCH   5   8
ENDBRANCH   1   2
BRANCH   1  19
ATOM     17  O   UNL     1      47.145   3.160  13.884  0.00  0.00    +0.000 OA
ATOM     18  C   UNL     1      46.706   4.205  14.347  0.00  0.00    +0.000 C 
ATOM     19  N   UNL     1      46.725   4.511  15.680  0.00  0.00    +0.000 N 
ATOM     20  H   UNL     1      46.195   5.299  16.020  0.00  0.00    +0.000 HD
BRANCH  18  21
ATOM     21  C   UNL     1      46.151   5.257  13.491  0.00  0.00    +0.000 A 
ATOM     22  C   UNL     1      46.852   6.422  13.213  0.00  0.00    +0.000 A 
ATOM     23  S   UNL     1      45.987   7.488  12.195  0.00  0.00    +0.000 S 
ATOM     24  C   UNL     1      44.671   6.410  12.085  0.00  0.00    +0.000 A 
ATOM     25  N   UNL     1      43.574   6.698  11.342  0.00  0.00    +0.000 NA
ATOM     26  C   UNL     1      42.675   5.775  11.335  0.00  0.00    +0.000 A 
ATOM     27  N   UNL     1      42.766   4.579  12.014  0.00  0.00    +0.000 N 
ATOM     28  C   UNL     1      43.805   4.288  12.827  0.00  0.00    +0.000 A 
ATOM     29  O   UNL     1      43.762   3.290  13.542  0.00  0.00    +0.000 OA
ATOM     30  C   UNL     1      44.874   5.266  12.831  0.00  0.00    +0.000 A 
ATOM     31  H   UNL     1      41.999   3.926  12.020  0.00  0.00    +0.000 HD
ENDBRANCH  18  21
ENDBRANCH   1  19
TORSDOF 5
ENDMDL
MODEL 6
REMARK VINA RESULT:    -7.230      2.109      2.842
REMARK INTER + INTRA:         -10.226
REMARK INTER:                  -9.274
REMARK INTRA:                  -0.952
REMARK UNBOUND:                -0.883
REMARK  Name = 
REMARK  5 active torsions:
REMARK  status: ('A' for Active; 'I' for Inactive)
REMARK    1  A    between atoms: C_2  and  C_20
REMARK    2  A    between atoms: N_3  and  C_4
REMARK    3  A    between atoms: C_4  and  C_5
REMARK    4  A    between atoms: C_8  and  C_9
REMARK    5  A    between atoms: C_9  and  C_12
REMARK                            x       y       z     vdW  Elec       q    Type
REMARK                         _______ _______ _______ _____ _____    ______ ____
ROOT
ATOM      1  C   UNL     1      47.715   5.143  15.202  0.00  0.00    +0.000 C 
ENDROOT
BRANCH   1   2
ATOM      2  C   UNL     1      46.907   4.878  13.953  0.00  0.00    +0.000 A 
ATOM      3  C   UNL     1      46.591   3.554  13.624  0.00  0.00    +0.000 A 
ATOM      4  C   UNL     1      45.807   3.251  12.506  0.00  0.00    +0.000 A 
ATOM      5  C   UNL     1      45.292   4.278  11.698  0.00  0.00    +0.000 A 
ATOM      6  C   UNL     1      45.634   5.602  12.012  0.00  0.00    +0.000 A 
ATOM      7  C   UNL     1      46.448   5.900  13.113  0.00  0.00    +0.000 A 
BRANCH   5   8
ATOM      8  C   UNL     1      44.359   4.007  10.514  0.00  0.00    +0.000 C 
ATOM      9  F   UNL     1      43.386   3.100  10.866  0.00  0.00    +0.000 F 
ATOM     10  F   UNL     1      43.639   5.139  10.217  0.00  0.00    +0.000 F 
BRANCH   8  11
ATOM     11  C   UNL     1      45.130   3.517   9.285  0.00  0.00    +0.000 A 
ATOM     12  C   UNL     1      45.327   2.150   9.115  0.00  0.00    +0.000 A 
ATOM     13  N   UNL     1      46.066   1.628   8.106  0.00  0.00    +0.000 NA
ATOM     14  C   UNL     1      46.596   2.526   7.248  0.00  0.00    +0.000 A 
ATOM     15  C   UNL     1      46.376   3.886   7.375  0.00  0.00    +0.000 A 
ATOM     16  N   UNL     1      45.650   4.413   8.390  0.00  0.00    +0.000 NA
ENDBRANCH   8  11
ENDBRANCH   5   8
ENDBRANCH   1   2
BRANCH   1  19
ATOM     17  O   UNL     1      50.169   6.542  15.530  0.00  0.00    +0.000 OA
ATOM     18  C   UNL     1      49.104   7.144  15.598  0.00  0.00    +0.000 C 
ATOM     19  N   UNL     1      47.883   6.539  15.485  0.00  0.00    +0.000 N 
ATOM     20  H   UNL     1      47.054   7.103  15.372  0.00  0.00    +0.000 HD
BRANCH  18  21
ATOM     21  C   UNL     1      49.046   8.585  15.854  0.00  0.00    +0.000 A 
ATOM     22  C   UNL     1      49.549   9.512  14.951  0.00  0.00    +0.000 A 
ATOM     23  S   UNL     1      49.363  11.125  15.485  0.00  0.00    +0.000 S 
ATOM     24  C   UNL     1      48.587  10.624  16.918  0.00  0.00    +0.000 A 
ATOM     25  N   UNL     1      48.141  11.516  17.836  0.00  0.00    +0.000 NA
ATOM     26  C   UNL     1      47.553  10.989  18.853  0.00  0.00    +0.000 A 
ATOM     27  N   UNL     1      47.369   9.636  19.046  0.00  0.00    +0.000 N 
ATOM     28  C   UNL     1      47.867   8.712  18.195  0.00  0.00    +0.000 A 
ATOM     29  O   UNL     1      47.830   7.521  18.494  0.00  0.00    +0.000 OA
ATOM     30  C   UNL     1      48.492   9.249  17.003  0.00  0.00    +0.000 A 
ATOM     31  H   UNL     1      46.958   9.283  19.895  0.00  0.00    +0.000 HD
ENDBRANCH  18  21
ENDBRANCH   1  19
TORSDOF 5
ENDMDL
MODEL 7
REMARK VINA RESULT:    -7.074      2.864      3.759
REMARK INTER + INTRA:         -10.024
REMARK INTER:                  -9.041
REMARK INTRA:                  -0.983
REMARK UNBOUND:                -0.883
REMARK  Name = 
REMARK  5 active torsions:
REMARK  status: ('A' for Active; 'I' for Inactive)
REMARK    1  A    between atoms: C_2  and  C_20
REMARK    2  A    between atoms: N_3  and  C_4
REMARK    3  A    between atoms: C_4  and  C_5
REMARK    4  A    between atoms: C_8  and  C_9
REMARK    5  A    between atoms: C_9  and  C_12
REMARK                            x       y       z     vdW  Elec       q    Type
REMARK                         _______ _______ _______ _____ _____    ______ ____
ROOT
ATOM      1  C   UNL     1      46.389   5.780  13.943  0.00  0.00    +0.000 C 
ENDROOT
BRANCH   1   2
ATOM      2  C   UNL     1      46.015   5.157  12.618  0.00  0.00    +0.000 A 
ATOM      3  C   UNL     1      45.638   3.809  12.591  0.00  0.00    +0.000 A 
ATOM      4  C   UNL     1      45.237   3.191  11.401  0.00  0.00    +0.000 A 
ATOM      5  C   UNL     1      45.178   3.922  10.204  0.00  0.00    +0.000 A 
ATOM      6  C   UNL     1      45.584   5.266  10.227  0.00  0.00    +0.000 A 
ATOM      7  C   UNL     1      46.018   5.872  11.414  0.00  0.00    +0.000 A 
BRANCH   5   8
ATOM      8  C   UNL     1      44.665   3.319   8.893  0.00  0.00    +0.000 C 
ATOM      9  F   UNL     1      43.817   2.266   9.148  0.00  0.00    +0.000 F 
ATOM     10  F   UNL     1      43.856   4.222   8.247  0.00  0.00    +0.000 F 
BRANCH   8  11
ATOM     11  C   UNL     1      45.815   2.875   7.985  0.00  0.00    +0.000 A 
ATOM     12  C   UNL     1      46.269   1.562   8.067  0.00  0.00    +0.000 A 
ATOM     13  N   UNL     1      47.333   1.100   7.367  0.00  0.00    +0.000 NA
ATOM     14  C   UNL     1      47.929   2.000   6.555  0.00  0.00    +0.000 A 
ATOM     15  C   UNL     1      47.466   3.297   6.426  0.00  0.00    +0.000 A 
ATOM     16  N   UNL     1      46.412   3.766   7.135  0.00  0.00    +0.000 NA
ENDBRANCH   8  11
ENDBRANCH   5   8
ENDBRANCH   1   2
BRANCH   1  19
ATOM     17  O   UNL     1      47.285   8.479  13.989  0.00  0.00    +0.000 OA
ATOM     18  C   UNL     1      48.095   7.561  14.043  0.00  0.00    +0.000 C 
ATOM     19  N   UNL     1      47.747   6.239  13.992  0.00  0.00    +0.000 N 
ATOM     20  H   UNL     1      48.432   5.533  14.218  0.00  0.00    +0.000 HD
BRANCH  18  21
ATOM     21  C   UNL     1      49.537   7.806  14.126  0.00  0.00    +0.000 A 
ATOM     22  C   UNL     1      50.208   8.564  13.176  0.00  0.00    +0.000 A 
ATOM     23  S   UNL     1      51.881   8.698  13.497  0.00  0.00    +0.000 S 
ATOM     24  C   UNL     1      51.743   7.771  14.921  0.00  0.00    +0.000 A 
ATOM     25  N   UNL     1      52.814   7.509  15.708  0.00  0.00    +0.000 NA
ATOM     26  C   UNL     1      52.549   6.819  16.763  0.00  0.00    +0.000 A 
ATOM     27  N   UNL     1      51.298   6.355  17.108  0.00  0.00    +0.000 N 
ATOM     28  C   UNL     1      50.220   6.527  16.313  0.00  0.00    +0.000 A 
ATOM     29  O   UNL     1      49.167   5.950  16.575  0.00  0.00    +0.000 OA
ATOM     30  C   UNL     1      50.448   7.343  15.137  0.00  0.00    +0.000 A 
ATOM     31  H   UNL     1      51.167   5.764  17.914  0.00  0.00    +0.000 HD
ENDBRANCH  18  21
ENDBRANCH   1  19
TORSDOF 5
ENDMDL
MODEL 8
REMARK VINA RESULT:    -7.032      5.109      9.441
REMARK INTER + INTRA:          -9.970
REMARK INTER:                  -9.134
REMARK INTRA:                  -0.836
REMARK UNBOUND:                -0.883
REMARK  Name = 
REMARK  5 active torsions:
REMARK  status: ('A' for Active; 'I' for Inactive)
REMARK    1  A    between atoms: C_2  and  C_20
REMARK    2  A    between atoms: N_3  and  C_4
REMARK    3  A    between atoms: C_4  and  C_5
REMARK    4  A    between atoms: C_8  and  C_9
REMARK    5  A    between atoms: C_9  and  C_12
REMARK                            x       y       z     vdW  Elec       q    Type
REMARK                         _______ _______ _______ _____ _____    ______ ____
ROOT
ATOM      1  C   UNL     1      47.160   3.575  16.810  0.00  0.00    +0.000 C 
ENDROOT
BRANCH   1   2
ATOM      2  C   UNL     1      48.636   3.594  17.134  0.00  0.00    +0.000 A 
ATOM      3  C   UNL     1      49.204   4.780  17.614  0.00  0.00    +0.000 A 
ATOM      4  C   UNL     1      50.554   4.845  17.974  0.00  0.00    +0.000 A 
ATOM      5  C   UNL     1      51.370   3.704  17.887  0.00  0.00    +0.000 A 
ATOM      6  C   UNL     1      50.806   2.524  17.378  0.00  0.00    +0.000 A 
ATOM      7  C   UNL     1      49.461   2.472  16.986  0.00  0.00    +0.000 A 
BRANCH   5   8
ATOM      8  C   UNL     1      52.830   3.697  18.348  0.00  0.00    +0.000 C 
ATOM      9  F   UNL     1      52.921   3.268  19.652  0.00  0.00    +0.000 F 
ATOM     10  F   UNL     1      53.534   2.742  17.655  0.00  0.00    +0.000 F 
BRANCH   8  11
ATOM     11  C   UNL     1      53.482   5.073  18.189  0.00  0.00    +0.000 A 
ATOM     12  C   UNL     1      53.903   5.476  16.925  0.00  0.00    +0.000 A 
ATOM     13  N   UNL     1      54.564   6.638  16.699  0.00  0.00    +0.000 NA
ATOM     14  C   UNL     1      54.779   7.405  17.790  0.00  0.00    +0.000 A 
ATOM     15  C   UNL     1      54.330   7.043  19.047  0.00  0.00    +0.000 A 
ATOM     16  N   UNL     1      53.682   5.876  19.279  0.00  0.00    +0.000 NA
ENDBRANCH   8  11
ENDBRANCH   5   8
ENDBRANCH   1   2
BRANCH   1  19
ATOM     17  O   UNL     1      47.232   3.140  14.000  0.00  0.00    +0.000 OA
ATOM     18  C   UNL     1      46.825   4.205  14.447  0.00  0.00    +0.000 C 
ATOM     19  N   UNL     1      46.791   4.505  15.781  0.00  0.00    +0.000 N 
ATOM     20  H   UNL     1      46.287   5.319  16.098  0.00  0.00    +0.000 HD
BRANCH  18  21
ATOM     21  C   UNL     1      46.373   5.288  13.571  0.00  0.00    +0.000 A 
ATOM     22  C   UNL     1      47.159   6.403  13.316  0.00  0.00    +0.000 A 
ATOM     23  S   UNL     1      46.403   7.520  12.266  0.00  0.00    +0.000 S 
ATOM     24  C   UNL     1      45.024   6.531  12.110  0.00  0.00    +0.000 A 
ATOM     25  N   UNL     1      43.976   6.887  11.327  0.00  0.00    +0.000 NA
ATOM     26  C   UNL     1      43.018   6.026  11.289  0.00  0.00    +0.000 A 
ATOM     27  N   UNL     1      43.006   4.828  11.972  0.00  0.00    +0.000 N 
ATOM     28  C   UNL     1      43.993   4.473  12.822  0.00  0.00    +0.000 A 
ATOM     29  O   UNL     1      43.859   3.483  13.537  0.00  0.00    +0.000 OA
ATOM     30  C   UNL     1      45.124   5.379  12.864  0.00  0.00    +0.000 A 
ATOM     31  H   UNL     1      42.198   4.227  11.951  0.00  0.00    +0.000 HD
ENDBRANCH  18  21
ENDBRANCH   1  19
TORSDOF 5
ENDMDL
MODEL 9
REMARK VINA RESULT:    -6.974      3.514      5.047
REMARK INTER + INTRA:          -9.895
REMARK INTER:                  -8.812
REMARK INTRA:                  -1.083
REMARK UNBOUND:                -0.883
REMARK  Name = 
REMARK  5 active torsions:
REMARK  status: ('A' for Active; 'I' for Inactive)
REMARK    1  A    between atoms: C_2  and  C_20
REMARK    2  A    between atoms: N_3  and  C_4
REMARK    3  A    between atoms: C_4  and  C_5
REMARK    4  A    between atoms: C_8  and  C_9
REMARK    5  A    between atoms: C_9  and  C_12
REMARK                            x       y       z     vdW  Elec       q    Type
REMARK                         _______ _______ _______ _____ _____    ______ ____
ROOT
ATOM      1  C   UNL     1      46.765   6.142  14.065  0.00  0.00    +0.000 C 
ENDROOT
BRANCH   1   2
ATOM      2  C   UNL     1      46.285   5.455  12.808  0.00  0.00    +0.000 A 
ATOM      3  C   UNL     1      45.911   4.108  12.878  0.00  0.00    +0.000 A 
ATOM      4  C   UNL     1      45.415   3.432  11.757  0.00  0.00    +0.000 A 
ATOM      5  C   UNL     1      45.255   4.104  10.534  0.00  0.00    +0.000 A 
ATOM      6  C   UNL     1      45.658   5.446  10.458  0.00  0.00    +0.000 A 
ATOM      7  C   UNL     1      46.186   6.111  11.573  0.00  0.00    +0.000 A 
BRANCH   5   8
ATOM      8  C   UNL     1      44.639   3.437   9.301  0.00  0.00    +0.000 C 
ATOM      9  F   UNL     1      43.678   2.527   9.677  0.00  0.00    +0.000 F 
ATOM     10  F   UNL     1      43.926   4.362   8.577  0.00  0.00    +0.000 F 
BRANCH   8  11
ATOM     11  C   UNL     1      45.702   2.767   8.428  0.00  0.00    +0.000 A 
ATOM     12  C   UNL     1      46.393   3.537   7.497  0.00  0.00    +0.000 A 
ATOM     13  N   UNL     1      47.289   3.018   6.624  0.00  0.00    +0.000 NA
ATOM     14  C   UNL     1      47.492   1.686   6.722  0.00  0.00    +0.000 A 
ATOM     15  C   UNL     1      46.848   0.909   7.669  0.00  0.00    +0.000 A 
ATOM     16  N   UNL     1      45.940   1.423   8.535  0.00  0.00    +0.000 NA
ENDBRANCH   8  11
ENDBRANCH   5   8
ENDBRANCH   1   2
BRANCH   1  19
ATOM     17  O   UNL     1      47.586   8.861  14.225  0.00  0.00    +0.000 OA
ATOM     18  C   UNL     1      48.419   7.974  14.081  0.00  0.00    +0.000 C 
ATOM     19  N   UNL     1      48.103   6.649  13.961  0.00  0.00    +0.000 N 
ATOM     20  H   UNL     1      48.832   5.954  14.021  0.00  0.00    +0.000 HD
BRANCH  18  21
ATOM     21  C   UNL     1      49.850   8.268  13.978  0.00  0.00    +0.000 A 
ATOM     22  C   UNL     1      50.591   8.698  15.070  0.00  0.00    +0.000 A 
ATOM     23  S   UNL     1      52.234   8.975  14.688  0.00  0.00    +0.000 S 
ATOM     24  C   UNL     1      51.998   8.506  13.067  0.00  0.00    +0.000 A 
ATOM     25  N   UNL     1      53.017   8.493  12.173  0.00  0.00    +0.000 NA
ATOM     26  C   UNL     1      52.690   8.090  10.994  0.00  0.00    +0.000 A 
ATOM     27  N   UNL     1      51.423   7.699  10.616  0.00  0.00    +0.000 N 
ATOM     28  C   UNL     1      50.366   7.772  11.454  0.00  0.00    +0.000 A 
ATOM     29  O   UNL     1      49.231   7.578  11.025  0.00  0.00    +0.000 OA
ATOM     30  C   UNL     1      50.684   8.167  12.811  0.00  0.00    +0.000 A 
ATOM     31  H   UNL     1      51.218   7.456   9.660  0.00  0.00    +0.000 HD
ENDBRANCH  18  21
ENDBRANCH   1  19
TORSDOF 5
ENDMDL
