MODEL 1
REMARK VINA RESULT:    -8.188      0.000      0.000
REMARK INTER + INTRA:         -11.045
REMARK INTER:                 -10.581
REMARK INTRA:                  -0.464
REMARK UNBOUND:                -0.464
REMARK  Name = 
REMARK  6 active torsions:
REMARK  status: ('A' for Active; 'I' for Inactive)
REMARK    1  A    between atoms: C_1  and  O_2
REMARK    2  A    between atoms: O_2  and  C_3
REMARK    3  A    between atoms: N_6  and  C_7
REMARK    4  A    between atoms: C_7  and  C_8
REMARK    5  A    between atoms: C_12  and  C_13
REMARK    6  A    between atoms: C_22  and  C_23
REMARK                            x       y       z     vdW  Elec       q    Type
REMARK                         _______ _______ _______ _____ _____    ______ ____
ROOT
ATOM      1  C   UNL     1      48.004   6.071  13.802  0.00  0.00    +0.000 A 
ATOM      2  N   UNL     1      47.397   6.421  12.642  0.00  0.00    +0.000 NA
ATOM      3  C   UNL     1      46.155   5.983  12.435  0.00  0.00    +0.000 A 
ATOM      4  N   UNL     1      45.502   6.539  11.364  0.00  0.00    +0.000 N 
ATOM      5  N   UNL     1      45.526   5.141  13.259  0.00  0.00    +0.000 NA
ATOM      6  C   UNL     1      46.179   4.782  14.390  0.00  0.00    +0.000 A 
ATOM      7  C   UNL     1      47.426   5.244  14.741  0.00  0.00    +0.000 A 
ATOM      8  H   UNL     1      46.144   6.860  10.652  0.00  0.00    +0.000 HD
ENDROOT
BRANCH   7   9
ATOM      9  C   UNL     1      47.972   4.864  16.062  0.00  0.00    +0.000 C 
ATOM     10  N   UNL     1      47.931   5.771  17.081  0.00  0.00    +0.000 N 
ATOM     11  O   UNL     1      48.440   3.747  16.249  0.00  0.00    +0.000 OA
ATOM     12  H   UNL     1      47.531   6.696  16.975  0.00  0.00    +0.000 HD
ATOM     13  H   UNL     1      48.261   5.481  17.991  0.00  0.00    +0.000 HD
ENDBRANCH   7   9
BRANCH   1  15
ATOM     14  C   UNL     1      49.673   7.542  13.055  0.00  0.00    +0.000 C 
ATOM     15  O   UNL     1      49.256   6.605  14.050  0.00  0.00    +0.000 OA
ENDBRANCH   1  15
BRANCH   4  16
ATOM     16  C   UNL     1      44.210   6.043  10.968  0.00  0.00    +0.000 C 
BRANCH  16  17
ATOM     17  C   UNL     1      44.350   4.636  10.443  0.00  0.00    +0.000 A 
ATOM     18  C   UNL     1      43.610   3.590  10.973  0.00  0.00    +0.000 A 
ATOM     19  N   UNL     1      43.645   2.327  10.495  0.00  0.00    +0.000 NA
ATOM     20  C   UNL     1      44.459   2.095   9.436  0.00  0.00    +0.000 A 
ATOM     21  C   UNL     1      45.270   3.049   8.815  0.00  0.00    +0.000 A 
ATOM     22  C   UNL     1      45.186   4.344   9.351  0.00  0.00    +0.000 A 
BRANCH  21  23
ATOM     23  C   UNL     1      46.157   2.720   7.681  0.00  0.00    +0.000 A 
ATOM     24  C   UNL     1      46.265   3.539   6.545  0.00  0.00    +0.000 A 
ATOM     25  C   UNL     1      47.137   3.211   5.507  0.00  0.00    +0.000 A 
ATOM     26  C   UNL     1      47.884   2.053   5.617  0.00  0.00    +0.000 A 
ATOM     27  N   UNL     1      47.815   1.223   6.675  0.00  0.00    +0.000 NA
ATOM     28  C   UNL     1      46.964   1.578   7.672  0.00  0.00    +0.000 A 
ENDBRANCH  21  23
ENDBRANCH  16  17
ENDBRANCH   4  16
TORSDOF 5
ENDMDL
MODEL 2
REMARK VINA RESULT:    -7.859      1.571      2.735
REMARK INTER + INTRA:         -10.620
REMARK INTER:                  -9.751
REMARK INTRA:                  -0.870
REMARK UNBOUND:                -0.464
REMARK  Name = 
REMARK  6 active torsions:
REMARK  status: ('A' for Active; 'I' for Inactive)
REMARK    1  A    between atoms: C_1  and  O_2
REMARK    2  A    between atoms: O_2  and  C_3
REMARK    3  A    between atoms: N_6  and  C_7
REMARK    4  A    between atoms: C_7  and  C_8
REMARK    5  A    between atoms: C_12  and  C_13
REMARK    6  A    between atoms: C_22  and  C_23
REMARK                            x       y       z     vdW  Elec       q    Type
REMARK                         _______ _______ _______ _____ _____    ______ ____
ROOT
ATOM      1  C   UNL     1      48.958   6.941  13.856  0.00  0.00    +0.000 A 
ATOM      2  N   UNL     1      47.690   6.482  13.977  0.00  0.00    +0.000 NA
ATOM      3  C   UNL     1      46.901   6.547  12.903  0.00  0.00    +0.000 A 
ATOM      4  N   UNL     1      45.711   5.873  13.002  0.00  0.00    +0.000 N 
ATOM      5  N   UNL     1      47.265   7.132  11.759  0.00  0.00    +0.000 NA
ATOM      6  C   UNL     1      48.528   7.616  11.688  0.00  0.00    +0.000 A 
ATOM      7  C   UNL     1      49.449   7.522  12.706  0.00  0.00    +0.000 A 
ATOM      8  H   UNL     1      45.401   5.785  13.960  0.00  0.00    +0.000 HD
ENDROOT
BRANCH   7   9
ATOM      9  C   UNL     1      50.830   7.985  12.451  0.00  0.00    +0.000 C 
ATOM     10  N   UNL     1      51.625   8.309  13.511  0.00  0.00    +0.000 N 
ATOM     11  O   UNL     1      51.265   8.062  11.308  0.00  0.00    +0.000 OA
ATOM     12  H   UNL     1      51.314   8.237  14.473  0.00  0.00    +0.000 HD
ATOM     13  H   UNL     1      52.583   8.577  13.325  0.00  0.00    +0.000 HD
ENDBRANCH   7   9
BRANCH   1  15
ATOM     14  C   UNL     1      49.092   6.593  16.173  0.00  0.00    +0.000 C 
ATOM     15  O   UNL     1      49.798   6.784  14.945  0.00  0.00    +0.000 OA
ENDBRANCH   1  15
BRANCH   4  16
ATOM     16  C   UNL     1      44.726   5.989  11.957  0.00  0.00    +0.000 C 
BRANCH  16  17
ATOM     17  C   UNL     1      44.530   4.647  11.298  0.00  0.00    +0.000 A 
ATOM     18  C   UNL     1      43.573   3.753  11.751  0.00  0.00    +0.000 A 
ATOM     19  N   UNL     1      43.308   2.569  11.156  0.00  0.00    +0.000 NA
ATOM     20  C   UNL     1      44.036   2.262  10.053  0.00  0.00    +0.000 A 
ATOM     21  C   UNL     1      45.040   3.059   9.499  0.00  0.00    +0.000 A 
ATOM     22  C   UNL     1      45.265   4.280  10.157  0.00  0.00    +0.000 A 
BRANCH  21  23
ATOM     23  C   UNL     1      45.816   2.649   8.311  0.00  0.00    +0.000 A 
ATOM     24  C   UNL     1      46.112   3.533   7.261  0.00  0.00    +0.000 A 
ATOM     25  C   UNL     1      46.873   3.117   6.169  0.00  0.00    +0.000 A 
ATOM     26  C   UNL     1      47.319   1.809   6.138  0.00  0.00    +0.000 A 
ATOM     27  N   UNL     1      47.057   0.913   7.109  0.00  0.00    +0.000 NA
ATOM     28  C   UNL     1      46.322   1.354   8.162  0.00  0.00    +0.000 A 
ENDBRANCH  21  23
ENDBRANCH  16  17
ENDBRANCH   4  16
TORSDOF 5
ENDMDL
MODEL 3
REMARK VINA RESULT:    -7.290      2.153      3.320
REMARK INTER + INTRA:          -9.885
REMARK INTER:                  -9.140
REMARK INTRA:                  -0.745
REMARK UNBOUND:                -0.464
REMARK  Name = 
REMARK  6 active torsions:
REMARK  status: ('A' for Active; 'I' for Inactive)
REMARK    1  A    between atoms: C_1  and  O_2
REMARK    2  A    between atoms: O_2  and  C_3
REMARK    3  A    between atoms: N_6  and  C_7
REMARK    4  A    between atoms: C_7  and  C_8
REMARK    5  A    between atoms: C_12  and  C_13
REMARK    6  A    between atoms: C_22  and  C_23
REMARK                            x       y       z     vdW  Elec       q    Type
REMARK                         _______ _______ _______ _____ _____    ______ ____
ROOT
ATOM      1  C   UNL     1      48.906   3.911  16.983  0.00  0.00    +0.000 A 
ATOM      2  N   UNL     1      47.879   3.488  16.209  0.00  0.00    +0.000 NA
ATOM      3  C   UNL     1      47.328   4.369  15.373  0.00  0.00    +0.000 A 
ATOM      4  N   UNL     1      46.451   3.847  14.457  0.00  0.00    +0.000 N 
ATOM      5  N   UNL     1      47.668   5.661  15.339  0.00  0.00    +0.000 NA
ATOM      6  C   UNL     1      48.673   6.056  16.156  0.00  0.00    +0.000 A 
ATOM      7  C   UNL     1      49.365   5.211  16.992  0.00  0.00    +0.000 A 
ATOM      8  H   UNL     1      46.022   2.993  14.784  0.00  0.00    +0.000 HD
ENDROOT
BRANCH   7   9
ATOM      9  C   UNL     1      50.519   5.752  17.741  0.00  0.00    +0.000 C 
ATOM     10  N   UNL     1      51.739   5.158  17.599  0.00  0.00    +0.000 N 
ATOM     11  O   UNL     1      50.391   6.731  18.468  0.00  0.00    +0.000 OA
ATOM     12  H   UNL     1      51.893   4.362  16.990  0.00  0.00    +0.000 HD
ATOM     13  H   UNL     1      52.529   5.569  18.078  0.00  0.00    +0.000 HD
ENDBRANCH   7   9
BRANCH   1  15
ATOM     14  C   UNL     1      50.198   1.952  17.025  0.00  0.00    +0.000 C 
ATOM     15  O   UNL     1      49.533   2.968  17.779  0.00  0.00    +0.000 OA
ENDBRANCH   1  15
BRANCH   4  16
ATOM     16  C   UNL     1      45.697   4.723  13.598  0.00  0.00    +0.000 C 
BRANCH  16  17
ATOM     17  C   UNL     1      45.043   3.917  12.503  0.00  0.00    +0.000 A 
ATOM     18  C   UNL     1      43.795   3.341  12.678  0.00  0.00    +0.000 A 
ATOM     19  N   UNL     1      43.135   2.669  11.709  0.00  0.00    +0.000 NA
ATOM     20  C   UNL     1      43.752   2.567  10.506  0.00  0.00    +0.000 A 
ATOM     21  C   UNL     1      45.013   3.083  10.197  0.00  0.00    +0.000 A 
ATOM     22  C   UNL     1      45.647   3.776  11.241  0.00  0.00    +0.000 A 
BRANCH  21  23
ATOM     23  C   UNL     1      45.639   2.908   8.871  0.00  0.00    +0.000 A 
ATOM     24  C   UNL     1      46.066   1.657   8.397  0.00  0.00    +0.000 A 
ATOM     25  C   UNL     1      46.626   1.526   7.127  0.00  0.00    +0.000 A 
ATOM     26  C   UNL     1      46.765   2.660   6.349  0.00  0.00    +0.000 A 
ATOM     27  N   UNL     1      46.386   3.887   6.754  0.00  0.00    +0.000 NA
ATOM     28  C   UNL     1      45.835   3.978   7.991  0.00  0.00    +0.000 A 
ENDBRANCH  21  23
ENDBRANCH  16  17
ENDBRANCH   4  16
TORSDOF 5
ENDMDL
MODEL 4
REMARK VINA RESULT:    -7.152      2.412      4.324
REMARK INTER + INTRA:          -9.707
REMARK INTER:                  -9.072
REMARK INTRA:                  -0.635
REMARK UNBOUND:                -0.464
REMARK  Name = 
REMARK  6 active torsions:
REMARK  status: ('A' for Active; 'I' for Inactive)
REMARK    1  A    between atoms: C_1  and  O_2
REMARK    2  A    between atoms: O_2  and  C_3
REMARK    3  A    between atoms: N_6  and  C_7
REMARK    4  A    between atoms: C_7  and  C_8
REMARK    5  A    between atoms: C_12  and  C_13
REMARK    6  A    between atoms: C_22  and  C_23
REMARK                            x       y       z     vdW  Elec       q    Type
REMARK                         _______ _______ _______ _____ _____    ______ ____
ROOT
ATOM      1  C   UNL     1      48.445   5.878  17.420  0.00  0.00    +0.000 A 
ATOM      2  N   UNL     1      48.780   6.881  16.573  0.00  0.00    +0.000 NA
ATOM      3  C   UNL     1      48.620   6.669  15.266  0.00  0.00    +0.000 A 
ATOM      4  N   UNL     1      48.757   7.775  14.466  0.00  0.00    +0.000 N 
ATOM      5  N   UNL     1      48.248   5.493  14.753  0.00  0.00    +0.000 NA
ATOM      6  C   UNL     1      47.959   4.502  15.629  0.00  0.00    +0.000 A 
ATOM      7  C   UNL     1      48.007   4.642  16.997  0.00  0.00    +0.000 A 
ATOM      8  H   UNL     1      49.353   8.475  14.884  0.00  0.00    +0.000 HD
ENDROOT
BRANCH   7   9
ATOM      9  C   UNL     1      47.550   3.514  17.837  0.00  0.00    +0.000 C 
ATOM     10  N   UNL     1      48.241   3.213  18.974  0.00  0.00    +0.000 N 
ATOM     11  O   UNL     1      46.555   2.867  17.530  0.00  0.00    +0.000 OA
ATOM     12  H   UNL     1      49.054   3.737  19.276  0.00  0.00    +0.000 HD
ATOM     13  H   UNL     1      47.889   2.472  19.564  0.00  0.00    +0.000 HD
ENDBRANCH   7   9
BRANCH   1  15
ATOM     14  C   UNL     1      49.668   6.921  19.130  0.00  0.00    +0.000 C 
ATOM     15  O   UNL     1      48.525   6.139  18.777  0.00  0.00    +0.000 OA
ENDBRANCH   1  15
BRANCH   4  16
ATOM     16  C   UNL     1      48.739   7.636  13.033  0.00  0.00    +0.000 C 
BRANCH  16  17
ATOM     17  C   UNL     1      47.317   7.470  12.560  0.00  0.00    +0.000 A 
ATOM     18  C   UNL     1      46.344   8.413  12.852  0.00  0.00    +0.000 A 
ATOM     19  N   UNL     1      45.074   8.348  12.395  0.00  0.00    +0.000 NA
ATOM     20  C   UNL     1      44.759   7.290  11.608  0.00  0.00    +0.000 A 
ATOM     21  C   UNL     1      45.633   6.261  11.249  0.00  0.00    +0.000 A 
ATOM     22  C   UNL     1      46.940   6.385  11.748  0.00  0.00    +0.000 A 
BRANCH  21  23
ATOM     23  C   UNL     1      45.214   5.118  10.412  0.00  0.00    +0.000 A 
ATOM     24  C   UNL     1      45.612   4.980   9.072  0.00  0.00    +0.000 A 
ATOM     25  C   UNL     1      45.221   3.871   8.320  0.00  0.00    +0.000 A 
ATOM     26  C   UNL     1      44.421   2.918   8.923  0.00  0.00    +0.000 A 
ATOM     27  N   UNL     1      43.999   3.003  10.199  0.00  0.00    +0.000 NA
ATOM     28  C   UNL     1      44.407   4.088  10.904  0.00  0.00    +0.000 A 
ENDBRANCH  21  23
ENDBRANCH  16  17
ENDBRANCH   4  16
TORSDOF 5
ENDMDL
MODEL 5
REMARK VINA RESULT:    -7.130      3.890      8.703
REMARK INTER + INTRA:          -9.678
REMARK INTER:                  -8.941
REMARK INTRA:                  -0.737
REMARK UNBOUND:                -0.464
REMARK  Name = 
REMARK  6 active torsions:
REMARK  status: ('A' for Active; 'I' for Inactive)
REMARK    1  A    between atoms: C_1  and  O_2
REMARK    2  A    between atoms: O_2  and  C_3
REMARK    3  A    between atoms: N_6  and  C_7
REMARK    4  A    between atoms: C_7  and  C_8
REMARK    5  A    between atoms: C_12  and  C_13
REMARK    6  A    between atoms: C_22  and  C_23
REMARK                            x       y       z     vdW  Elec       q    Type
REMARK                         _______ _______ _______ _____ _____    ______ ____
ROOT
ATOM      1  C   UNL     1      45.529   5.695  11.905  0.00  0.00    +0.000 A 
ATOM      2  N   UNL     1      46.053   5.910  13.136  0.00  0.00    +0.000 NA
ATOM      3  C   UNL     1      46.258   4.848  13.917  0.00  0.00    +0.000 A 
ATOM      4  N   UNL     1      46.990   5.083  15.053  0.00  0.00    +0.000 N 
ATOM      5  N   UNL     1      45.878   3.611  13.589  0.00  0.00    +0.000 NA
ATOM      6  C   UNL     1      45.321   3.441  12.366  0.00  0.00    +0.000 A 
ATOM      7  C   UNL     1      45.146   4.452  11.450  0.00  0.00    +0.000 A 
ATOM      8  H   UNL     1      46.915   6.042  15.364  0.00  0.00    +0.000 HD
ENDROOT
BRANCH   7   9
ATOM      9  C   UNL     1      44.634   4.104  10.107  0.00  0.00    +0.000 C 
ATOM     10  N   UNL     1      45.114   4.777   9.022  0.00  0.00    +0.000 N 
ATOM     11  O   UNL     1      43.805   3.213   9.963  0.00  0.00    +0.000 OA
ATOM     12  H   UNL     1      45.818   5.503   9.094  0.00  0.00    +0.000 HD
ATOM     13  H   UNL     1      44.794   4.495   8.105  0.00  0.00    +0.000 HD
ENDBRANCH   7   9
BRANCH   1  15
ATOM     14  C   UNL     1      45.008   7.978  11.751  0.00  0.00    +0.000 C 
ATOM     15  O   UNL     1      45.407   6.789  11.066  0.00  0.00    +0.000 OA
ENDBRANCH   1  15
BRANCH   4  16
ATOM     16  C   UNL     1      47.154   4.041  16.034  0.00  0.00    +0.000 C 
BRANCH  16  17
ATOM     17  C   UNL     1      48.340   4.357  16.911  0.00  0.00    +0.000 A 
ATOM     18  C   UNL     1      48.378   5.505  17.688  0.00  0.00    +0.000 A 
ATOM     19  N   UNL     1      49.383   5.800  18.542  0.00  0.00    +0.000 NA
ATOM     20  C   UNL     1      50.400   4.907  18.625  0.00  0.00    +0.000 A 
ATOM     21  C   UNL     1      50.498   3.723  17.890  0.00  0.00    +0.000 A 
ATOM     22  C   UNL     1      49.422   3.466  17.024  0.00  0.00    +0.000 A 
BRANCH  21  23
ATOM     23  C   UNL     1      51.651   2.808  18.008  0.00  0.00    +0.000 A 
ATOM     24  C   UNL     1      51.649   1.517  17.455  0.00  0.00    +0.000 A 
ATOM     25  C   UNL     1      52.770   0.692  17.559  0.00  0.00    +0.000 A 
ATOM     26  C   UNL     1      53.878   1.171  18.233  0.00  0.00    +0.000 A 
ATOM     27  N   UNL     1      53.934   2.394  18.794  0.00  0.00    +0.000 NA
ATOM     28  C   UNL     1      52.831   3.175  18.664  0.00  0.00    +0.000 A 
ENDBRANCH  21  23
ENDBRANCH  16  17
ENDBRANCH   4  16
TORSDOF 5
ENDMDL
MODEL 6
REMARK VINA RESULT:    -6.939      2.529      4.869
REMARK INTER + INTRA:          -9.431
REMARK INTER:                  -8.596
REMARK INTRA:                  -0.835
REMARK UNBOUND:                -0.464
REMARK  Name = 
REMARK  6 active torsions:
REMARK  status: ('A' for Active; 'I' for Inactive)
REMARK    1  A    between atoms: C_1  and  O_2
REMARK    2  A    between atoms: O_2  and  C_3
REMARK    3  A    between atoms: N_6  and  C_7
REMARK    4  A    between atoms: C_7  and  C_8
REMARK    5  A    between atoms: C_12  and  C_13
REMARK    6  A    between atoms: C_22  and  C_23
REMARK                            x       y       z     vdW  Elec       q    Type
REMARK                         _______ _______ _______ _____ _____    ______ ____
ROOT
ATOM      1  C   UNL     1      48.807   4.241  17.530  0.00  0.00    +0.000 A 
ATOM      2  N   UNL     1      48.538   4.560  16.242  0.00  0.00    +0.000 NA
ATOM      3  C   UNL     1      48.458   5.853  15.926  0.00  0.00    +0.000 A 
ATOM      4  N   UNL     1      48.408   6.133  14.584  0.00  0.00    +0.000 N 
ATOM      5  N   UNL     1      48.526   6.835  16.830  0.00  0.00    +0.000 NA
ATOM      6  C   UNL     1      48.757   6.475  18.115  0.00  0.00    +0.000 A 
ATOM      7  C   UNL     1      48.941   5.178  18.532  0.00  0.00    +0.000 A 
ATOM      8  H   UNL     1      48.020   5.368  14.051  0.00  0.00    +0.000 HD
ENDROOT
BRANCH   7   9
ATOM      9  C   UNL     1      49.304   4.938  19.945  0.00  0.00    +0.000 C 
ATOM     10  N   UNL     1      48.655   3.958  20.638  0.00  0.00    +0.000 N 
ATOM     11  O   UNL     1      50.187   5.594  20.486  0.00  0.00    +0.000 OA
ATOM     12  H   UNL     1      47.937   3.376  20.222  0.00  0.00    +0.000 HD
ATOM     13  H   UNL     1      48.948   3.771  21.588  0.00  0.00    +0.000 HD
ENDBRANCH   7   9
BRANCH   1  15
ATOM     14  C   UNL     1      50.152   2.340  17.233  0.00  0.00    +0.000 C 
ATOM     15  O   UNL     1      48.981   2.901  17.831  0.00  0.00    +0.000 OA
ENDBRANCH   1  15
BRANCH   4  16
ATOM     16  C   UNL     1      48.184   7.483  14.136  0.00  0.00    +0.000 C 
BRANCH  16  17
ATOM     17  C   UNL     1      46.986   7.518  13.220  0.00  0.00    +0.000 A 
ATOM     18  C   UNL     1      46.188   8.647  13.117  0.00  0.00    +0.000 A 
ATOM     19  N   UNL     1      45.147   8.756  12.263  0.00  0.00    +0.000 NA
ATOM     20  C   UNL     1      44.888   7.685  11.473  0.00  0.00    +0.000 A 
ATOM     21  C   UNL     1      45.598   6.481  11.484  0.00  0.00    +0.000 A 
ATOM     22  C   UNL     1      46.672   6.429  12.387  0.00  0.00    +0.000 A 
BRANCH  21  23
ATOM     23  C   UNL     1      45.242   5.341  10.615  0.00  0.00    +0.000 A 
ATOM     24  C   UNL     1      45.709   5.223   9.296  0.00  0.00    +0.000 A 
ATOM     25  C   UNL     1      45.376   4.116   8.515  0.00  0.00    +0.000 A 
ATOM     26  C   UNL     1      44.563   3.144   9.067  0.00  0.00    +0.000 A 
ATOM     27  N   UNL     1      44.075   3.208  10.320  0.00  0.00    +0.000 NA
ATOM     28  C   UNL     1      44.428   4.293  11.056  0.00  0.00    +0.000 A 
ENDBRANCH  21  23
ENDBRANCH  16  17
ENDBRANCH   4  16
TORSDOF 5
ENDMDL
MODEL 7
REMARK VINA RESULT:    -6.922      4.196      9.301
REMARK INTER + INTRA:          -9.410
REMARK INTER:                  -8.608
REMARK INTRA:                  -0.802
REMARK UNBOUND:                -0.464
REMARK  Name = 
REMARK  6 active torsions:
REMARK  status: ('A' for Active; 'I' for Inactive)
REMARK    1  A    between atoms: C_1  and  O_2
REMARK    2  A    between atoms: O_2  and  C_3
REMARK    3  A    between atoms: N_6  and  C_7
REMARK    4  A    between atoms: C_7  and  C_8
REMARK    5  A    between atoms: C_12  and  C_13
REMARK    6  A    between atoms: C_22  and  C_23
REMARK                            x       y       z     vdW  Elec       q    Type
REMARK                         _______ _______ _______ _____ _____    ______ ____
ROOT
ATOM      1  C   UNL     1      45.747   4.068  12.509  0.00  0.00    +0.000 A 
ATOM      2  N   UNL     1      46.225   3.469  13.627  0.00  0.00    +0.000 NA
ATOM      3  C   UNL     1      46.879   4.230  14.506  0.00  0.00    +0.000 A 
ATOM      4  N   UNL     1      47.146   3.638  15.715  0.00  0.00    +0.000 N 
ATOM      5  N   UNL     1      47.172   5.515  14.291  0.00  0.00    +0.000 NA
ATOM      6  C   UNL     1      46.712   6.069  13.145  0.00  0.00    +0.000 A 
ATOM      7  C   UNL     1      45.954   5.398  12.213  0.00  0.00    +0.000 A 
ATOM      8  H   UNL     1      47.205   2.632  15.642  0.00  0.00    +0.000 HD
ENDROOT
BRANCH   7   9
ATOM      9  C   UNL     1      45.417   6.158  11.063  0.00  0.00    +0.000 C 
ATOM     10  N   UNL     1      45.331   5.545   9.847  0.00  0.00    +0.000 N 
ATOM     11  O   UNL     1      45.037   7.315  11.199  0.00  0.00    +0.000 OA
ATOM     12  H   UNL     1      45.611   4.583   9.697  0.00  0.00    +0.000 HD
ATOM     13  H   UNL     1      44.916   6.059   9.082  0.00  0.00    +0.000 HD
ENDBRANCH   7   9
BRANCH   1  15
ATOM     14  C   UNL     1      43.684   3.009  12.151  0.00  0.00    +0.000 C 
ATOM     15  O   UNL     1      44.991   3.294  11.647  0.00  0.00    +0.000 OA
ENDBRANCH   1  15
BRANCH   4  16
ATOM     16  C   UNL     1      47.963   4.318  16.686  0.00  0.00    +0.000 C 
BRANCH  16  17
ATOM     17  C   UNL     1      49.180   3.482  16.995  0.00  0.00    +0.000 A 
ATOM     18  C   UNL     1      49.244   2.143  16.643  0.00  0.00    +0.000 A 
ATOM     19  N   UNL     1      50.335   1.368  16.833  0.00  0.00    +0.000 NA
ATOM     20  C   UNL     1      51.415   1.958  17.402  0.00  0.00    +0.000 A 
ATOM     21  C   UNL     1      51.482   3.289  17.820  0.00  0.00    +0.000 A 
ATOM     22  C   UNL     1      50.322   4.047  17.591  0.00  0.00    +0.000 A 
BRANCH  21  23
ATOM     23  C   UNL     1      52.683   3.860  18.463  0.00  0.00    +0.000 A 
ATOM     24  C   UNL     1      53.936   3.890  17.829  0.00  0.00    +0.000 A 
ATOM     25  C   UNL     1      55.041   4.465  18.455  0.00  0.00    +0.000 A 
ATOM     26  C   UNL     1      54.877   4.994  19.722  0.00  0.00    +0.000 A 
ATOM     27  N   UNL     1      53.705   4.984  20.384  0.00  0.00    +0.000 NA
ATOM     28  C   UNL     1      52.647   4.427  19.741  0.00  0.00    +0.000 A 
ENDBRANCH  21  23
ENDBRANCH  16  17
ENDBRANCH   4  16
TORSDOF 5
ENDMDL
MODEL 8
REMARK VINA RESULT:    -6.811      3.672      9.433
REMARK INTER + INTRA:          -9.266
REMARK INTER:                  -8.472
REMARK INTRA:                  -0.794
REMARK UNBOUND:                -0.464
REMARK  Name = 
REMARK  6 active torsions:
REMARK  status: ('A' for Active; 'I' for Inactive)
REMARK    1  A    between atoms: C_1  and  O_2
REMARK    2  A    between atoms: O_2  and  C_3
REMARK    3  A    between atoms: N_6  and  C_7
REMARK    4  A    between atoms: C_7  and  C_8
REMARK    5  A    between atoms: C_12  and  C_13
REMARK    6  A    between atoms: C_22  and  C_23
REMARK                            x       y       z     vdW  Elec       q    Type
REMARK                         _______ _______ _______ _____ _____    ______ ____
ROOT
ATOM      1  C   UNL     1      45.389   5.636  12.159  0.00  0.00    +0.000 A 
ATOM      2  N   UNL     1      45.963   5.772  13.379  0.00  0.00    +0.000 NA
ATOM      3  C   UNL     1      46.360   4.663  14.005  0.00  0.00    +0.000 A 
ATOM      4  N   UNL     1      47.131   4.859  15.122  0.00  0.00    +0.000 N 
ATOM      5  N   UNL     1      46.126   3.433  13.539  0.00  0.00    +0.000 NA
ATOM      6  C   UNL     1      45.514   3.336  12.335  0.00  0.00    +0.000 A 
ATOM      7  C   UNL     1      45.143   4.415  11.568  0.00  0.00    +0.000 A 
ATOM      8  H   UNL     1      46.950   5.753  15.557  0.00  0.00    +0.000 HD
ENDROOT
BRANCH   7   9
ATOM      9  C   UNL     1      44.592   4.165  10.219  0.00  0.00    +0.000 C 
ATOM     10  N   UNL     1      45.064   4.892   9.165  0.00  0.00    +0.000 N 
ATOM     11  O   UNL     1      43.736   3.305  10.042  0.00  0.00    +0.000 OA
ATOM     12  H   UNL     1      45.787   5.594   9.264  0.00  0.00    +0.000 HD
ATOM     13  H   UNL     1      44.714   4.675   8.242  0.00  0.00    +0.000 HD
ENDBRANCH   7   9
BRANCH   1  15
ATOM     14  C   UNL     1      45.447   7.982  12.175  0.00  0.00    +0.000 C 
ATOM     15  O   UNL     1      45.065   6.795  11.476  0.00  0.00    +0.000 OA
ENDBRANCH   1  15
BRANCH   4  16
ATOM     16  C   UNL     1      47.499   3.740  15.951  0.00  0.00    +0.000 C 
BRANCH  16  17
ATOM     17  C   UNL     1      47.803   4.224  17.347  0.00  0.00    +0.000 A 
ATOM     18  C   UNL     1      48.370   3.385  18.294  0.00  0.00    +0.000 A 
ATOM     19  N   UNL     1      48.725   3.786  19.534  0.00  0.00    +0.000 NA
ATOM     20  C   UNL     1      48.503   5.087  19.846  0.00  0.00    +0.000 A 
ATOM     21  C   UNL     1      47.925   6.034  18.997  0.00  0.00    +0.000 A 
ATOM     22  C   UNL     1      47.583   5.562  17.719  0.00  0.00    +0.000 A 
BRANCH  21  23
ATOM     23  C   UNL     1      47.684   7.431  19.412  0.00  0.00    +0.000 A 
ATOM     24  C   UNL     1      47.464   7.792  20.751  0.00  0.00    +0.000 A 
ATOM     25  C   UNL     1      47.270   9.126  21.110  0.00  0.00    +0.000 A 
ATOM     26  C   UNL     1      47.285  10.084  20.112  0.00  0.00    +0.000 A 
ATOM     27  N   UNL     1      47.479   9.796  18.811  0.00  0.00    +0.000 NA
ATOM     28  C   UNL     1      47.675   8.490  18.499  0.00  0.00    +0.000 A 
ENDBRANCH  21  23
ENDBRANCH  16  17
ENDBRANCH   4  16
TORSDOF 5
ENDMDL
MODEL 9
REMARK VINA RESULT:    -6.779      2.163      3.119
REMARK INTER + INTRA:          -9.224
REMARK INTER:                  -8.361
REMARK INTRA:                  -0.863
REMARK UNBOUND:                -0.464
REMARK  Name = 
REMARK  6 active torsions:
REMARK  status: ('A' for Active; 'I' for Inactive)
REMARK    1  A    between atoms: C_1  and  O_2
REMARK    2  A    between atoms: O_2  and  C_3
REMARK    3  A    between atoms: N_6  and  C_7
REMARK    4  A    between atoms: C_7  and  C_8
REMARK    5  A    between atoms: C_12  and  C_13
REMARK    6  A    between atoms: C_22  and  C_23
REMARK                            x       y       z     vdW  Elec       q    Type
REMARK                         _______ _______ _______ _____ _____    ______ ____
ROOT
ATOM      1  C   UNL     1      47.578   8.922  12.589  0.00  0.00    +0.000 A 
ATOM      2  N   UNL     1      46.522   8.093  12.408  0.00  0.00    +0.000 NA
ATOM      3  C   UNL     1      46.563   6.898  12.999  0.00  0.00    +0.000 A 
ATOM      4  N   UNL     1      45.390   6.187  12.977  0.00  0.00    +0.000 N 
ATOM      5  N   UNL     1      47.627   6.445  13.666  0.00  0.00    +0.000 NA
ATOM      6  C   UNL     1      48.680   7.287  13.793  0.00  0.00    +0.000 A 
ATOM      7  C   UNL     1      48.707   8.570  13.298  0.00  0.00    +0.000 A 
ATOM      8  H   UNL     1      44.806   6.441  12.192  0.00  0.00    +0.000 HD
ENDROOT
BRANCH   7   9
ATOM      9  C   UNL     1      49.874   9.422  13.612  0.00  0.00    +0.000 C 
ATOM     10  N   UNL     1      50.242  10.392  12.726  0.00  0.00    +0.000 N 
ATOM     11  O   UNL     1      50.495   9.274  14.658  0.00  0.00    +0.000 OA
ATOM     12  H   UNL     1      49.742  10.564  11.861  0.00  0.00    +0.000 HD
ATOM     13  H   UNL     1      51.011  11.000  12.976  0.00  0.00    +0.000 HD
ENDBRANCH   7   9
BRANCH   1  15
ATOM     14  C   UNL     1      46.144  10.585  11.760  0.00  0.00    +0.000 C 
ATOM     15  O   UNL     1      47.488  10.194  12.051  0.00  0.00    +0.000 OA
ENDBRANCH   1  15
BRANCH   4  16
ATOM     16  C   UNL     1      45.357   4.832  13.463  0.00  0.00    +0.000 C 
BRANCH  16  17
ATOM     17  C   UNL     1      44.818   3.923  12.388  0.00  0.00    +0.000 A 
ATOM     18  C   UNL     1      43.612   3.258  12.543  0.00  0.00    +0.000 A 
ATOM     19  N   UNL     1      43.050   2.488  11.585  0.00  0.00    +0.000 NA
ATOM     20  C   UNL     1      43.726   2.375  10.415  0.00  0.00    +0.000 A 
ATOM     21  C   UNL     1      44.955   2.975  10.130  0.00  0.00    +0.000 A 
ATOM     22  C   UNL     1      45.486   3.768  11.161  0.00  0.00    +0.000 A 
BRANCH  21  23
ATOM     23  C   UNL     1      45.652   2.785   8.842  0.00  0.00    +0.000 A 
ATOM     24  C   UNL     1      45.956   3.854   7.984  0.00  0.00    +0.000 A 
ATOM     25  C   UNL     1      46.643   3.640   6.789  0.00  0.00    +0.000 A 
ATOM     26  C   UNL     1      47.006   2.347   6.462  0.00  0.00    +0.000 A 
ATOM     27  N   UNL     1      46.732   1.281   7.238  0.00  0.00    +0.000 NA
ATOM     28  C   UNL     1      46.072   1.526   8.399  0.00  0.00    +0.000 A 
ENDBRANCH  21  23
ENDBRANCH  16  17
ENDBRANCH   4  16
TORSDOF 5
ENDMDL
