MODEL 1
REMARK VINA RESULT:    -8.283      0.000      0.000
REMARK INTER + INTRA:         -13.320
REMARK INTER:                 -12.399
REMARK INTRA:                  -0.922
REMARK UNBOUND:                -0.922
REMARK  Name = 
REMARK  10 active torsions:
REMARK  status: ('A' for Active; 'I' for Inactive)
REMARK    1  A    between atoms: C_1  and  C_2
REMARK    2  A    between atoms: C_2  and  O_3
REMARK    3  A    between atoms: O_3  and  C_4
REMARK    4  A    between atoms: C_6  and  C_7
REMARK    5  A    between atoms: C_7  and  C_8
REMARK    6  A    between atoms: C_8  and  N_9
REMARK    7  A    between atoms: C_13  and  C_14
REMARK    8  A    between atoms: C_20  and  C_21
REMARK    9  A    between atoms: C_21  and  C_22
REMARK   10  A    between atoms: C_28  and  O_29
REMARK                            x       y       z     vdW  Elec       q    Type
REMARK                         _______ _______ _______ _____ _____    ______ ____
ROOT
ATOM      1  C   UNL     1      47.142   5.141  14.188  0.00  0.00    +0.000 A 
ATOM      2  C   UNL     1      45.848   4.762  13.797  0.00  0.00    +0.000 A 
ATOM      3  C   UNL     1      45.092   5.577  12.928  0.00  0.00    +0.000 A 
ATOM      4  C   UNL     1      45.651   6.796  12.509  0.00  0.00    +0.000 A 
ATOM      5  C   UNL     1      46.904   7.213  12.950  0.00  0.00    +0.000 A 
ATOM      6  C   UNL     1      47.649   6.357  13.759  0.00  0.00    +0.000 A 
ENDROOT
BRANCH   1   7
ATOM      7  O   UNL     1      47.854   4.312  15.025  0.00  0.00    +0.000 OA
BRANCH   7   9
ATOM      8  C   UNL     1      49.219   5.961  16.257  0.00  0.00    +0.000 C 
ATOM      9  C   UNL     1      48.229   4.797  16.362  0.00  0.00    +0.000 C 
ATOM     10  C   UNL     1      47.113   4.981  17.443  0.00  0.00    +0.000 C 
ATOM     11  C   UNL     1      47.477   3.627  18.053  0.00  0.00    +0.000 C 
ATOM     12  C   UNL     1      48.807   3.674  17.288  0.00  0.00    +0.000 C 
BRANCH  11  13
ATOM     13  O   UNL     1      46.592   2.530  17.754  0.00  0.00    +0.000 OA
ATOM     14  H   UNL     1      46.545   2.485  16.780  0.00  0.00    +0.000 HD
ENDBRANCH  11  13
ENDBRANCH   7   9
ENDBRANCH   1   7
BRANCH   3  15
ATOM     15  C   UNL     1      43.690   5.150  12.471  0.00  0.00    +0.000 C 
BRANCH  15  16
ATOM     16  C   UNL     1      43.615   4.762  10.978  0.00  0.00    +0.000 C 
BRANCH  16  17
ATOM     17  N   UNL     1      43.804   3.328  10.708  0.00  0.00    +0.000 N 
ATOM     18  C   UNL     1      44.700   3.127   9.635  0.00  0.00    +0.000 A 
ATOM     19  C   UNL     1      45.020   1.835   9.202  0.00  0.00    +0.000 A 
ATOM     20  N   UNL     1      45.882   1.550   8.181  0.00  0.00    +0.000 NA
ATOM     21  C   UNL     1      46.438   2.646   7.596  0.00  0.00    +0.000 A 
ATOM     22  C   UNL     1      46.144   3.935   8.005  0.00  0.00    +0.000 A 
ATOM     23  N   UNL     1      45.278   4.192   9.024  0.00  0.00    +0.000 NA
ATOM     24  H   UNL     1      42.928   2.864  10.498  0.00  0.00    +0.000 HD
BRANCH  21  25
ATOM     25  C   UNL     1      47.409   2.456   6.471  0.00  0.00    +0.000 C 
ATOM     26  N   UNL     1      47.232   3.285   5.391  0.00  0.00    +0.000 N 
ATOM     27  O   UNL     1      48.299   1.617   6.511  0.00  0.00    +0.000 OA
ATOM     28  H   UNL     1      46.478   3.960   5.376  0.00  0.00    +0.000 HD
ATOM     29  H   UNL     1      47.845   3.185   4.599  0.00  0.00    +0.000 HD
ENDBRANCH  21  25
ENDBRANCH  16  17
ENDBRANCH  15  16
ENDBRANCH   3  15
BRANCH   5  30
ATOM     30  C   UNL     1      47.420   8.595  12.625  0.00  0.00    +0.000 C 
BRANCH  30  31
ATOM     31  C   UNL     1      48.695   8.675  11.797  0.00  0.00    +0.000 C 
ATOM     32  F   UNL     1      48.765   9.770  11.012  0.00  0.00    +0.000 F 
ATOM     33  F   UNL     1      49.783   8.680  12.601  0.00  0.00    +0.000 F 
ATOM     34  F   UNL     1      48.796   7.593  10.988  0.00  0.00    +0.000 F 
ENDBRANCH  30  31
ENDBRANCH   5  30
TORSDOF 9
ENDMDL
MODEL 2
REMARK VINA RESULT:    -8.204      2.604      4.164
REMARK INTER + INTRA:         -13.202
REMARK INTER:                 -11.816
REMARK INTRA:                  -1.387
REMARK UNBOUND:                -0.922
REMARK  Name = 
REMARK  10 active torsions:
REMARK  status: ('A' for Active; 'I' for Inactive)
REMARK    1  A    between atoms: C_1  and  C_2
REMARK    2  A    between atoms: C_2  and  O_3
REMARK    3  A    between atoms: O_3  and  C_4
REMARK    4  A    between atoms: C_6  and  C_7
REMARK    5  A    between atoms: C_7  and  C_8
REMARK    6  A    between atoms: C_8  and  N_9
REMARK    7  A    between atoms: C_13  and  C_14
REMARK    8  A    between atoms: C_20  and  C_21
REMARK    9  A    between atoms: C_21  and  C_22
REMARK   10  A    between atoms: C_28  and  O_29
REMARK                            x       y       z     vdW  Elec       q    Type
REMARK                         _______ _______ _______ _____ _____    ______ ____
ROOT
ATOM      1  C   UNL     1      47.346   6.563  12.349  0.00  0.00    +0.000 A 
ATOM      2  C   UNL     1      46.016   6.555  11.900  0.00  0.00    +0.000 A 
ATOM      3  C   UNL     1      45.069   5.679  12.473  0.00  0.00    +0.000 A 
ATOM      4  C   UNL     1      45.508   4.786  13.464  0.00  0.00    +0.000 A 
ATOM      5  C   UNL     1      46.841   4.736  13.864  0.00  0.00    +0.000 A 
ATOM      6  C   UNL     1      47.737   5.656  13.322  0.00  0.00    +0.000 A 
ENDROOT
BRANCH   1   7
ATOM      7  O   UNL     1      48.237   7.443  11.777  0.00  0.00    +0.000 OA
BRANCH   7   9
ATOM      8  C   UNL     1      47.740   9.862  11.829  0.00  0.00    +0.000 C 
ATOM      9  C   UNL     1      48.529   8.711  12.462  0.00  0.00    +0.000 C 
ATOM     10  C   UNL     1      48.581   8.734  14.026  0.00  0.00    +0.000 C 
ATOM     11  C   UNL     1      50.107   8.642  13.979  0.00  0.00    +0.000 C 
ATOM     12  C   UNL     1      50.056   9.056  12.502  0.00  0.00    +0.000 C 
BRANCH  11  13
ATOM     13  O   UNL     1      50.680   7.354  14.274  0.00  0.00    +0.000 OA
ATOM     14  H   UNL     1      51.646   7.490  14.285  0.00  0.00    +0.000 HD
ENDBRANCH  11  13
ENDBRANCH   7   9
ENDBRANCH   1   7
BRANCH   3  15
ATOM     15  C   UNL     1      43.606   5.692  12.009  0.00  0.00    +0.000 C 
BRANCH  15  16
ATOM     16  C   UNL     1      43.385   5.023  10.635  0.00  0.00    +0.000 C 
BRANCH  16  17
ATOM     17  N   UNL     1      43.707   3.587  10.594  0.00  0.00    +0.000 N 
ATOM     18  C   UNL     1      44.616   3.301   9.552  0.00  0.00    +0.000 A 
ATOM     19  C   UNL     1      45.054   1.990   9.325  0.00  0.00    +0.000 A 
ATOM     20  N   UNL     1      45.937   1.625   8.348  0.00  0.00    +0.000 NA
ATOM     21  C   UNL     1      46.388   2.661   7.587  0.00  0.00    +0.000 A 
ATOM     22  C   UNL     1      45.975   3.965   7.790  0.00  0.00    +0.000 A 
ATOM     23  N   UNL     1      45.090   4.302   8.769  0.00  0.00    +0.000 NA
ATOM     24  H   UNL     1      42.877   3.018  10.475  0.00  0.00    +0.000 HD
BRANCH  21  25
ATOM     25  C   UNL     1      47.369   2.382   6.490  0.00  0.00    +0.000 C 
ATOM     26  N   UNL     1      47.281   3.204   5.394  0.00  0.00    +0.000 N 
ATOM     27  O   UNL     1      48.195   1.481   6.566  0.00  0.00    +0.000 OA
ATOM     28  H   UNL     1      46.579   3.932   5.350  0.00  0.00    +0.000 HD
ATOM     29  H   UNL     1      47.905   3.048   4.621  0.00  0.00    +0.000 HD
ENDBRANCH  21  25
ENDBRANCH  16  17
ENDBRANCH  15  16
ENDBRANCH   3  15
BRANCH   5  30
ATOM     30  C   UNL     1      47.329   3.662  14.807  0.00  0.00    +0.000 C 
BRANCH  30  31
ATOM     31  C   UNL     1      47.624   4.088  16.239  0.00  0.00    +0.000 C 
ATOM     32  F   UNL     1      47.856   5.411  16.374  0.00  0.00    +0.000 F 
ATOM     33  F   UNL     1      46.588   3.771  17.050  0.00  0.00    +0.000 F 
ATOM     34  F   UNL     1      48.716   3.438  16.705  0.00  0.00    +0.000 F 
ENDBRANCH  30  31
ENDBRANCH   5  30
TORSDOF 9
ENDMDL
MODEL 3
REMARK VINA RESULT:    -7.251      3.075      4.821
REMARK INTER + INTRA:         -11.775
REMARK INTER:                 -10.713
REMARK INTRA:                  -1.062
REMARK UNBOUND:                -0.922
REMARK  Name = 
REMARK  10 active torsions:
REMARK  status: ('A' for Active; 'I' for Inactive)
REMARK    1  A    between atoms: C_1  and  C_2
REMARK    2  A    between atoms: C_2  and  O_3
REMARK    3  A    between atoms: O_3  and  C_4
REMARK    4  A    between atoms: C_6  and  C_7
REMARK    5  A    between atoms: C_7  and  C_8
REMARK    6  A    between atoms: C_8  and  N_9
REMARK    7  A    between atoms: C_13  and  C_14
REMARK    8  A    between atoms: C_20  and  C_21
REMARK    9  A    between atoms: C_21  and  C_22
REMARK   10  A    between atoms: C_28  and  O_29
REMARK                            x       y       z     vdW  Elec       q    Type
REMARK                         _______ _______ _______ _____ _____    ______ ____
ROOT
ATOM      1  C   UNL     1      46.526   6.848  12.400  0.00  0.00    +0.000 A 
ATOM      2  C   UNL     1      45.434   6.033  12.064  0.00  0.00    +0.000 A 
ATOM      3  C   UNL     1      45.059   4.954  12.894  0.00  0.00    +0.000 A 
ATOM      4  C   UNL     1      45.840   4.693  14.032  0.00  0.00    +0.000 A 
ATOM      5  C   UNL     1      46.968   5.451  14.334  0.00  0.00    +0.000 A 
ATOM      6  C   UNL     1      47.274   6.546  13.527  0.00  0.00    +0.000 A 
ENDROOT
BRANCH   1   7
ATOM      7  O   UNL     1      46.851   7.900  11.574  0.00  0.00    +0.000 OA
BRANCH   7   9
ATOM      8  C   UNL     1      47.636   9.956  12.695  0.00  0.00    +0.000 C 
ATOM      9  C   UNL     1      46.475   9.265  11.973  0.00  0.00    +0.000 C 
ATOM     10  C   UNL     1      45.707  10.169  10.954  0.00  0.00    +0.000 C 
ATOM     11  C   UNL     1      44.384   9.822  11.639  0.00  0.00    +0.000 C 
ATOM     12  C   UNL     1      45.180   9.319  12.851  0.00  0.00    +0.000 C 
BRANCH  11  13
ATOM     13  O   UNL     1      43.546   8.862  10.967  0.00  0.00    +0.000 OA
ATOM     14  H   UNL     1      43.087   9.358  10.263  0.00  0.00    +0.000 HD
ENDBRANCH  11  13
ENDBRANCH   7   9
ENDBRANCH   1   7
BRANCH   3  15
ATOM     15  C   UNL     1      43.845   4.081  12.549  0.00  0.00    +0.000 C 
BRANCH  15  16
ATOM     16  C   UNL     1      43.673   3.829  11.036  0.00  0.00    +0.000 C 
BRANCH  16  17
ATOM     17  N   UNL     1      44.086   2.489  10.587  0.00  0.00    +0.000 N 
ATOM     18  C   UNL     1      44.910   2.569   9.444  0.00  0.00    +0.000 A 
ATOM     19  C   UNL     1      45.413   1.408   8.843  0.00  0.00    +0.000 A 
ATOM     20  N   UNL     1      46.223   1.393   7.742  0.00  0.00    +0.000 NA
ATOM     21  C   UNL     1      46.529   2.628   7.256  0.00  0.00    +0.000 A 
ATOM     22  C   UNL     1      46.050   3.791   7.831  0.00  0.00    +0.000 A 
ATOM     23  N   UNL     1      45.240   3.779   8.926  0.00  0.00    +0.000 NA
ATOM     24  H   UNL     1      43.289   1.898  10.381  0.00  0.00    +0.000 HD
BRANCH  21  25
ATOM     25  C   UNL     1      47.420   2.735   6.057  0.00  0.00    +0.000 C 
ATOM     26  N   UNL     1      48.753   2.503   6.288  0.00  0.00    +0.000 N 
ATOM     27  O   UNL     1      46.989   3.013   4.945  0.00  0.00    +0.000 OA
ATOM     28  H   UNL     1      49.086   2.290   7.220  0.00  0.00    +0.000 HD
ATOM     29  H   UNL     1      49.399   2.581   5.520  0.00  0.00    +0.000 HD
ENDBRANCH  21  25
ENDBRANCH  16  17
ENDBRANCH  15  16
ENDBRANCH   3  15
BRANCH   5  30
ATOM     30  C   UNL     1      47.889   5.057  15.464  0.00  0.00    +0.000 C 
BRANCH  30  31
ATOM     31  C   UNL     1      47.733   3.648  16.018  0.00  0.00    +0.000 C 
ATOM     32  F   UNL     1      46.679   3.506  16.849  0.00  0.00    +0.000 F 
ATOM     33  F   UNL     1      47.580   2.757  15.011  0.00  0.00    +0.000 F 
ATOM     34  F   UNL     1      48.841   3.291  16.709  0.00  0.00    +0.000 F 
ENDBRANCH  30  31
ENDBRANCH   5  30
TORSDOF 9
ENDMDL
MODEL 4
REMARK VINA RESULT:    -7.093      4.614      8.212
REMARK INTER + INTRA:         -11.539
REMARK INTER:                 -10.243
REMARK INTRA:                  -1.296
REMARK UNBOUND:                -0.922
REMARK  Name = 
REMARK  10 active torsions:
REMARK  status: ('A' for Active; 'I' for Inactive)
REMARK    1  A    between atoms: C_1  and  C_2
REMARK    2  A    between atoms: C_2  and  O_3
REMARK    3  A    between atoms: O_3  and  C_4
REMARK    4  A    between atoms: C_6  and  C_7
REMARK    5  A    between atoms: C_7  and  C_8
REMARK    6  A    between atoms: C_8  and  N_9
REMARK    7  A    between atoms: C_13  and  C_14
REMARK    8  A    between atoms: C_20  and  C_21
REMARK    9  A    between atoms: C_21  and  C_22
REMARK   10  A    between atoms: C_28  and  O_29
REMARK                            x       y       z     vdW  Elec       q    Type
REMARK                         _______ _______ _______ _____ _____    ______ ____
ROOT
ATOM      1  C   UNL     1      45.096   8.658  12.072  0.00  0.00    +0.000 A 
ATOM      2  C   UNL     1      46.465   8.963  12.139  0.00  0.00    +0.000 A 
ATOM      3  C   UNL     1      47.435   7.984  11.833  0.00  0.00    +0.000 A 
ATOM      4  C   UNL     1      46.992   6.690  11.512  0.00  0.00    +0.000 A 
ATOM      5  C   UNL     1      45.639   6.360  11.514  0.00  0.00    +0.000 A 
ATOM      6  C   UNL     1      44.705   7.365  11.761  0.00  0.00    +0.000 A 
ENDROOT
BRANCH   1   7
ATOM      7  O   UNL     1      44.180   9.643  12.362  0.00  0.00    +0.000 OA
BRANCH   7   9
ATOM      8  C   UNL     1      44.753  11.509  10.848  0.00  0.00    +0.000 C 
ATOM      9  C   UNL     1      43.682  10.499  11.275  0.00  0.00    +0.000 C 
ATOM     10  C   UNL     1      42.892   9.844  10.094  0.00  0.00    +0.000 C 
ATOM     11  C   UNL     1      41.572  10.252  10.747  0.00  0.00    +0.000 C 
ATOM     12  C   UNL     1      42.348  11.239  11.629  0.00  0.00    +0.000 C 
BRANCH  11  13
ATOM     13  O   UNL     1      40.841   9.211  11.423  0.00  0.00    +0.000 OA
ATOM     14  H   UNL     1      41.516   8.605  11.782  0.00  0.00    +0.000 HD
ENDBRANCH  11  13
ENDBRANCH   7   9
ENDBRANCH   1   7
BRANCH   3  15
ATOM     15  C   UNL     1      48.932   8.322  11.871  0.00  0.00    +0.000 C 
BRANCH  15  16
ATOM     16  C   UNL     1      49.775   7.317  12.685  0.00  0.00    +0.000 C 
BRANCH  16  17
ATOM     17  N   UNL     1      50.019   7.713  14.082  0.00  0.00    +0.000 N 
ATOM     18  C   UNL     1      49.292   6.896  14.975  0.00  0.00    +0.000 A 
ATOM     19  C   UNL     1      49.372   7.102  16.358  0.00  0.00    +0.000 A 
ATOM     20  N   UNL     1      48.711   6.355  17.293  0.00  0.00    +0.000 NA
ATOM     21  C   UNL     1      47.949   5.354  16.772  0.00  0.00    +0.000 A 
ATOM     22  C   UNL     1      47.855   5.125  15.411  0.00  0.00    +0.000 A 
ATOM     23  N   UNL     1      48.521   5.886  14.499  0.00  0.00    +0.000 NA
ATOM     24  H   UNL     1      49.777   8.682  14.247  0.00  0.00    +0.000 HD
BRANCH  21  25
ATOM     25  C   UNL     1      47.187   4.462  17.703  0.00  0.00    +0.000 C 
ATOM     26  N   UNL     1      47.120   4.889  19.007  0.00  0.00    +0.000 N 
ATOM     27  O   UNL     1      46.660   3.423  17.329  0.00  0.00    +0.000 OA
ATOM     28  H   UNL     1      47.577   5.745  19.295  0.00  0.00    +0.000 HD
ATOM     29  H   UNL     1      46.636   4.317  19.679  0.00  0.00    +0.000 HD
ENDBRANCH  21  25
ENDBRANCH  16  17
ENDBRANCH  15  16
ENDBRANCH   3  15
BRANCH   5  30
ATOM     30  C   UNL     1      45.189   4.930  11.330  0.00  0.00    +0.000 C 
BRANCH  30  31
ATOM     31  C   UNL     1      44.949   4.465   9.900  0.00  0.00    +0.000 C 
ATOM     32  F   UNL     1      45.227   3.160   9.701  0.00  0.00    +0.000 F 
ATOM     33  F   UNL     1      43.659   4.665   9.546  0.00  0.00    +0.000 F 
ATOM     34  F   UNL     1      45.718   5.176   9.041  0.00  0.00    +0.000 F 
ENDBRANCH  30  31
ENDBRANCH   5  30
TORSDOF 9
ENDMDL
MODEL 5
REMARK VINA RESULT:    -7.010      3.222      4.445
REMARK INTER + INTRA:         -11.415
REMARK INTER:                  -9.995
REMARK INTRA:                  -1.420
REMARK UNBOUND:                -0.922
REMARK  Name = 
REMARK  10 active torsions:
REMARK  status: ('A' for Active; 'I' for Inactive)
REMARK    1  A    between atoms: C_1  and  C_2
REMARK    2  A    between atoms: C_2  and  O_3
REMARK    3  A    between atoms: O_3  and  C_4
REMARK    4  A    between atoms: C_6  and  C_7
REMARK    5  A    between atoms: C_7  and  C_8
REMARK    6  A    between atoms: C_8  and  N_9
REMARK    7  A    between atoms: C_13  and  C_14
REMARK    8  A    between atoms: C_20  and  C_21
REMARK    9  A    between atoms: C_21  and  C_22
REMARK   10  A    between atoms: C_28  and  O_29
REMARK                            x       y       z     vdW  Elec       q    Type
REMARK                         _______ _______ _______ _____ _____    ______ ____
ROOT
ATOM      1  C   UNL     1      49.243   6.585  16.242  0.00  0.00    +0.000 A 
ATOM      2  C   UNL     1      48.731   6.697  14.940  0.00  0.00    +0.000 A 
ATOM      3  C   UNL     1      48.172   7.912  14.490  0.00  0.00    +0.000 A 
ATOM      4  C   UNL     1      48.099   8.983  15.396  0.00  0.00    +0.000 A 
ATOM      5  C   UNL     1      48.538   8.858  16.711  0.00  0.00    +0.000 A 
ATOM      6  C   UNL     1      49.141   7.664  17.105  0.00  0.00    +0.000 A 
ENDROOT
BRANCH   1   7
ATOM      7  O   UNL     1      49.795   5.388  16.640  0.00  0.00    +0.000 OA
BRANCH   7   9
ATOM      8  C   UNL     1      49.882   4.402  18.903  0.00  0.00    +0.000 C 
ATOM      9  C   UNL     1      49.071   4.554  17.612  0.00  0.00    +0.000 C 
ATOM     10  C   UNL     1      47.540   4.793  17.824  0.00  0.00    +0.000 C 
ATOM     11  C   UNL     1      47.225   3.623  16.892  0.00  0.00    +0.000 C 
ATOM     12  C   UNL     1      48.676   3.148  17.048  0.00  0.00    +0.000 C 
BRANCH  11  13
ATOM     13  O   UNL     1      46.792   3.963  15.560  0.00  0.00    +0.000 OA
ATOM     14  H   UNL     1      46.774   4.937  15.527  0.00  0.00    +0.000 HD
ENDBRANCH  11  13
ENDBRANCH   7   9
ENDBRANCH   1   7
BRANCH   3  15
ATOM     15  C   UNL     1      47.641   8.050  13.056  0.00  0.00    +0.000 C 
BRANCH  15  16
ATOM     16  C   UNL     1      46.161   7.638  12.900  0.00  0.00    +0.000 C 
BRANCH  16  17
ATOM     17  N   UNL     1      45.853   6.274  13.359  0.00  0.00    +0.000 N 
ATOM     18  C   UNL     1      45.537   5.432  12.270  0.00  0.00    +0.000 A 
ATOM     19  C   UNL     1      45.203   4.088  12.480  0.00  0.00    +0.000 A 
ATOM     20  N   UNL     1      44.892   3.202  11.486  0.00  0.00    +0.000 NA
ATOM     21  C   UNL     1      44.940   3.729  10.232  0.00  0.00    +0.000 A 
ATOM     22  C   UNL     1      45.270   5.051   9.995  0.00  0.00    +0.000 A 
ATOM     23  N   UNL     1      45.572   5.916  11.003  0.00  0.00    +0.000 NA
ATOM     24  H   UNL     1      45.086   6.263  14.020  0.00  0.00    +0.000 HD
BRANCH  21  25
ATOM     25  C   UNL     1      44.629   2.847   9.062  0.00  0.00    +0.000 C 
ATOM     26  N   UNL     1      44.476   3.492   7.859  0.00  0.00    +0.000 N 
ATOM     27  O   UNL     1      44.518   1.633   9.170  0.00  0.00    +0.000 OA
ATOM     28  H   UNL     1      44.558   4.499   7.800  0.00  0.00    +0.000 HD
ATOM     29  H   UNL     1      44.247   2.949   7.044  0.00  0.00    +0.000 HD
ENDBRANCH  21  25
ENDBRANCH  16  17
ENDBRANCH  15  16
ENDBRANCH   3  15
BRANCH   5  30
ATOM     30  C   UNL     1      48.303   9.960  17.716  0.00  0.00    +0.000 C 
BRANCH  30  31
ATOM     31  C   UNL     1      47.628   9.565  19.023  0.00  0.00    +0.000 C 
ATOM     32  F   UNL     1      48.492   9.168  19.981  0.00  0.00    +0.000 F 
ATOM     33  F   UNL     1      46.916  10.602  19.521  0.00  0.00    +0.000 F 
ATOM     34  F   UNL     1      46.763   8.545  18.813  0.00  0.00    +0.000 F 
ENDBRANCH  30  31
ENDBRANCH   5  30
TORSDOF 9
ENDMDL
MODEL 6
REMARK VINA RESULT:    -6.881      1.550      2.199
REMARK INTER + INTRA:         -11.221
REMARK INTER:                 -10.597
REMARK INTRA:                  -0.624
REMARK UNBOUND:                -0.922
REMARK  Name = 
REMARK  10 active torsions:
REMARK  status: ('A' for Active; 'I' for Inactive)
REMARK    1  A    between atoms: C_1  and  C_2
REMARK    2  A    between atoms: C_2  and  O_3
REMARK    3  A    between atoms: O_3  and  C_4
REMARK    4  A    between atoms: C_6  and  C_7
REMARK    5  A    between atoms: C_7  and  C_8
REMARK    6  A    between atoms: C_8  and  N_9
REMARK    7  A    between atoms: C_13  and  C_14
REMARK    8  A    between atoms: C_20  and  C_21
REMARK    9  A    between atoms: C_21  and  C_22
REMARK   10  A    between atoms: C_28  and  O_29
REMARK                            x       y       z     vdW  Elec       q    Type
REMARK                         _______ _______ _______ _____ _____    ______ ____
ROOT
ATOM      1  C   UNL     1      47.835   5.948  14.340  0.00  0.00    +0.000 A 
ATOM      2  C   UNL     1      46.483   5.728  14.030  0.00  0.00    +0.000 A 
ATOM      3  C   UNL     1      45.961   6.110  12.776  0.00  0.00    +0.000 A 
ATOM      4  C   UNL     1      46.818   6.759  11.872  0.00  0.00    +0.000 A 
ATOM      5  C   UNL     1      48.141   7.047  12.198  0.00  0.00    +0.000 A 
ATOM      6  C   UNL     1      48.641   6.601  13.421  0.00  0.00    +0.000 A 
ENDROOT
BRANCH   1   7
ATOM      7  O   UNL     1      48.311   5.547  15.568  0.00  0.00    +0.000 OA
BRANCH   7   9
ATOM      8  C   UNL     1      50.393   5.607  16.894  0.00  0.00    +0.000 C 
ATOM      9  C   UNL     1      49.244   6.423  16.293  0.00  0.00    +0.000 C 
ATOM     10  C   UNL     1      49.674   7.779  15.643  0.00  0.00    +0.000 C 
ATOM     11  C   UNL     1      48.639   8.517  16.492  0.00  0.00    +0.000 C 
ATOM     12  C   UNL     1      48.551   7.284  17.401  0.00  0.00    +0.000 C 
BRANCH  11  13
ATOM     13  O   UNL     1      47.428   8.919  15.822  0.00  0.00    +0.000 OA
ATOM     14  H   UNL     1      47.706   9.248  14.947  0.00  0.00    +0.000 HD
ENDBRANCH  11  13
ENDBRANCH   7   9
ENDBRANCH   1   7
BRANCH   3  15
ATOM     15  C   UNL     1      44.492   5.840  12.421  0.00  0.00    +0.000 C 
BRANCH  15  16
ATOM     16  C   UNL     1      44.284   5.347  10.973  0.00  0.00    +0.000 C 
BRANCH  16  17
ATOM     17  N   UNL     1      44.299   3.884  10.815  0.00  0.00    +0.000 N 
ATOM     18  C   UNL     1      45.037   3.504   9.673  0.00  0.00    +0.000 A 
ATOM     19  C   UNL     1      45.176   2.154   9.328  0.00  0.00    +0.000 A 
ATOM     20  N   UNL     1      45.878   1.698   8.248  0.00  0.00    +0.000 NA
ATOM     21  C   UNL     1      46.465   2.679   7.507  0.00  0.00    +0.000 A 
ATOM     22  C   UNL     1      46.348   4.020   7.827  0.00  0.00    +0.000 A 
ATOM     23  N   UNL     1      45.639   4.449   8.907  0.00  0.00    +0.000 NA
ATOM     24  H   UNL     1      43.363   3.502  10.747  0.00  0.00    +0.000 HD
BRANCH  21  25
ATOM     25  C   UNL     1      47.271   2.296   6.304  0.00  0.00    +0.000 C 
ATOM     26  N   UNL     1      47.257   3.200   5.271  0.00  0.00    +0.000 N 
ATOM     27  O   UNL     1      47.899   1.247   6.245  0.00  0.00    +0.000 OA
ATOM     28  H   UNL     1      46.717   4.054   5.339  0.00  0.00    +0.000 HD
ATOM     29  H   UNL     1      47.767   2.983   4.431  0.00  0.00    +0.000 HD
ENDBRANCH  21  25
ENDBRANCH  16  17
ENDBRANCH  15  16
ENDBRANCH   3  15
BRANCH   5  30
ATOM     30  C   UNL     1      49.000   7.889  11.285  0.00  0.00    +0.000 C 
BRANCH  30  31
ATOM     31  C   UNL     1      49.048   9.383  11.572  0.00  0.00    +0.000 C 
ATOM     32  F   UNL     1      49.517   9.685  12.801  0.00  0.00    +0.000 F 
ATOM     33  F   UNL     1      49.834  10.014  10.669  0.00  0.00    +0.000 F 
ATOM     34  F   UNL     1      47.808   9.919  11.472  0.00  0.00    +0.000 F 
ENDBRANCH  30  31
ENDBRANCH   5  30
TORSDOF 9
ENDMDL
MODEL 7
REMARK VINA RESULT:    -6.424      4.610      7.729
REMARK INTER + INTRA:         -10.537
REMARK INTER:                  -9.854
REMARK INTRA:                  -0.683
REMARK UNBOUND:                -0.922
REMARK  Name = 
REMARK  10 active torsions:
REMARK  status: ('A' for Active; 'I' for Inactive)
REMARK    1  A    between atoms: C_1  and  C_2
REMARK    2  A    between atoms: C_2  and  O_3
REMARK    3  A    between atoms: O_3  and  C_4
REMARK    4  A    between atoms: C_6  and  C_7
REMARK    5  A    between atoms: C_7  and  C_8
REMARK    6  A    between atoms: C_8  and  N_9
REMARK    7  A    between atoms: C_13  and  C_14
REMARK    8  A    between atoms: C_20  and  C_21
REMARK    9  A    between atoms: C_21  and  C_22
REMARK   10  A    between atoms: C_28  and  O_29
REMARK                            x       y       z     vdW  Elec       q    Type
REMARK                         _______ _______ _______ _____ _____    ______ ____
ROOT
ATOM      1  C   UNL     1      46.494   7.091  13.072  0.00  0.00    +0.000 A 
ATOM      2  C   UNL     1      46.966   6.095  13.942  0.00  0.00    +0.000 A 
ATOM      3  C   UNL     1      46.690   4.733  13.694  0.00  0.00    +0.000 A 
ATOM      4  C   UNL     1      45.891   4.412  12.584  0.00  0.00    +0.000 A 
ATOM      5  C   UNL     1      45.359   5.397  11.757  0.00  0.00    +0.000 A 
ATOM      6  C   UNL     1      45.701   6.728  11.995  0.00  0.00    +0.000 A 
ENDROOT
BRANCH   1   7
ATOM      7  O   UNL     1      46.798   8.407  13.338  0.00  0.00    +0.000 OA
BRANCH   7   9
ATOM      8  C   UNL     1      47.288  10.162  11.671  0.00  0.00    +0.000 C 
ATOM      9  C   UNL     1      47.866   9.064  12.570  0.00  0.00    +0.000 C 
ATOM     10  C   UNL     1      49.199   9.445  13.295  0.00  0.00    +0.000 C 
ATOM     11  C   UNL     1      49.861   8.180  12.749  0.00  0.00    +0.000 C 
ATOM     12  C   UNL     1      48.725   8.065  11.724  0.00  0.00    +0.000 C 
BRANCH  11  13
ATOM     13  O   UNL     1      50.016   7.087  13.674  0.00  0.00    +0.000 OA
ATOM     14  H   UNL     1      49.993   7.486  14.563  0.00  0.00    +0.000 HD
ENDBRANCH  11  13
ENDBRANCH   7   9
ENDBRANCH   1   7
BRANCH   3  15
ATOM     15  C   UNL     1      47.232   3.639  14.624  0.00  0.00    +0.000 C 
BRANCH  15  16
ATOM     16  C   UNL     1      47.150   4.002  16.122  0.00  0.00    +0.000 C 
BRANCH  16  17
ATOM     17  N   UNL     1      48.272   4.817  16.617  0.00  0.00    +0.000 N 
ATOM     18  C   UNL     1      49.372   4.005  16.969  0.00  0.00    +0.000 A 
ATOM     19  C   UNL     1      50.549   4.573  17.472  0.00  0.00    +0.000 A 
ATOM     20  N   UNL     1      51.662   3.865  17.828  0.00  0.00    +0.000 NA
ATOM     21  C   UNL     1      51.552   2.521  17.645  0.00  0.00    +0.000 A 
ATOM     22  C   UNL     1      50.404   1.931  17.145  0.00  0.00    +0.000 A 
ATOM     23  N   UNL     1      49.305   2.660  16.802  0.00  0.00    +0.000 NA
ATOM     24  H   UNL     1      48.006   5.378  17.418  0.00  0.00    +0.000 HD
BRANCH  21  25
ATOM     25  C   UNL     1      52.716   1.643  17.990  0.00  0.00    +0.000 C 
ATOM     26  N   UNL     1      53.412   2.002  19.118  0.00  0.00    +0.000 N 
ATOM     27  O   UNL     1      53.026   0.673  17.312  0.00  0.00    +0.000 OA
ATOM     28  H   UNL     1      53.143   2.818  19.653  0.00  0.00    +0.000 HD
ATOM     29  H   UNL     1      54.214   1.457  19.385  0.00  0.00    +0.000 HD
ENDBRANCH  21  25
ENDBRANCH  16  17
ENDBRANCH  15  16
ENDBRANCH   3  15
BRANCH   5  30
ATOM     30  C   UNL     1      44.370   5.048  10.670  0.00  0.00    +0.000 C 
BRANCH  30  31
ATOM     31  C   UNL     1      44.934   4.406   9.410  0.00  0.00    +0.000 C 
ATOM     32  F   UNL     1      44.050   4.341   8.392  0.00  0.00    +0.000 F 
ATOM     33  F   UNL     1      46.012   5.094   8.969  0.00  0.00    +0.000 F 
ATOM     34  F   UNL     1      45.340   3.141   9.671  0.00  0.00    +0.000 F 
ENDBRANCH  30  31
ENDBRANCH   5  30
TORSDOF 9
ENDMDL
MODEL 8
REMARK VINA RESULT:    -6.390      4.048      5.975
REMARK INTER + INTRA:         -10.487
REMARK INTER:                  -9.180
REMARK INTRA:                  -1.308
REMARK UNBOUND:                -0.922
REMARK  Name = 
REMARK  10 active torsions:
REMARK  status: ('A' for Active; 'I' for Inactive)
REMARK    1  A    between atoms: C_1  and  C_2
REMARK    2  A    between atoms: C_2  and  O_3
REMARK    3  A    between atoms: O_3  and  C_4
REMARK    4  A    between atoms: C_6  and  C_7
REMARK    5  A    between atoms: C_7  and  C_8
REMARK    6  A    between atoms: C_8  and  N_9
REMARK    7  A    between atoms: C_13  and  C_14
REMARK    8  A    between atoms: C_20  and  C_21
REMARK    9  A    between atoms: C_21  and  C_22
REMARK   10  A    between atoms: C_28  and  O_29
REMARK                            x       y       z     vdW  Elec       q    Type
REMARK                         _______ _______ _______ _____ _____    ______ ____
ROOT
ATOM      1  C   UNL     1      50.814   6.508  17.217  0.00  0.00    +0.000 A 
ATOM      2  C   UNL     1      50.651   7.062  15.938  0.00  0.00    +0.000 A 
ATOM      3  C   UNL     1      49.425   6.932  15.249  0.00  0.00    +0.000 A 
ATOM      4  C   UNL     1      48.399   6.190  15.858  0.00  0.00    +0.000 A 
ATOM      5  C   UNL     1      48.578   5.576  17.094  0.00  0.00    +0.000 A 
ATOM      6  C   UNL     1      49.778   5.776  17.775  0.00  0.00    +0.000 A 
ENDROOT
BRANCH   1   7
ATOM      7  O   UNL     1      52.019   6.670  17.864  0.00  0.00    +0.000 OA
BRANCH   7   9
ATOM      8  C   UNL     1      53.938   5.831  16.554  0.00  0.00    +0.000 C 
ATOM      9  C   UNL     1      53.031   5.607  17.768  0.00  0.00    +0.000 C 
ATOM     10  C   UNL     1      53.775   5.148  19.066  0.00  0.00    +0.000 C 
ATOM     11  C   UNL     1      52.826   3.955  19.191  0.00  0.00    +0.000 C 
ATOM     12  C   UNL     1      52.415   4.168  17.728  0.00  0.00    +0.000 C 
BRANCH  11  13
ATOM     13  O   UNL     1      51.786   4.065  20.182  0.00  0.00    +0.000 OA
ATOM     14  H   UNL     1      51.912   4.935  20.605  0.00  0.00    +0.000 HD
ENDBRANCH  11  13
ENDBRANCH   7   9
ENDBRANCH   1   7
BRANCH   3  15
ATOM     15  C   UNL     1      49.231   7.565  13.864  0.00  0.00    +0.000 C 
BRANCH  15  16
ATOM     16  C   UNL     1      47.756   7.866  13.521  0.00  0.00    +0.000 C 
BRANCH  16  17
ATOM     17  N   UNL     1      47.397   7.641  12.112  0.00  0.00    +0.000 N 
ATOM     18  C   UNL     1      46.562   6.511  11.975  0.00  0.00    +0.000 A 
ATOM     19  C   UNL     1      46.105   6.108  10.714  0.00  0.00    +0.000 A 
ATOM     20  N   UNL     1      45.289   5.034  10.491  0.00  0.00    +0.000 NA
ATOM     21  C   UNL     1      44.929   4.362  11.619  0.00  0.00    +0.000 A 
ATOM     22  C   UNL     1      45.362   4.739  12.878  0.00  0.00    +0.000 A 
ATOM     23  N   UNL     1      46.179   5.812  13.073  0.00  0.00    +0.000 NA
ATOM     24  H   UNL     1      48.216   7.521  11.528  0.00  0.00    +0.000 HD
BRANCH  21  25
ATOM     25  C   UNL     1      44.026   3.173  11.499  0.00  0.00    +0.000 C 
ATOM     26  N   UNL     1      43.836   2.455  12.654  0.00  0.00    +0.000 N 
ATOM     27  O   UNL     1      43.494   2.861  10.441  0.00  0.00    +0.000 OA
ATOM     28  H   UNL     1      44.300   2.726  13.512  0.00  0.00    +0.000 HD
ATOM     29  H   UNL     1      43.254   1.635  12.624  0.00  0.00    +0.000 HD
ENDBRANCH  21  25
ENDBRANCH  16  17
ENDBRANCH  15  16
ENDBRANCH   3  15
BRANCH   5  30
ATOM     30  C   UNL     1      47.528   4.648  17.659  0.00  0.00    +0.000 C 
BRANCH  30  31
ATOM     31  C   UNL     1      47.887   3.171  17.738  0.00  0.00    +0.000 C 
ATOM     32  F   UNL     1      48.600   2.844  18.836  0.00  0.00    +0.000 F 
ATOM     33  F   UNL     1      46.768   2.411  17.736  0.00  0.00    +0.000 F 
ATOM     34  F   UNL     1      48.622   2.810  16.659  0.00  0.00    +0.000 F 
ENDBRANCH  30  31
ENDBRANCH   5  30
TORSDOF 9
ENDMDL
MODEL 9
REMARK VINA RESULT:    -6.332      4.186      5.727
REMARK INTER + INTRA:         -10.400
REMARK INTER:                  -9.097
REMARK INTRA:                  -1.303
REMARK UNBOUND:                -0.922
REMARK  Name = 
REMARK  10 active torsions:
REMARK  status: ('A' for Active; 'I' for Inactive)
REMARK    1  A    between atoms: C_1  and  C_2
REMARK    2  A    between atoms: C_2  and  O_3
REMARK    3  A    between atoms: O_3  and  C_4
REMARK    4  A    between atoms: C_6  and  C_7
REMARK    5  A    between atoms: C_7  and  C_8
REMARK    6  A    between atoms: C_8  and  N_9
REMARK    7  A    between atoms: C_13  and  C_14
REMARK    8  A    between atoms: C_20  and  C_21
REMARK    9  A    between atoms: C_21  and  C_22
REMARK   10  A    between atoms: C_28  and  O_29
REMARK                            x       y       z     vdW  Elec       q    Type
REMARK                         _______ _______ _______ _____ _____    ______ ____
ROOT
ATOM      1  C   UNL     1      49.709   6.463  16.580  0.00  0.00    +0.000 A 
ATOM      2  C   UNL     1      49.744   6.918  15.252  0.00  0.00    +0.000 A 
ATOM      3  C   UNL     1      49.459   8.267  14.946  0.00  0.00    +0.000 A 
ATOM      4  C   UNL     1      49.093   9.121  16.000  0.00  0.00    +0.000 A 
ATOM      5  C   UNL     1      48.985   8.660  17.309  0.00  0.00    +0.000 A 
ATOM      6  C   UNL     1      49.333   7.339  17.585  0.00  0.00    +0.000 A 
ENDROOT
BRANCH   1   7
ATOM      7  O   UNL     1      50.009   5.145  16.840  0.00  0.00    +0.000 OA
BRANCH   7   9
ATOM      8  C   UNL     1      49.337   4.487  19.124  0.00  0.00    +0.000 C 
ATOM      9  C   UNL     1      49.062   4.338  17.624  0.00  0.00    +0.000 C 
ATOM     10  C   UNL     1      47.548   4.350  17.231  0.00  0.00    +0.000 C 
ATOM     11  C   UNL     1      47.730   3.034  16.475  0.00  0.00    +0.000 C 
ATOM     12  C   UNL     1      49.055   2.825  17.220  0.00  0.00    +0.000 C 
BRANCH  11  13
ATOM     13  O   UNL     1      47.798   3.124  15.039  0.00  0.00    +0.000 OA
ATOM     14  H   UNL     1      47.458   4.010  14.812  0.00  0.00    +0.000 HD
ENDBRANCH  11  13
ENDBRANCH   7   9
ENDBRANCH   1   7
BRANCH   3  15
ATOM     15  C   UNL     1      49.529   8.776  13.500  0.00  0.00    +0.000 C 
BRANCH  15  16
ATOM     16  C   UNL     1      48.838   7.846  12.480  0.00  0.00    +0.000 C 
BRANCH  16  17
ATOM     17  N   UNL     1      47.506   8.296  12.045  0.00  0.00    +0.000 N 
ATOM     18  C   UNL     1      46.558   7.256  12.156  0.00  0.00    +0.000 A 
ATOM     19  C   UNL     1      45.223   7.463  11.788  0.00  0.00    +0.000 A 
ATOM     20  N   UNL     1      44.239   6.517  11.871  0.00  0.00    +0.000 NA
ATOM     21  C   UNL     1      44.656   5.319  12.364  0.00  0.00    +0.000 A 
ATOM     22  C   UNL     1      45.967   5.087  12.740  0.00  0.00    +0.000 A 
ATOM     23  N   UNL     1      46.930   6.045  12.643  0.00  0.00    +0.000 NA
ATOM     24  H   UNL     1      47.516   8.634  11.090  0.00  0.00    +0.000 HD
BRANCH  21  25
ATOM     25  C   UNL     1      43.661   4.209  12.512  0.00  0.00    +0.000 C 
ATOM     26  N   UNL     1      42.678   4.166  11.554  0.00  0.00    +0.000 N 
ATOM     27  O   UNL     1      43.720   3.395  13.424  0.00  0.00    +0.000 OA
ATOM     28  H   UNL     1      42.643   4.859  10.818  0.00  0.00    +0.000 HD
ATOM     29  H   UNL     1      41.972   3.451  11.617  0.00  0.00    +0.000 HD
ENDBRANCH  21  25
ENDBRANCH  16  17
ENDBRANCH  15  16
ENDBRANCH   3  15
BRANCH   5  30
ATOM     30  C   UNL     1      48.432   9.546  18.400  0.00  0.00    +0.000 C 
BRANCH  30  31
ATOM     31  C   UNL     1      47.420   8.917  19.348  0.00  0.00    +0.000 C 
ATOM     32  F   UNL     1      46.774   7.854  18.825  0.00  0.00    +0.000 F 
ATOM     33  F   UNL     1      48.028   8.505  20.485  0.00  0.00    +0.000 F 
ATOM     34  F   UNL     1      46.480   9.826  19.700  0.00  0.00    +0.000 F 
ENDBRANCH  30  31
ENDBRANCH   5  30
TORSDOF 9
ENDMDL
