MODEL 1
REMARK VINA RESULT:    -8.036      0.000      0.000
REMARK INTER + INTRA:         -11.629
REMARK INTER:                 -10.855
REMARK INTRA:                  -0.774
REMARK UNBOUND:                -0.774
REMARK  Name = 
REMARK  7 active torsions:
REMARK  status: ('A' for Active; 'I' for Inactive)
REMARK    1  A    between atoms: C_1  and  C_2
REMARK    2  A    between atoms: N_7  and  C_8
REMARK    3  A    between atoms: C_10  and  C_11
REMARK    4  A    between atoms: C_11  and  C_12
REMARK    5  A    between atoms: C_12  and  N_13
REMARK    6  A    between atoms: N_13  and  C_14
REMARK    7  A    between atoms: C_17  and  C_18
REMARK                            x       y       z     vdW  Elec       q    Type
REMARK                         _______ _______ _______ _____ _____    ______ ____
ROOT
ATOM      1  C   UNL     1      43.913   4.540  12.784  0.00  0.00    +0.000 C 
ENDROOT
BRANCH   1   4
ATOM      2  C   UNL     1      47.265   5.143  14.595  0.00  0.00    +0.000 A 
ATOM      3  C   UNL     1      45.998   4.639  14.234  0.00  0.00    +0.000 A 
ATOM      4  C   UNL     1      45.295   5.079  13.093  0.00  0.00    +0.000 A 
ATOM      5  C   UNL     1      45.865   6.068  12.287  0.00  0.00    +0.000 A 
ATOM      6  C   UNL     1      47.119   6.577  12.602  0.00  0.00    +0.000 A 
ATOM      7  C   UNL     1      47.803   6.115  13.728  0.00  0.00    +0.000 A 
ATOM      8  F   UNL     1      49.035   6.609  13.931  0.00  0.00    +0.000 F 
BRANCH   2  15
ATOM      9  C   UNL     1      49.835   5.642  16.953  0.00  0.00    +0.000 C 
ATOM     10  C   UNL     1      48.311   5.652  16.818  0.00  0.00    +0.000 C 
ATOM     11  C   UNL     1      47.627   5.255  18.148  0.00  0.00    +0.000 C 
ATOM     12  O   UNL     1      47.870   3.883  18.497  0.00  0.00    +0.000 OA
ATOM     13  C   UNL     1      47.350   3.013  17.476  0.00  0.00    +0.000 C 
ATOM     14  C   UNL     1      48.006   3.283  16.115  0.00  0.00    +0.000 C 
ATOM     15  N   UNL     1      47.896   4.710  15.752  0.00  0.00    +0.000 N 
ENDBRANCH   2  15
ENDBRANCH   1   4
BRANCH   1  16
ATOM     16  C   UNL     1      43.994   3.368  11.801  0.00  0.00    +0.000 C 
BRANCH  16  17
ATOM     17  N   UNL     1      43.640   3.770  10.431  0.00  0.00    +0.000 N 
ATOM     18  H   UNL     1      43.376   4.753  10.367  0.00  0.00    +0.000 HD
BRANCH  17  19
ATOM     19  C   UNL     1      44.572   3.423   9.436  0.00  0.00    +0.000 A 
ATOM     20  C   UNL     1      45.193   4.334   8.589  0.00  0.00    +0.000 A 
ATOM     21  N   UNL     1      46.110   4.028   7.647  0.00  0.00    +0.000 NA
ATOM     22  C   UNL     1      46.456   2.724   7.584  0.00  0.00    +0.000 A 
ATOM     23  N   UNL     1      45.987   1.748   8.384  0.00  0.00    +0.000 NA
ATOM     24  C   UNL     1      45.073   2.137   9.303  0.00  0.00    +0.000 A 
BRANCH  22  25
ATOM     25  C   UNL     1      47.446   2.363   6.500  0.00  0.00    +0.000 C 
ATOM     26  N   UNL     1      47.376   3.136   5.362  0.00  0.00    +0.000 N 
ATOM     27  O   UNL     1      48.262   1.451   6.585  0.00  0.00    +0.000 OA
ATOM     28  H   UNL     1      46.694   3.884   5.301  0.00  0.00    +0.000 HD
ATOM     29  H   UNL     1      48.004   2.947   4.593  0.00  0.00    +0.000 HD
ENDBRANCH  22  25
ENDBRANCH  17  19
ENDBRANCH  16  17
ENDBRANCH   1  16
TORSDOF 6
ENDMDL
MODEL 2
REMARK VINA RESULT:    -7.946      2.693      3.789
REMARK INTER + INTRA:         -11.507
REMARK INTER:                 -10.603
REMARK INTRA:                  -0.904
REMARK UNBOUND:                -0.774
REMARK  Name = 
REMARK  7 active torsions:
REMARK  status: ('A' for Active; 'I' for Inactive)
REMARK    1  A    between atoms: C_1  and  C_2
REMARK    2  A    between atoms: N_7  and  C_8
REMARK    3  A    between atoms: C_10  and  C_11
REMARK    4  A    between atoms: C_11  and  C_12
REMARK    5  A    between atoms: C_12  and  N_13
REMARK    6  A    between atoms: N_13  and  C_14
REMARK    7  A    between atoms: C_17  and  C_18
REMARK                            x       y       z     vdW  Elec       q    Type
REMARK                         _______ _______ _______ _____ _____    ______ ____
ROOT
ATOM      1  C   UNL     1      43.159   5.328  12.329  0.00  0.00    +0.000 C 
ENDROOT
BRANCH   1   4
ATOM      2  C   UNL     1      46.667   6.849  12.841  0.00  0.00    +0.000 A 
ATOM      3  C   UNL     1      45.324   6.654  12.456  0.00  0.00    +0.000 A 
ATOM      4  C   UNL     1      44.582   5.510  12.816  0.00  0.00    +0.000 A 
ATOM      5  C   UNL     1      45.201   4.513  13.576  0.00  0.00    +0.000 A 
ATOM      6  C   UNL     1      46.518   4.678  13.988  0.00  0.00    +0.000 A 
ATOM      7  C   UNL     1      47.228   5.827  13.632  0.00  0.00    +0.000 A 
ATOM      8  F   UNL     1      48.474   5.942  14.120  0.00  0.00    +0.000 F 
BRANCH   2  15
ATOM      9  C   UNL     1      46.581  10.261  11.964  0.00  0.00    +0.000 C 
ATOM     10  C   UNL     1      47.138   9.306  13.023  0.00  0.00    +0.000 C 
ATOM     11  C   UNL     1      48.466   9.837  13.614  0.00  0.00    +0.000 C 
ATOM     12  O   UNL     1      49.530   9.840  12.648  0.00  0.00    +0.000 OA
ATOM     13  C   UNL     1      49.778   8.502  12.182  0.00  0.00    +0.000 C 
ATOM     14  C   UNL     1      48.534   7.894  11.520  0.00  0.00    +0.000 C 
ATOM     15  N   UNL     1      47.367   7.971  12.423  0.00  0.00    +0.000 N 
ENDBRANCH   2  15
ENDBRANCH   1   4
BRANCH   1  16
ATOM     16  C   UNL     1      43.110   4.361  11.143  0.00  0.00    +0.000 C 
BRANCH  16  17
ATOM     17  N   UNL     1      43.781   4.909   9.954  0.00  0.00    +0.000 N 
ATOM     18  H   UNL     1      44.261   5.788  10.146  0.00  0.00    +0.000 HD
BRANCH  17  19
ATOM     19  C   UNL     1      44.612   4.012   9.258  0.00  0.00    +0.000 A 
ATOM     20  C   UNL     1      45.588   4.392   8.343  0.00  0.00    +0.000 A 
ATOM     21  N   UNL     1      46.413   3.551   7.686  0.00  0.00    +0.000 NA
ATOM     22  C   UNL     1      46.277   2.245   8.003  0.00  0.00    +0.000 A 
ATOM     23  N   UNL     1      45.424   1.745   8.916  0.00  0.00    +0.000 NA
ATOM     24  C   UNL     1      44.632   2.652   9.532  0.00  0.00    +0.000 A 
BRANCH  22  25
ATOM     25  C   UNL     1      47.164   1.290   7.236  0.00  0.00    +0.000 C 
ATOM     26  N   UNL     1      48.286   1.858   6.673  0.00  0.00    +0.000 N 
ATOM     27  O   UNL     1      46.933   0.094   7.096  0.00  0.00    +0.000 OA
ATOM     28  H   UNL     1      48.464   2.850   6.792  0.00  0.00    +0.000 HD
ATOM     29  H   UNL     1      48.921   1.281   6.141  0.00  0.00    +0.000 HD
ENDBRANCH  22  25
ENDBRANCH  17  19
ENDBRANCH  16  17
ENDBRANCH   1  16
TORSDOF 6
ENDMDL
MODEL 3
REMARK VINA RESULT:    -7.641      2.434      3.367
REMARK INTER + INTRA:         -11.096
REMARK INTER:                 -10.321
REMARK INTRA:                  -0.775
REMARK UNBOUND:                -0.774
REMARK  Name = 
REMARK  7 active torsions:
REMARK  status: ('A' for Active; 'I' for Inactive)
REMARK    1  A    between atoms: C_1  and  C_2
REMARK    2  A    between atoms: N_7  and  C_8
REMARK    3  A    between atoms: C_10  and  C_11
REMARK    4  A    between atoms: C_11  and  C_12
REMARK    5  A    between atoms: C_12  and  N_13
REMARK    6  A    between atoms: N_13  and  C_14
REMARK    7  A    between atoms: C_17  and  C_18
REMARK                            x       y       z     vdW  Elec       q    Type
REMARK                         _______ _______ _______ _____ _____    ______ ____
ROOT
ATOM      1  C   UNL     1      45.458   6.083  11.114  0.00  0.00    +0.000 C 
ENDROOT
BRANCH   1   4
ATOM      2  C   UNL     1      47.807   6.619  14.127  0.00  0.00    +0.000 A 
ATOM      3  C   UNL     1      47.065   6.814  12.942  0.00  0.00    +0.000 A 
ATOM      4  C   UNL     1      46.188   5.841  12.420  0.00  0.00    +0.000 A 
ATOM      5  C   UNL     1      46.051   4.622  13.090  0.00  0.00    +0.000 A 
ATOM      6  C   UNL     1      46.753   4.401  14.270  0.00  0.00    +0.000 A 
ATOM      7  C   UNL     1      47.605   5.386  14.776  0.00  0.00    +0.000 A 
ATOM      8  F   UNL     1      48.199   5.123  15.952  0.00  0.00    +0.000 F 
BRANCH   2  15
ATOM      9  C   UNL     1      50.841   7.361  15.758  0.00  0.00    +0.000 C 
ATOM     10  C   UNL     1      50.155   7.460  14.392  0.00  0.00    +0.000 C 
ATOM     11  C   UNL     1      50.680   8.672  13.587  0.00  0.00    +0.000 C 
ATOM     12  O   UNL     1      50.306   9.925  14.183  0.00  0.00    +0.000 OA
ATOM     13  C   UNL     1      48.873  10.039  14.235  0.00  0.00    +0.000 C 
ATOM     14  C   UNL     1      48.246   8.910  15.065  0.00  0.00    +0.000 C 
ATOM     15  N   UNL     1      48.691   7.590  14.576  0.00  0.00    +0.000 N 
ENDBRANCH   2  15
ENDBRANCH   1   4
BRANCH   1  16
ATOM     16  C   UNL     1      44.155   5.279  11.063  0.00  0.00    +0.000 C 
BRANCH  16  17
ATOM     17  N   UNL     1      43.784   4.914   9.687  0.00  0.00    +0.000 N 
ATOM     18  H   UNL     1      43.669   5.729   9.084  0.00  0.00    +0.000 HD
BRANCH  17  19
ATOM     19  C   UNL     1      44.593   3.937   9.079  0.00  0.00    +0.000 A 
ATOM     20  C   UNL     1      45.596   4.210   8.155  0.00  0.00    +0.000 A 
ATOM     21  N   UNL     1      46.401   3.292   7.581  0.00  0.00    +0.000 NA
ATOM     22  C   UNL     1      46.214   2.021   7.997  0.00  0.00    +0.000 A 
ATOM     23  N   UNL     1      45.330   1.624   8.931  0.00  0.00    +0.000 NA
ATOM     24  C   UNL     1      44.561   2.604   9.460  0.00  0.00    +0.000 A 
BRANCH  22  25
ATOM     25  C   UNL     1      47.079   0.979   7.323  0.00  0.00    +0.000 C 
ATOM     26  N   UNL     1      46.786  -0.326   7.654  0.00  0.00    +0.000 N 
ATOM     27  O   UNL     1      47.987   1.236   6.541  0.00  0.00    +0.000 OA
ATOM     28  H   UNL     1      46.035  -0.526   8.305  0.00  0.00    +0.000 HD
ATOM     29  H   UNL     1      47.328  -1.075   7.245  0.00  0.00    +0.000 HD
ENDBRANCH  22  25
ENDBRANCH  17  19
ENDBRANCH  16  17
ENDBRANCH   1  16
TORSDOF 6
ENDMDL
MODEL 4
REMARK VINA RESULT:    -7.347      3.100      3.805
REMARK INTER + INTRA:         -10.698
REMARK INTER:                  -9.970
REMARK INTRA:                  -0.728
REMARK UNBOUND:                -0.774
REMARK  Name = 
REMARK  7 active torsions:
REMARK  status: ('A' for Active; 'I' for Inactive)
REMARK    1  A    between atoms: C_1  and  C_2
REMARK    2  A    between atoms: N_7  and  C_8
REMARK    3  A    between atoms: C_10  and  C_11
REMARK    4  A    between atoms: C_11  and  C_12
REMARK    5  A    between atoms: C_12  and  N_13
REMARK    6  A    between atoms: N_13  and  C_14
REMARK    7  A    between atoms: C_17  and  C_18
REMARK                            x       y       z     vdW  Elec       q    Type
REMARK                         _______ _______ _______ _____ _____    ______ ____
ROOT
ATOM      1  C   UNL     1      45.069   5.100  11.949  0.00  0.00    +0.000 C 
ENDROOT
BRANCH   1   4
ATOM      2  C   UNL     1      47.734   7.857  12.373  0.00  0.00    +0.000 A 
ATOM      3  C   UNL     1      47.097   6.606  12.230  0.00  0.00    +0.000 A 
ATOM      4  C   UNL     1      45.705   6.472  12.043  0.00  0.00    +0.000 A 
ATOM      5  C   UNL     1      44.912   7.622  12.011  0.00  0.00    +0.000 A 
ATOM      6  C   UNL     1      45.507   8.873  12.132  0.00  0.00    +0.000 A 
ATOM      7  C   UNL     1      46.889   8.982  12.301  0.00  0.00    +0.000 A 
ATOM      8  F   UNL     1      47.395  10.225  12.347  0.00  0.00    +0.000 F 
BRANCH   2  15
ATOM      9  C   UNL     1      50.991   7.677  11.041  0.00  0.00    +0.000 C 
ATOM     10  C   UNL     1      50.007   8.660  11.680  0.00  0.00    +0.000 C 
ATOM     11  C   UNL     1      50.751   9.768  12.464  0.00  0.00    +0.000 C 
ATOM     12  O   UNL     1      51.431   9.255  13.621  0.00  0.00    +0.000 OA
ATOM     13  C   UNL     1      50.485   8.658  14.525  0.00  0.00    +0.000 C 
ATOM     14  C   UNL     1      49.725   7.499  13.865  0.00  0.00    +0.000 C 
ATOM     15  N   UNL     1      49.100   7.934  12.600  0.00  0.00    +0.000 N 
ENDBRANCH   2  15
ENDBRANCH   1   4
BRANCH   1  16
ATOM     16  C   UNL     1      43.885   5.116  10.978  0.00  0.00    +0.000 C 
BRANCH  16  17
ATOM     17  N   UNL     1      43.666   3.802  10.352  0.00  0.00    +0.000 N 
ATOM     18  H   UNL     1      42.706   3.678  10.030  0.00  0.00    +0.000 HD
BRANCH  17  19
ATOM     19  C   UNL     1      44.591   3.441   9.357  0.00  0.00    +0.000 A 
ATOM     20  C   UNL     1      45.183   4.336   8.472  0.00  0.00    +0.000 A 
ATOM     21  N   UNL     1      46.093   4.017   7.528  0.00  0.00    +0.000 NA
ATOM     22  C   UNL     1      46.465   2.718   7.503  0.00  0.00    +0.000 A 
ATOM     23  N   UNL     1      46.026   1.761   8.341  0.00  0.00    +0.000 NA
ATOM     24  C   UNL     1      45.117   2.161   9.259  0.00  0.00    +0.000 A 
BRANCH  22  25
ATOM     25  C   UNL     1      47.448   2.341   6.417  0.00  0.00    +0.000 C 
ATOM     26  N   UNL     1      47.342   3.071   5.253  0.00  0.00    +0.000 N 
ATOM     27  O   UNL     1      48.286   1.453   6.522  0.00  0.00    +0.000 OA
ATOM     28  H   UNL     1      46.642   3.800   5.176  0.00  0.00    +0.000 HD
ATOM     29  H   UNL     1      47.963   2.869   4.483  0.00  0.00    +0.000 HD
ENDBRANCH  22  25
ENDBRANCH  17  19
ENDBRANCH  16  17
ENDBRANCH   1  16
TORSDOF 6
ENDMDL
MODEL 5
REMARK VINA RESULT:    -7.176      2.192      2.953
REMARK INTER + INTRA:         -10.468
REMARK INTER:                  -9.785
REMARK INTRA:                  -0.683
REMARK UNBOUND:                -0.774
REMARK  Name = 
REMARK  7 active torsions:
REMARK  status: ('A' for Active; 'I' for Inactive)
REMARK    1  A    between atoms: C_1  and  C_2
REMARK    2  A    between atoms: N_7  and  C_8
REMARK    3  A    between atoms: C_10  and  C_11
REMARK    4  A    between atoms: C_11  and  C_12
REMARK    5  A    between atoms: C_12  and  N_13
REMARK    6  A    between atoms: N_13  and  C_14
REMARK    7  A    between atoms: C_17  and  C_18
REMARK                            x       y       z     vdW  Elec       q    Type
REMARK                         _______ _______ _______ _____ _____    ______ ____
ROOT
ATOM      1  C   UNL     1      43.817   5.004  12.789  0.00  0.00    +0.000 C 
ENDROOT
BRANCH   1   4
ATOM      2  C   UNL     1      46.604   7.665  12.953  0.00  0.00    +0.000 A 
ATOM      3  C   UNL     1      45.841   6.496  13.156  0.00  0.00    +0.000 A 
ATOM      4  C   UNL     1      44.621   6.253  12.491  0.00  0.00    +0.000 A 
ATOM      5  C   UNL     1      44.132   7.213  11.602  0.00  0.00    +0.000 A 
ATOM      6  C   UNL     1      44.864   8.371  11.364  0.00  0.00    +0.000 A 
ATOM      7  C   UNL     1      46.078   8.582  12.023  0.00  0.00    +0.000 A 
ATOM      8  F   UNL     1      46.757   9.693  11.694  0.00  0.00    +0.000 F 
BRANCH   2  15
ATOM      9  C   UNL     1      49.271   9.836  13.723  0.00  0.00    +0.000 C 
ATOM     10  C   UNL     1      48.051   9.160  14.355  0.00  0.00    +0.000 C 
ATOM     11  C   UNL     1      48.276   8.893  15.862  0.00  0.00    +0.000 C 
ATOM     12  O   UNL     1      49.296   7.909  16.096  0.00  0.00    +0.000 OA
ATOM     13  C   UNL     1      48.922   6.657  15.494  0.00  0.00    +0.000 C 
ATOM     14  C   UNL     1      48.729   6.794  13.977  0.00  0.00    +0.000 C 
ATOM     15  N   UNL     1      47.776   7.878  13.665  0.00  0.00    +0.000 N 
ENDBRANCH   2  15
ENDBRANCH   1   4
BRANCH   1  16
ATOM     16  C   UNL     1      44.351   3.811  11.989  0.00  0.00    +0.000 C 
BRANCH  16  17
ATOM     17  N   UNL     1      43.792   3.762  10.629  0.00  0.00    +0.000 N 
ATOM     18  H   UNL     1      43.272   4.606  10.389  0.00  0.00    +0.000 HD
BRANCH  17  19
ATOM     19  C   UNL     1      44.698   3.411   9.613  0.00  0.00    +0.000 A 
ATOM     20  C   UNL     1      45.109   2.111   9.339  0.00  0.00    +0.000 A 
ATOM     21  N   UNL     1      45.955   1.749   8.353  0.00  0.00    +0.000 NA
ATOM     22  C   UNL     1      46.382   2.757   7.562  0.00  0.00    +0.000 A 
ATOM     23  N   UNL     1      46.014   4.048   7.669  0.00  0.00    +0.000 NA
ATOM     24  C   UNL     1      45.162   4.329   8.682  0.00  0.00    +0.000 A 
BRANCH  22  25
ATOM     25  C   UNL     1      47.369   2.369   6.484  0.00  0.00    +0.000 C 
ATOM     26  N   UNL     1      47.372   3.183   5.372  0.00  0.00    +0.000 N 
ATOM     27  O   UNL     1      48.123   1.404   6.552  0.00  0.00    +0.000 OA
ATOM     28  H   UNL     1      46.741   3.975   5.325  0.00  0.00    +0.000 HD
ATOM     29  H   UNL     1      48.002   2.979   4.610  0.00  0.00    +0.000 HD
ENDBRANCH  22  25
ENDBRANCH  17  19
ENDBRANCH  16  17
ENDBRANCH   1  16
TORSDOF 6
ENDMDL
MODEL 6
REMARK VINA RESULT:    -6.965      3.095      4.159
REMARK INTER + INTRA:         -10.182
REMARK INTER:                  -9.452
REMARK INTRA:                  -0.730
REMARK UNBOUND:                -0.774
REMARK  Name = 
REMARK  7 active torsions:
REMARK  status: ('A' for Active; 'I' for Inactive)
REMARK    1  A    between atoms: C_1  and  C_2
REMARK    2  A    between atoms: N_7  and  C_8
REMARK    3  A    between atoms: C_10  and  C_11
REMARK    4  A    between atoms: C_11  and  C_12
REMARK    5  A    between atoms: C_12  and  N_13
REMARK    6  A    between atoms: N_13  and  C_14
REMARK    7  A    between atoms: C_17  and  C_18
REMARK                            x       y       z     vdW  Elec       q    Type
REMARK                         _______ _______ _______ _____ _____    ______ ____
ROOT
ATOM      1  C   UNL     1      45.233   6.585  11.204  0.00  0.00    +0.000 C 
ENDROOT
BRANCH   1   4
ATOM      2  C   UNL     1      48.610   7.723  12.682  0.00  0.00    +0.000 A 
ATOM      3  C   UNL     1      47.460   7.612  11.872  0.00  0.00    +0.000 A 
ATOM      4  C   UNL     1      46.420   6.698  12.140  0.00  0.00    +0.000 A 
ATOM      5  C   UNL     1      46.531   5.850  13.245  0.00  0.00    +0.000 A 
ATOM      6  C   UNL     1      47.642   5.942  14.076  0.00  0.00    +0.000 A 
ATOM      7  C   UNL     1      48.652   6.866  13.800  0.00  0.00    +0.000 A 
ATOM      8  F   UNL     1      49.662   6.938  14.682  0.00  0.00    +0.000 F 
BRANCH   2  15
ATOM      9  C   UNL     1      49.549  11.032  11.917  0.00  0.00    +0.000 C 
ATOM     10  C   UNL     1      49.735   9.945  12.979  0.00  0.00    +0.000 C 
ATOM     11  C   UNL     1      51.110  10.073  13.678  0.00  0.00    +0.000 C 
ATOM     12  O   UNL     1      52.202   9.788  12.788  0.00  0.00    +0.000 OA
ATOM     13  C   UNL     1      52.100   8.440  12.296  0.00  0.00    +0.000 C 
ATOM     14  C   UNL     1      50.789   8.216  11.529  0.00  0.00    +0.000 C 
ATOM     15  N   UNL     1      49.626   8.607  12.352  0.00  0.00    +0.000 N 
ENDBRANCH   2  15
ENDBRANCH   1   4
BRANCH   1  16
ATOM     16  C   UNL     1      44.606   5.190  11.287  0.00  0.00    +0.000 C 
BRANCH  16  17
ATOM     17  N   UNL     1      44.015   4.772  10.007  0.00  0.00    +0.000 N 
ATOM     18  H   UNL     1      43.500   5.524   9.550  0.00  0.00    +0.000 HD
BRANCH  17  19
ATOM     19  C   UNL     1      44.894   4.136   9.112  0.00  0.00    +0.000 A 
ATOM     20  C   UNL     1      45.770   4.802   8.262  0.00  0.00    +0.000 A 
ATOM     21  N   UNL     1      46.640   4.212   7.416  0.00  0.00    +0.000 NA
ATOM     22  C   UNL     1      46.661   2.863   7.460  0.00  0.00    +0.000 A 
ATOM     23  N   UNL     1      45.919   2.093   8.279  0.00  0.00    +0.000 NA
ATOM     24  C   UNL     1      45.073   2.760   9.097  0.00  0.00    +0.000 A 
BRANCH  22  25
ATOM     25  C   UNL     1      47.598   2.191   6.481  0.00  0.00    +0.000 C 
ATOM     26  N   UNL     1      47.903   2.933   5.361  0.00  0.00    +0.000 N 
ATOM     27  O   UNL     1      48.066   1.068   6.633  0.00  0.00    +0.000 OA
ATOM     28  H   UNL     1      47.506   3.858   5.245  0.00  0.00    +0.000 HD
ATOM     29  H   UNL     1      48.519   2.544   4.661  0.00  0.00    +0.000 HD
ENDBRANCH  22  25
ENDBRANCH  17  19
ENDBRANCH  16  17
ENDBRANCH   1  16
TORSDOF 6
ENDMDL
MODEL 7
REMARK VINA RESULT:    -6.936      2.991      7.720
REMARK INTER + INTRA:         -10.143
REMARK INTER:                  -9.023
REMARK INTRA:                  -1.120
REMARK UNBOUND:                -0.774
REMARK  Name = 
REMARK  7 active torsions:
REMARK  status: ('A' for Active; 'I' for Inactive)
REMARK    1  A    between atoms: C_1  and  C_2
REMARK    2  A    between atoms: N_7  and  C_8
REMARK    3  A    between atoms: C_10  and  C_11
REMARK    4  A    between atoms: C_11  and  C_12
REMARK    5  A    between atoms: C_12  and  N_13
REMARK    6  A    between atoms: N_13  and  C_14
REMARK    7  A    between atoms: C_17  and  C_18
REMARK                            x       y       z     vdW  Elec       q    Type
REMARK                         _______ _______ _______ _____ _____    ______ ____
ROOT
ATOM      1  C   UNL     1      49.108   8.467  12.336  0.00  0.00    +0.000 C 
ENDROOT
BRANCH   1   4
ATOM      2  C   UNL     1      45.820   6.586  11.610  0.00  0.00    +0.000 A 
ATOM      3  C   UNL     1      47.172   6.886  11.879  0.00  0.00    +0.000 A 
ATOM      4  C   UNL     1      47.635   8.199  12.105  0.00  0.00    +0.000 A 
ATOM      5  C   UNL     1      46.725   9.257  12.049  0.00  0.00    +0.000 A 
ATOM      6  C   UNL     1      45.381   8.999  11.802  0.00  0.00    +0.000 A 
ATOM      7  C   UNL     1      44.943   7.689  11.596  0.00  0.00    +0.000 A 
ATOM      8  F   UNL     1      43.622   7.513  11.427  0.00  0.00    +0.000 F 
BRANCH   2  15
ATOM      9  C   UNL     1      45.750   3.225  12.663  0.00  0.00    +0.000 C 
ATOM     10  C   UNL     1      44.831   4.420  12.399  0.00  0.00    +0.000 C 
ATOM     11  C   UNL     1      43.424   3.958  11.950  0.00  0.00    +0.000 C 
ATOM     12  O   UNL     1      43.444   3.325  10.660  0.00  0.00    +0.000 OA
ATOM     13  C   UNL     1      43.926   4.247   9.665  0.00  0.00    +0.000 C 
ATOM     14  C   UNL     1      45.348   4.729   9.982  0.00  0.00    +0.000 C 
ATOM     15  N   UNL     1      45.422   5.283  11.349  0.00  0.00    +0.000 N 
ENDBRANCH   2  15
ENDBRANCH   1   4
BRANCH   1  16
ATOM     16  C   UNL     1      49.702   7.442  13.306  0.00  0.00    +0.000 C 
BRANCH  16  17
ATOM     17  N   UNL     1      49.381   7.755  14.707  0.00  0.00    +0.000 N 
ATOM     18  H   UNL     1      48.760   8.559  14.796  0.00  0.00    +0.000 HD
BRANCH  17  19
ATOM     19  C   UNL     1      48.933   6.672  15.484  0.00  0.00    +0.000 A 
ATOM     20  C   UNL     1      47.894   5.822  15.122  0.00  0.00    +0.000 A 
ATOM     21  N   UNL     1      47.465   4.761  15.838  0.00  0.00    +0.000 NA
ATOM     22  C   UNL     1      48.157   4.514  16.971  0.00  0.00    +0.000 A 
ATOM     23  N   UNL     1      49.223   5.211  17.407  0.00  0.00    +0.000 NA
ATOM     24  C   UNL     1      49.591   6.258  16.633  0.00  0.00    +0.000 A 
BRANCH  22  25
ATOM     25  C   UNL     1      47.653   3.357  17.805  0.00  0.00    +0.000 C 
ATOM     26  N   UNL     1      48.386   3.092  18.941  0.00  0.00    +0.000 N 
ATOM     27  O   UNL     1      46.673   2.676  17.521  0.00  0.00    +0.000 OA
ATOM     28  H   UNL     1      49.197   3.658  19.162  0.00  0.00    +0.000 HD
ATOM     29  H   UNL     1      48.111   2.328  19.542  0.00  0.00    +0.000 HD
ENDBRANCH  22  25
ENDBRANCH  17  19
ENDBRANCH  16  17
ENDBRANCH   1  16
TORSDOF 6
ENDMDL
MODEL 8
REMARK VINA RESULT:    -6.523      1.843      2.675
REMARK INTER + INTRA:          -9.585
REMARK INTER:                  -8.782
REMARK INTRA:                  -0.803
REMARK UNBOUND:                -0.774
REMARK  Name = 
REMARK  7 active torsions:
REMARK  status: ('A' for Active; 'I' for Inactive)
REMARK    1  A    between atoms: C_1  and  C_2
REMARK    2  A    between atoms: N_7  and  C_8
REMARK    3  A    between atoms: C_10  and  C_11
REMARK    4  A    between atoms: C_11  and  C_12
REMARK    5  A    between atoms: C_12  and  N_13
REMARK    6  A    between atoms: N_13  and  C_14
REMARK    7  A    between atoms: C_17  and  C_18
REMARK                            x       y       z     vdW  Elec       q    Type
REMARK                         _______ _______ _______ _____ _____    ______ ____
ROOT
ATOM      1  C   UNL     1      45.307   6.504  12.347  0.00  0.00    +0.000 C 
ENDROOT
BRANCH   1   4
ATOM      2  C   UNL     1      48.619   7.329  14.144  0.00  0.00    +0.000 A 
ATOM      3  C   UNL     1      47.289   6.943  13.877  0.00  0.00    +0.000 A 
ATOM      4  C   UNL     1      46.759   6.874  12.571  0.00  0.00    +0.000 A 
ATOM      5  C   UNL     1      47.577   7.214  11.490  0.00  0.00    +0.000 A 
ATOM      6  C   UNL     1      48.898   7.584  11.714  0.00  0.00    +0.000 A 
ATOM      7  C   UNL     1      49.405   7.630  13.014  0.00  0.00    +0.000 A 
ATOM      8  F   UNL     1      50.706   7.935  13.145  0.00  0.00    +0.000 F 
BRANCH   2  15
ATOM      9  C   UNL     1      48.520   6.083  17.439  0.00  0.00    +0.000 C 
ATOM     10  C   UNL     1      49.456   6.228  16.237  0.00  0.00    +0.000 C 
ATOM     11  C   UNL     1      50.931   6.355  16.688  0.00  0.00    +0.000 C 
ATOM     12  O   UNL     1      51.183   7.582  17.392  0.00  0.00    +0.000 OA
ATOM     13  C   UNL     1      50.901   8.707  16.540  0.00  0.00    +0.000 C 
ATOM     14  C   UNL     1      49.437   8.713  16.077  0.00  0.00    +0.000 C 
ATOM     15  N   UNL     1      49.079   7.425  15.449  0.00  0.00    +0.000 N 
ENDBRANCH   2  15
ENDBRANCH   1   4
BRANCH   1  16
ATOM     16  C   UNL     1      45.170   5.016  12.013  0.00  0.00    +0.000 C 
BRANCH  16  17
ATOM     17  N   UNL     1      44.327   4.791  10.828  0.00  0.00    +0.000 N 
ATOM     18  H   UNL     1      43.821   5.629  10.543  0.00  0.00    +0.000 HD
BRANCH  17  19
ATOM     19  C   UNL     1      44.968   4.182   9.734  0.00  0.00    +0.000 A 
ATOM     20  C   UNL     1      45.728   4.863   8.789  0.00  0.00    +0.000 A 
ATOM     21  N   UNL     1      46.374   4.296   7.748  0.00  0.00    +0.000 NA
ATOM     22  C   UNL     1      46.285   2.950   7.680  0.00  0.00    +0.000 A 
ATOM     23  N   UNL     1      45.643   2.161   8.561  0.00  0.00    +0.000 NA
ATOM     24  C   UNL     1      45.022   2.805   9.576  0.00  0.00    +0.000 A 
BRANCH  22  25
ATOM     25  C   UNL     1      46.965   2.310   6.490  0.00  0.00    +0.000 C 
ATOM     26  N   UNL     1      47.126   3.133   5.397  0.00  0.00    +0.000 N 
ATOM     27  O   UNL     1      47.351   1.147   6.459  0.00  0.00    +0.000 OA
ATOM     28  H   UNL     1      46.799   4.091   5.433  0.00  0.00    +0.000 HD
ATOM     29  H   UNL     1      47.567   2.770   4.564  0.00  0.00    +0.000 HD
ENDBRANCH  22  25
ENDBRANCH  17  19
ENDBRANCH  16  17
ENDBRANCH   1  16
TORSDOF 6
ENDMDL
MODEL 9
REMARK VINA RESULT:    -6.385      2.898      4.384
REMARK INTER + INTRA:          -9.398
REMARK INTER:                  -8.750
REMARK INTRA:                  -0.649
REMARK UNBOUND:                -0.774
REMARK  Name = 
REMARK  7 active torsions:
REMARK  status: ('A' for Active; 'I' for Inactive)
REMARK    1  A    between atoms: C_1  and  C_2
REMARK    2  A    between atoms: N_7  and  C_8
REMARK    3  A    between atoms: C_10  and  C_11
REMARK    4  A    between atoms: C_11  and  C_12
REMARK    5  A    between atoms: C_12  and  N_13
REMARK    6  A    between atoms: N_13  and  C_14
REMARK    7  A    between atoms: C_17  and  C_18
REMARK                            x       y       z     vdW  Elec       q    Type
REMARK                         _______ _______ _______ _____ _____    ______ ____
ROOT
ATOM      1  C   UNL     1      48.327   7.307  12.341  0.00  0.00    +0.000 C 
ENDROOT
BRANCH   1   4
ATOM      2  C   UNL     1      49.208   6.494  16.008  0.00  0.00    +0.000 A 
ATOM      3  C   UNL     1      48.566   6.540  14.752  0.00  0.00    +0.000 A 
ATOM      4  C   UNL     1      49.088   7.249  13.651  0.00  0.00    +0.000 A 
ATOM      5  C   UNL     1      50.287   7.950  13.803  0.00  0.00    +0.000 A 
ATOM      6  C   UNL     1      50.956   7.915  15.021  0.00  0.00    +0.000 A 
ATOM      7  C   UNL     1      50.427   7.194  16.094  0.00  0.00    +0.000 A 
ATOM      8  F   UNL     1      51.163   7.156  17.217  0.00  0.00    +0.000 F 
BRANCH   2  15
ATOM      9  C   UNL     1      47.154   3.847  17.100  0.00  0.00    +0.000 C 
ATOM     10  C   UNL     1      48.603   4.340  17.143  0.00  0.00    +0.000 C 
ATOM     11  C   UNL     1      49.316   3.874  18.434  0.00  0.00    +0.000 C 
ATOM     12  O   UNL     1      48.773   4.493  19.611  0.00  0.00    +0.000 OA
ATOM     13  C   UNL     1      48.925   5.921  19.534  0.00  0.00    +0.000 C 
ATOM     14  C   UNL     1      48.201   6.502  18.312  0.00  0.00    +0.000 C 
ATOM     15  N   UNL     1      48.630   5.820  17.074  0.00  0.00    +0.000 N 
ENDBRANCH   2  15
ENDBRANCH   1   4
BRANCH   1  16
ATOM     16  C   UNL     1      47.099   8.213  12.467  0.00  0.00    +0.000 C 
BRANCH  16  17
ATOM     17  N   UNL     1      46.033   7.592  13.269  0.00  0.00    +0.000 N 
ATOM     18  H   UNL     1      45.305   8.256  13.533  0.00  0.00    +0.000 HD
BRANCH  17  19
ATOM     19  C   UNL     1      45.482   6.413  12.737  0.00  0.00    +0.000 A 
ATOM     20  C   UNL     1      45.031   6.275  11.429  0.00  0.00    +0.000 A 
ATOM     21  N   UNL     1      44.525   5.147  10.890  0.00  0.00    +0.000 NA
ATOM     22  C   UNL     1      44.514   4.073  11.709  0.00  0.00    +0.000 A 
ATOM     23  N   UNL     1      44.980   4.044  12.971  0.00  0.00    +0.000 NA
ATOM     24  C   UNL     1      45.471   5.215  13.438  0.00  0.00    +0.000 A 
BRANCH  22  25
ATOM     25  C   UNL     1      43.904   2.816  11.130  0.00  0.00    +0.000 C 
ATOM     26  N   UNL     1      44.554   2.304  10.028  0.00  0.00    +0.000 N 
ATOM     27  O   UNL     1      42.901   2.267  11.574  0.00  0.00    +0.000 OA
ATOM     28  H   UNL     1      45.379   2.770   9.667  0.00  0.00    +0.000 HD
ATOM     29  H   UNL     1      44.198   1.469   9.586  0.00  0.00    +0.000 HD
ENDBRANCH  22  25
ENDBRANCH  17  19
ENDBRANCH  16  17
ENDBRANCH   1  16
TORSDOF 6
ENDMDL
