MODEL 1
REMARK VINA RESULT:    -7.252      0.000      0.000
REMARK INTER + INTRA:          -9.493
REMARK INTER:                  -9.160
REMARK INTRA:                  -0.333
REMARK UNBOUND:                -0.333
REMARK  Name = 
REMARK  5 active torsions:
REMARK  status: ('A' for Active; 'I' for Inactive)
REMARK    1  A    between atoms: N_1  and  C_2
REMARK    2  A    between atoms: C_2  and  C_3
REMARK    3  A    between atoms: C_5  and  C_6
REMARK    4  A    between atoms: C_6  and  N_7
REMARK    5  A    between atoms: C_9  and  C_10
REMARK                            x       y       z     vdW  Elec       q    Type
REMARK                         _______ _______ _______ _____ _____    ______ ____
ROOT
ATOM      1  N   UNL     1      44.855   5.256  11.804  0.00  0.00    +0.000 N 
ATOM      2  C   UNL     1      45.554   4.341  12.544  0.00  0.00    +0.000 A 
ATOM      3  C   UNL     1      46.358   5.019  13.453  0.00  0.00    +0.000 A 
ATOM      4  C   UNL     1      46.285   6.409  13.084  0.00  0.00    +0.000 A 
ATOM      5  C   UNL     1      46.888   7.617  13.490  0.00  0.00    +0.000 A 
ATOM      6  C   UNL     1      46.516   8.797  12.858  0.00  0.00    +0.000 A 
ATOM      7  C   UNL     1      45.545   8.751  11.863  0.00  0.00    +0.000 A 
ATOM      8  N   UNL     1      44.913   7.634  11.452  0.00  0.00    +0.000 NA
ATOM      9  C   UNL     1      45.330   6.512  12.069  0.00  0.00    +0.000 A 
ENDROOT
BRANCH   3  10
ATOM     10  C   UNL     1      47.053   4.313  14.522  0.00  0.00    +0.000 C 
ATOM     11  N   UNL     1      47.158   4.947  15.727  0.00  0.00    +0.000 N 
ATOM     12  O   UNL     1      47.474   3.165  14.409  0.00  0.00    +0.000 OA
ATOM     13  H   UNL     1      46.628   5.776  15.939  0.00  0.00    +0.000 HD
ATOM     14  H   UNL     1      47.469   4.370  16.497  0.00  0.00    +0.000 HD
ENDBRANCH   3  10
BRANCH   1  15
ATOM     15  C   UNL     1      43.663   4.954  11.036  0.00  0.00    +0.000 C 
BRANCH  15  18
ATOM     16  C   UNL     1      45.193   3.281   8.075  0.00  0.00    +0.000 C 
ATOM     17  C   UNL     1      45.088   4.468   9.017  0.00  0.00    +0.000 C 
ATOM     18  C   UNL     1      43.864   4.065   9.822  0.00  0.00    +0.000 C 
ATOM     19  C   UNL     1      44.195   2.602  10.074  0.00  0.00    +0.000 C 
ATOM     20  O   UNL     1      44.818   2.125   8.860  0.00  0.00    +0.000 OA
BRANCH  16  21
ATOM     21  C   UNL     1      46.565   3.075   7.426  0.00  0.00    +0.000 C 
BRANCH  21  22
ATOM     22  N   UNL     1      46.931   4.174   6.528  0.00  0.00    +0.000 NA
ATOM     23  H   UNL     1      47.939   4.317   6.575  0.00  0.00    +0.000 HD
ATOM     24  H   UNL     1      46.511   5.026   6.914  0.00  0.00    +0.000 HD
ENDBRANCH  21  22
ENDBRANCH  16  21
ENDBRANCH  15  18
ENDBRANCH   1  15
TORSDOF 5
ENDMDL
MODEL 2
REMARK VINA RESULT:    -6.771      2.020      3.351
REMARK INTER + INTRA:          -8.885
REMARK INTER:                  -8.696
REMARK INTRA:                  -0.189
REMARK UNBOUND:                -0.333
REMARK  Name = 
REMARK  5 active torsions:
REMARK  status: ('A' for Active; 'I' for Inactive)
REMARK    1  A    between atoms: N_1  and  C_2
REMARK    2  A    between atoms: C_2  and  C_3
REMARK    3  A    between atoms: C_5  and  C_6
REMARK    4  A    between atoms: C_6  and  N_7
REMARK    5  A    between atoms: C_9  and  C_10
REMARK                            x       y       z     vdW  Elec       q    Type
REMARK                         _______ _______ _______ _____ _____    ______ ____
ROOT
ATOM      1  N   UNL     1      44.248   4.428  11.646  0.00  0.00    +0.000 N 
ATOM      2  C   UNL     1      43.749   5.664  11.334  0.00  0.00    +0.000 A 
ATOM      3  C   UNL     1      44.623   6.634  11.812  0.00  0.00    +0.000 A 
ATOM      4  C   UNL     1      45.578   5.936  12.632  0.00  0.00    +0.000 A 
ATOM      5  C   UNL     1      46.659   6.273  13.472  0.00  0.00    +0.000 A 
ATOM      6  C   UNL     1      47.364   5.254  14.100  0.00  0.00    +0.000 A 
ATOM      7  C   UNL     1      46.996   3.934  13.859  0.00  0.00    +0.000 A 
ATOM      8  N   UNL     1      45.994   3.547  13.046  0.00  0.00    +0.000 NA
ATOM      9  C   UNL     1      45.319   4.571  12.486  0.00  0.00    +0.000 A 
ENDROOT
BRANCH   3  10
ATOM     10  C   UNL     1      44.472   8.036  11.442  0.00  0.00    +0.000 C 
ATOM     11  N   UNL     1      43.278   8.416  10.900  0.00  0.00    +0.000 N 
ATOM     12  O   UNL     1      45.330   8.887  11.661  0.00  0.00    +0.000 OA
ATOM     13  H   UNL     1      42.470   7.817  10.921  0.00  0.00    +0.000 HD
ATOM     14  H   UNL     1      43.129   9.415  10.830  0.00  0.00    +0.000 HD
ENDBRANCH   3  10
BRANCH   1  15
ATOM     15  C   UNL     1      43.839   3.192  11.008  0.00  0.00    +0.000 C 
BRANCH  15  18
ATOM     16  C   UNL     1      45.606   3.542   7.743  0.00  0.00    +0.000 C 
ATOM     17  C   UNL     1      45.226   4.090   9.107  0.00  0.00    +0.000 C 
ATOM     18  C   UNL     1      44.212   3.046   9.544  0.00  0.00    +0.000 C 
ATOM     19  C   UNL     1      44.954   1.783   9.134  0.00  0.00    +0.000 C 
ATOM     20  O   UNL     1      45.617   2.102   7.890  0.00  0.00    +0.000 OA
BRANCH  16  21
ATOM     21  C   UNL     1      46.941   4.041   7.182  0.00  0.00    +0.000 C 
BRANCH  21  22
ATOM     22  N   UNL     1      47.853   2.944   6.845  0.00  0.00    +0.000 NA
ATOM     23  H   UNL     1      47.310   2.169   6.465  0.00  0.00    +0.000 HD
ATOM     24  H   UNL     1      48.245   2.602   7.728  0.00  0.00    +0.000 HD
ENDBRANCH  21  22
ENDBRANCH  16  21
ENDBRANCH  15  18
ENDBRANCH   1  15
TORSDOF 5
ENDMDL
MODEL 3
REMARK VINA RESULT:    -6.604      2.013      5.809
REMARK INTER + INTRA:          -8.674
REMARK INTER:                  -8.405
REMARK INTRA:                  -0.270
REMARK UNBOUND:                -0.333
REMARK  Name = 
REMARK  5 active torsions:
REMARK  status: ('A' for Active; 'I' for Inactive)
REMARK    1  A    between atoms: N_1  and  C_2
REMARK    2  A    between atoms: C_2  and  C_3
REMARK    3  A    between atoms: C_5  and  C_6
REMARK    4  A    between atoms: C_6  and  N_7
REMARK    5  A    between atoms: C_9  and  C_10
REMARK                            x       y       z     vdW  Elec       q    Type
REMARK                         _______ _______ _______ _____ _____    ______ ____
ROOT
ATOM      1  N   UNL     1      45.260   5.698  10.629  0.00  0.00    +0.000 N 
ATOM      2  C   UNL     1      44.388   5.128  11.516  0.00  0.00    +0.000 A 
ATOM      3  C   UNL     1      44.178   3.803  11.150  0.00  0.00    +0.000 A 
ATOM      4  C   UNL     1      44.796   3.648   9.859  0.00  0.00    +0.000 A 
ATOM      5  C   UNL     1      44.901   2.639   8.881  0.00  0.00    +0.000 A 
ATOM      6  C   UNL     1      45.631   2.898   7.726  0.00  0.00    +0.000 A 
ATOM      7  C   UNL     1      46.253   4.133   7.587  0.00  0.00    +0.000 A 
ATOM      8  N   UNL     1      46.215   5.125   8.498  0.00  0.00    +0.000 NA
ATOM      9  C   UNL     1      45.469   4.841   9.584  0.00  0.00    +0.000 A 
ENDROOT
BRANCH   3  10
ATOM     10  C   UNL     1      43.470   2.879  12.027  0.00  0.00    +0.000 C 
ATOM     11  N   UNL     1      43.435   3.181  13.359  0.00  0.00    +0.000 N 
ATOM     12  O   UNL     1      42.853   1.900  11.618  0.00  0.00    +0.000 OA
ATOM     13  H   UNL     1      43.715   4.082  13.707  0.00  0.00    +0.000 HD
ATOM     14  H   UNL     1      42.785   2.636  13.912  0.00  0.00    +0.000 HD
ENDBRANCH   3  10
BRANCH   1  15
ATOM     15  C   UNL     1      46.006   6.917  10.879  0.00  0.00    +0.000 C 
BRANCH  15  18
ATOM     16  C   UNL     1      48.589   7.498  13.505  0.00  0.00    +0.000 C 
ATOM     17  C   UNL     1      47.512   8.020  12.570  0.00  0.00    +0.000 C 
ATOM     18  C   UNL     1      47.242   6.772  11.746  0.00  0.00    +0.000 C 
ATOM     19  C   UNL     1      47.198   5.737  12.860  0.00  0.00    +0.000 C 
ATOM     20  O   UNL     1      48.216   6.132  13.807  0.00  0.00    +0.000 OA
BRANCH  16  21
ATOM     21  C   UNL     1      48.788   8.303  14.793  0.00  0.00    +0.000 C 
BRANCH  21  22
ATOM     22  N   UNL     1      47.555   8.955  15.244  0.00  0.00    +0.000 NA
ATOM     23  H   UNL     1      46.813   8.756  14.575  0.00  0.00    +0.000 HD
ATOM     24  H   UNL     1      47.717   9.966  15.187  0.00  0.00    +0.000 HD
ENDBRANCH  21  22
ENDBRANCH  16  21
ENDBRANCH  15  18
ENDBRANCH   1  15
TORSDOF 5
ENDMDL
MODEL 4
REMARK VINA RESULT:    -6.338      3.169      6.952
REMARK INTER + INTRA:          -8.338
REMARK INTER:                  -8.040
REMARK INTRA:                  -0.298
REMARK UNBOUND:                -0.333
REMARK  Name = 
REMARK  5 active torsions:
REMARK  status: ('A' for Active; 'I' for Inactive)
REMARK    1  A    between atoms: N_1  and  C_2
REMARK    2  A    between atoms: C_2  and  C_3
REMARK    3  A    between atoms: C_5  and  C_6
REMARK    4  A    between atoms: C_6  and  N_7
REMARK    5  A    between atoms: C_9  and  C_10
REMARK                            x       y       z     vdW  Elec       q    Type
REMARK                         _______ _______ _______ _____ _____    ______ ____
ROOT
ATOM      1  N   UNL     1      46.438   4.809  13.453  0.00  0.00    +0.000 N 
ATOM      2  C   UNL     1      46.694   6.143  13.280  0.00  0.00    +0.000 A 
ATOM      3  C   UNL     1      45.591   6.737  12.679  0.00  0.00    +0.000 A 
ATOM      4  C   UNL     1      44.725   5.655  12.286  0.00  0.00    +0.000 A 
ATOM      5  C   UNL     1      43.517   5.507  11.575  0.00  0.00    +0.000 A 
ATOM      6  C   UNL     1      42.983   4.233  11.420  0.00  0.00    +0.000 A 
ATOM      7  C   UNL     1      43.644   3.152  11.992  0.00  0.00    +0.000 A 
ATOM      8  N   UNL     1      44.784   3.232  12.706  0.00  0.00    +0.000 NA
ATOM      9  C   UNL     1      45.281   4.481  12.801  0.00  0.00    +0.000 A 
ENDROOT
BRANCH   3  10
ATOM     10  C   UNL     1      45.479   8.186  12.567  0.00  0.00    +0.000 C 
ATOM     11  N   UNL     1      46.119   8.938  13.509  0.00  0.00    +0.000 N 
ATOM     12  O   UNL     1      44.905   8.748  11.638  0.00  0.00    +0.000 OA
ATOM     13  H   UNL     1      46.791   8.538  14.142  0.00  0.00    +0.000 HD
ATOM     14  H   UNL     1      46.187   9.927  13.304  0.00  0.00    +0.000 HD
ENDBRANCH   3  10
BRANCH   1  15
ATOM     15  C   UNL     1      47.164   3.945  14.364  0.00  0.00    +0.000 C 
BRANCH  15  18
ATOM     16  C   UNL     1      47.872   4.075  18.023  0.00  0.00    +0.000 C 
ATOM     17  C   UNL     1      47.625   3.284  16.751  0.00  0.00    +0.000 C 
ATOM     18  C   UNL     1      47.226   4.407  15.808  0.00  0.00    +0.000 C 
ATOM     19  C   UNL     1      48.290   5.432  16.169  0.00  0.00    +0.000 C 
ATOM     20  O   UNL     1      48.477   5.319  17.598  0.00  0.00    +0.000 OA
BRANCH  16  21
ATOM     21  C   UNL     1      48.743   3.378  19.072  0.00  0.00    +0.000 C 
BRANCH  21  22
ATOM     22  N   UNL     1      48.307   3.663  20.443  0.00  0.00    +0.000 NA
ATOM     23  H   UNL     1      49.127   3.712  21.046  0.00  0.00    +0.000 HD
ATOM     24  H   UNL     1      47.776   2.845  20.760  0.00  0.00    +0.000 HD
ENDBRANCH  21  22
ENDBRANCH  16  21
ENDBRANCH  15  18
ENDBRANCH   1  15
TORSDOF 5
ENDMDL
MODEL 5
REMARK VINA RESULT:    -6.305      2.665      3.855
REMARK INTER + INTRA:          -8.296
REMARK INTER:                  -7.656
REMARK INTRA:                  -0.640
REMARK UNBOUND:                -0.333
REMARK  Name = 
REMARK  5 active torsions:
REMARK  status: ('A' for Active; 'I' for Inactive)
REMARK    1  A    between atoms: N_1  and  C_2
REMARK    2  A    between atoms: C_2  and  C_3
REMARK    3  A    between atoms: C_5  and  C_6
REMARK    4  A    between atoms: C_6  and  N_7
REMARK    5  A    between atoms: C_9  and  C_10
REMARK                            x       y       z     vdW  Elec       q    Type
REMARK                         _______ _______ _______ _____ _____    ______ ____
ROOT
ATOM      1  N   UNL     1      45.777   6.743  12.790  0.00  0.00    +0.000 N 
ATOM      2  C   UNL     1      44.939   7.818  12.666  0.00  0.00    +0.000 A 
ATOM      3  C   UNL     1      45.667   8.903  12.192  0.00  0.00    +0.000 A 
ATOM      4  C   UNL     1      47.049   8.502  12.240  0.00  0.00    +0.000 A 
ATOM      5  C   UNL     1      48.305   9.097  12.003  0.00  0.00    +0.000 A 
ATOM      6  C   UNL     1      49.451   8.327  12.158  0.00  0.00    +0.000 A 
ATOM      7  C   UNL     1      49.321   6.990  12.518  0.00  0.00    +0.000 A 
ATOM      8  N   UNL     1      48.150   6.357  12.730  0.00  0.00    +0.000 NA
ATOM      9  C   UNL     1      47.069   7.152  12.600  0.00  0.00    +0.000 A 
ENDROOT
BRANCH   3  10
ATOM     10  C   UNL     1      45.005  10.125  11.752  0.00  0.00    +0.000 C 
ATOM     11  N   UNL     1      43.751  10.366  12.236  0.00  0.00    +0.000 N 
ATOM     12  O   UNL     1      45.546  10.965  11.038  0.00  0.00    +0.000 OA
ATOM     13  H   UNL     1      43.365   9.838  13.000  0.00  0.00    +0.000 HD
ATOM     14  H   UNL     1      43.393  11.299  12.072  0.00  0.00    +0.000 HD
ENDBRANCH   3  10
BRANCH   1  15
ATOM     15  C   UNL     1      45.337   5.365  12.888  0.00  0.00    +0.000 C 
BRANCH  15  18
ATOM     16  C   UNL     1      44.195   4.121   9.562  0.00  0.00    +0.000 C 
ATOM     17  C   UNL     1      45.175   4.907  10.416  0.00  0.00    +0.000 C 
ATOM     18  C   UNL     1      44.458   4.869  11.755  0.00  0.00    +0.000 C 
ATOM     19  C   UNL     1      44.044   3.405  11.780  0.00  0.00    +0.000 C 
ATOM     20  O   UNL     1      43.683   3.074  10.420  0.00  0.00    +0.000 OA
BRANCH  16  21
ATOM     21  C   UNL     1      44.773   3.532   8.272  0.00  0.00    +0.000 C 
BRANCH  21  22
ATOM     22  N   UNL     1      45.910   4.304   7.762  0.00  0.00    +0.000 NA
ATOM     23  H   UNL     1      46.051   4.073   6.779  0.00  0.00    +0.000 HD
ATOM     24  H   UNL     1      46.743   3.962   8.251  0.00  0.00    +0.000 HD
ENDBRANCH  21  22
ENDBRANCH  16  21
ENDBRANCH  15  18
ENDBRANCH   1  15
TORSDOF 5
ENDMDL
MODEL 6
REMARK VINA RESULT:    -6.218      3.030      6.153
REMARK INTER + INTRA:          -8.187
REMARK INTER:                  -7.585
REMARK INTRA:                  -0.602
REMARK UNBOUND:                -0.333
REMARK  Name = 
REMARK  5 active torsions:
REMARK  status: ('A' for Active; 'I' for Inactive)
REMARK    1  A    between atoms: N_1  and  C_2
REMARK    2  A    between atoms: C_2  and  C_3
REMARK    3  A    between atoms: C_5  and  C_6
REMARK    4  A    between atoms: C_6  and  N_7
REMARK    5  A    between atoms: C_9  and  C_10
REMARK                            x       y       z     vdW  Elec       q    Type
REMARK                         _______ _______ _______ _____ _____    ______ ____
ROOT
ATOM      1  N   UNL     1      45.482   6.255  11.298  0.00  0.00    +0.000 N 
ATOM      2  C   UNL     1      45.991   5.938  10.068  0.00  0.00    +0.000 A 
ATOM      3  C   UNL     1      45.405   4.756   9.632  0.00  0.00    +0.000 A 
ATOM      4  C   UNL     1      44.670   4.241  10.757  0.00  0.00    +0.000 A 
ATOM      5  C   UNL     1      43.928   3.081  11.062  0.00  0.00    +0.000 A 
ATOM      6  C   UNL     1      43.340   2.972  12.316  0.00  0.00    +0.000 A 
ATOM      7  C   UNL     1      43.481   4.020  13.219  0.00  0.00    +0.000 A 
ATOM      8  N   UNL     1      44.150   5.165  12.976  0.00  0.00    +0.000 NA
ATOM      9  C   UNL     1      44.731   5.210  11.761  0.00  0.00    +0.000 A 
ENDROOT
BRANCH   3  10
ATOM     10  C   UNL     1      45.584   4.282   8.265  0.00  0.00    +0.000 C 
ATOM     11  N   UNL     1      44.542   3.609   7.693  0.00  0.00    +0.000 N 
ATOM     12  O   UNL     1      46.584   4.522   7.593  0.00  0.00    +0.000 OA
ATOM     13  H   UNL     1      43.626   3.596   8.109  0.00  0.00    +0.000 HD
ATOM     14  H   UNL     1      44.615   3.461   6.695  0.00  0.00    +0.000 HD
ENDBRANCH   3  10
BRANCH   1  15
ATOM     15  C   UNL     1      45.553   7.572  11.902  0.00  0.00    +0.000 C 
BRANCH  15  18
ATOM     16  C   UNL     1      42.961   9.912  10.591  0.00  0.00    +0.000 C 
ATOM     17  C   UNL     1      43.357   8.563  11.167  0.00  0.00    +0.000 C 
ATOM     18  C   UNL     1      44.871   8.690  11.135  0.00  0.00    +0.000 C 
ATOM     19  C   UNL     1      45.019  10.103  11.678  0.00  0.00    +0.000 C 
ATOM     20  O   UNL     1      43.921  10.858  11.118  0.00  0.00    +0.000 OA
BRANCH  16  21
ATOM     21  C   UNL     1      41.530  10.363  10.897  0.00  0.00    +0.000 C 
BRANCH  21  22
ATOM     22  N   UNL     1      40.684   9.264  11.371  0.00  0.00    +0.000 NA
ATOM     23  H   UNL     1      40.233   9.546  12.241  0.00  0.00    +0.000 HD
ATOM     24  H   UNL     1      41.312   8.493  11.621  0.00  0.00    +0.000 HD
ENDBRANCH  21  22
ENDBRANCH  16  21
ENDBRANCH  15  18
ENDBRANCH   1  15
TORSDOF 5
ENDMDL
MODEL 7
REMARK VINA RESULT:    -5.927      2.412      6.008
REMARK INTER + INTRA:          -7.820
REMARK INTER:                  -7.405
REMARK INTRA:                  -0.415
REMARK UNBOUND:                -0.333
REMARK  Name = 
REMARK  5 active torsions:
REMARK  status: ('A' for Active; 'I' for Inactive)
REMARK    1  A    between atoms: N_1  and  C_2
REMARK    2  A    between atoms: C_2  and  C_3
REMARK    3  A    between atoms: C_5  and  C_6
REMARK    4  A    between atoms: C_6  and  N_7
REMARK    5  A    between atoms: C_9  and  C_10
REMARK                            x       y       z     vdW  Elec       q    Type
REMARK                         _______ _______ _______ _____ _____    ______ ____
ROOT
ATOM      1  N   UNL     1      45.224   6.245  11.073  0.00  0.00    +0.000 N 
ATOM      2  C   UNL     1      45.783   5.900   9.872  0.00  0.00    +0.000 A 
ATOM      3  C   UNL     1      45.322   4.640   9.508  0.00  0.00    +0.000 A 
ATOM      4  C   UNL     1      44.622   4.129  10.657  0.00  0.00    +0.000 A 
ATOM      5  C   UNL     1      43.992   2.924  11.030  0.00  0.00    +0.000 A 
ATOM      6  C   UNL     1      43.396   2.839  12.283  0.00  0.00    +0.000 A 
ATOM      7  C   UNL     1      43.418   3.952  13.116  0.00  0.00    +0.000 A 
ATOM      8  N   UNL     1      43.976   5.139  12.806  0.00  0.00    +0.000 NA
ATOM      9  C   UNL     1      44.571   5.163  11.596  0.00  0.00    +0.000 A 
ENDROOT
BRANCH   3  10
ATOM     10  C   UNL     1      45.570   4.099   8.178  0.00  0.00    +0.000 C 
ATOM     11  N   UNL     1      44.589   3.327   7.623  0.00  0.00    +0.000 N 
ATOM     12  O   UNL     1      46.571   4.364   7.518  0.00  0.00    +0.000 OA
ATOM     13  H   UNL     1      43.664   3.279   8.016  0.00  0.00    +0.000 HD
ATOM     14  H   UNL     1      44.700   3.125   6.637  0.00  0.00    +0.000 HD
ENDBRANCH   3  10
BRANCH   1  15
ATOM     15  C   UNL     1      45.156   7.599  11.589  0.00  0.00    +0.000 C 
BRANCH  15  18
ATOM     16  C   UNL     1      48.218   7.886  13.699  0.00  0.00    +0.000 C 
ATOM     17  C   UNL     1      47.418   7.182  12.617  0.00  0.00    +0.000 C 
ATOM     18  C   UNL     1      46.094   7.917  12.739  0.00  0.00    +0.000 C 
ATOM     19  C   UNL     1      46.605   9.346  12.849  0.00  0.00    +0.000 C 
ATOM     20  O   UNL     1      47.808   9.273  13.648  0.00  0.00    +0.000 OA
BRANCH  16  21
ATOM     21  C   UNL     1      49.740   7.765  13.575  0.00  0.00    +0.000 C 
BRANCH  21  22
ATOM     22  N   UNL     1      50.151   7.098  12.337  0.00  0.00    +0.000 NA
ATOM     23  H   UNL     1      50.351   6.119  12.540  0.00  0.00    +0.000 HD
ATOM     24  H   UNL     1      51.046   7.513  12.059  0.00  0.00    +0.000 HD
ENDBRANCH  21  22
ENDBRANCH  16  21
ENDBRANCH  15  18
ENDBRANCH   1  15
TORSDOF 5
ENDMDL
MODEL 8
REMARK VINA RESULT:    -5.795      3.197      5.396
REMARK INTER + INTRA:          -7.653
REMARK INTER:                  -7.158
REMARK INTRA:                  -0.495
REMARK UNBOUND:                -0.333
REMARK  Name = 
REMARK  5 active torsions:
REMARK  status: ('A' for Active; 'I' for Inactive)
REMARK    1  A    between atoms: N_1  and  C_2
REMARK    2  A    between atoms: C_2  and  C_3
REMARK    3  A    between atoms: C_5  and  C_6
REMARK    4  A    between atoms: C_6  and  N_7
REMARK    5  A    between atoms: C_9  and  C_10
REMARK                            x       y       z     vdW  Elec       q    Type
REMARK                         _______ _______ _______ _____ _____    ______ ____
ROOT
ATOM      1  N   UNL     1      46.726   6.468  12.336  0.00  0.00    +0.000 N 
ATOM      2  C   UNL     1      47.131   6.109  13.593  0.00  0.00    +0.000 A 
ATOM      3  C   UNL     1      46.760   4.789  13.823  0.00  0.00    +0.000 A 
ATOM      4  C   UNL     1      45.907   4.421  12.724  0.00  0.00    +0.000 A 
ATOM      5  C   UNL     1      45.126   3.308  12.352  0.00  0.00    +0.000 A 
ATOM      6  C   UNL     1      44.430   3.349  11.150  0.00  0.00    +0.000 A 
ATOM      7  C   UNL     1      44.546   4.476  10.343  0.00  0.00    +0.000 A 
ATOM      8  N   UNL     1      45.298   5.557  10.629  0.00  0.00    +0.000 NA
ATOM      9  C   UNL     1      45.927   5.485  11.819  0.00  0.00    +0.000 A 
ENDROOT
BRANCH   3  10
ATOM     10  C   UNL     1      47.246   4.059  14.988  0.00  0.00    +0.000 C 
ATOM     11  N   UNL     1      47.156   4.682  16.200  0.00  0.00    +0.000 N 
ATOM     12  O   UNL     1      47.657   2.903  14.936  0.00  0.00    +0.000 OA
ATOM     13  H   UNL     1      46.616   5.521  16.328  0.00  0.00    +0.000 HD
ATOM     14  H   UNL     1      47.319   4.092  17.006  0.00  0.00    +0.000 HD
ENDBRANCH   3  10
BRANCH   1  15
ATOM     15  C   UNL     1      47.244   7.605  11.599  0.00  0.00    +0.000 C 
BRANCH  15  18
ATOM     16  C   UNL     1      50.839   8.443  12.128  0.00  0.00    +0.000 C 
ATOM     17  C   UNL     1      49.758   7.473  11.684  0.00  0.00    +0.000 C 
ATOM     18  C   UNL     1      48.518   8.222  12.144  0.00  0.00    +0.000 C 
ATOM     19  C   UNL     1      48.876   9.622  11.669  0.00  0.00    +0.000 C 
ATOM     20  O   UNL     1      50.296   9.765  11.897  0.00  0.00    +0.000 OA
BRANCH  16  21
ATOM     21  C   UNL     1      52.193   8.283  11.430  0.00  0.00    +0.000 C 
BRANCH  21  22
ATOM     22  N   UNL     1      52.242   7.100  10.565  0.00  0.00    +0.000 NA
ATOM     23  H   UNL     1      51.290   6.788  10.379  0.00  0.00    +0.000 HD
ATOM     24  H   UNL     1      52.679   6.351  11.112  0.00  0.00    +0.000 HD
ENDBRANCH  21  22
ENDBRANCH  16  21
ENDBRANCH  15  18
ENDBRANCH   1  15
TORSDOF 5
ENDMDL
MODEL 9
REMARK VINA RESULT:    -5.584      2.789      6.520
REMARK INTER + INTRA:          -7.386
REMARK INTER:                  -6.992
REMARK INTRA:                  -0.394
REMARK UNBOUND:                -0.333
REMARK  Name = 
REMARK  5 active torsions:
REMARK  status: ('A' for Active; 'I' for Inactive)
REMARK    1  A    between atoms: N_1  and  C_2
REMARK    2  A    between atoms: C_2  and  C_3
REMARK    3  A    between atoms: C_5  and  C_6
REMARK    4  A    between atoms: C_6  and  N_7
REMARK    5  A    between atoms: C_9  and  C_10
REMARK                            x       y       z     vdW  Elec       q    Type
REMARK                         _______ _______ _______ _____ _____    ______ ____
ROOT
ATOM      1  N   UNL     1      46.582   5.539  13.530  0.00  0.00    +0.000 N 
ATOM      2  C   UNL     1      45.895   4.377  13.303  0.00  0.00    +0.000 A 
ATOM      3  C   UNL     1      44.934   4.608  12.325  0.00  0.00    +0.000 A 
ATOM      4  C   UNL     1      44.916   6.032  12.119  0.00  0.00    +0.000 A 
ATOM      5  C   UNL     1      44.160   6.956  11.368  0.00  0.00    +0.000 A 
ATOM      6  C   UNL     1      44.486   8.305  11.441  0.00  0.00    +0.000 A 
ATOM      7  C   UNL     1      45.561   8.696  12.232  0.00  0.00    +0.000 A 
ATOM      8  N   UNL     1      46.338   7.859  12.948  0.00  0.00    +0.000 NA
ATOM      9  C   UNL     1      45.964   6.567  12.872  0.00  0.00    +0.000 A 
ENDROOT
BRANCH   3  10
ATOM     10  C   UNL     1      44.195   3.509  11.717  0.00  0.00    +0.000 C 
ATOM     11  N   UNL     1      43.767   2.509  12.542  0.00  0.00    +0.000 N 
ATOM     12  O   UNL     1      43.885   3.481  10.529  0.00  0.00    +0.000 OA
ATOM     13  H   UNL     1      43.786   2.601  13.544  0.00  0.00    +0.000 HD
ATOM     14  H   UNL     1      43.101   1.864  12.136  0.00  0.00    +0.000 HD
ENDBRANCH   3  10
BRANCH   1  15
ATOM     15  C   UNL     1      47.876   5.615  14.181  0.00  0.00    +0.000 C 
BRANCH  15  18
ATOM     16  C   UNL     1      48.093   4.479  17.726  0.00  0.00    +0.000 C 
ATOM     17  C   UNL     1      47.830   4.191  16.259  0.00  0.00    +0.000 C 
ATOM     18  C   UNL     1      47.855   5.603  15.699  0.00  0.00    +0.000 C 
ATOM     19  C   UNL     1      49.083   6.141  16.419  0.00  0.00    +0.000 C 
ATOM     20  O   UNL     1      49.041   5.572  17.747  0.00  0.00    +0.000 OA
BRANCH  16  21
ATOM     21  C   UNL     1      48.613   3.294  18.546  0.00  0.00    +0.000 C 
BRANCH  21  22
ATOM     22  N   UNL     1      48.299   3.417  19.972  0.00  0.00    +0.000 NA
ATOM     23  H   UNL     1      47.548   4.097  20.087  0.00  0.00    +0.000 HD
ATOM     24  H   UNL     1      49.121   3.832  20.422  0.00  0.00    +0.000 HD
ENDBRANCH  21  22
ENDBRANCH  16  21
ENDBRANCH  15  18
ENDBRANCH   1  15
TORSDOF 5
ENDMDL
