MODEL 1
REMARK VINA RESULT:    -8.365      0.000      0.000
REMARK INTER + INTRA:         -12.363
REMARK INTER:                 -11.299
REMARK INTRA:                  -1.064
REMARK UNBOUND:                -1.064
REMARK  Name = 
REMARK  6 active torsions:
REMARK  status: ('A' for Active; 'I' for Inactive)
REMARK    1  A    between atoms: C_2  and  C_21
REMARK    2  A    between atoms: N_3  and  C_4
REMARK    3  A    between atoms: C_4  and  C_5
REMARK    4  A    between atoms: C_8  and  C_9
REMARK    5  A    between atoms: C_9  and  N_10
REMARK    6  A    between atoms: C_11  and  C_13
REMARK                            x       y       z     vdW  Elec       q    Type
REMARK                         _______ _______ _______ _____ _____    ______ ____
ROOT
ATOM      1  C   UNL     1      46.548   7.506  12.975  0.00  0.00    +0.000 A 
ATOM      2  C   UNL     1      46.682   6.124  12.789  0.00  0.00    +0.000 A 
ATOM      3  C   UNL     1      45.777   5.419  11.986  0.00  0.00    +0.000 A 
ATOM      4  C   UNL     1      44.730   6.083  11.334  0.00  0.00    +0.000 A 
ATOM      5  C   UNL     1      44.597   7.466  11.519  0.00  0.00    +0.000 A 
ATOM      6  C   UNL     1      45.503   8.171  12.321  0.00  0.00    +0.000 A 
ENDROOT
BRANCH   1   7
ATOM      7  C   UNL     1      47.516   8.264  13.849  0.00  0.00    +0.000 C 
BRANCH   7  10
ATOM      8  O   UNL     1      50.015   7.115  14.252  0.00  0.00    +0.000 OA
ATOM      9  C   UNL     1      49.182   7.024  15.147  0.00  0.00    +0.000 C 
ATOM     10  N   UNL     1      47.900   7.510  15.017  0.00  0.00    +0.000 N 
ATOM     11  H   UNL     1      47.293   7.557  15.827  0.00  0.00    +0.000 HD
BRANCH   9  12
ATOM     12  C   UNL     1      49.492   6.374  16.411  0.00  0.00    +0.000 A 
ATOM     13  C   UNL     1      50.507   6.792  17.256  0.00  0.00    +0.000 A 
ATOM     14  O   UNL     1      50.581   6.014  18.367  0.00  0.00    +0.000 OA
ATOM     15  C   UNL     1      49.589   5.085  18.275  0.00  0.00    +0.000 A 
ATOM     16  N   UNL     1      49.342   4.151  19.226  0.00  0.00    +0.000 NA
ATOM     17  C   UNL     1      48.326   3.399  18.954  0.00  0.00    +0.000 A 
ATOM     18  N   UNL     1      47.551   3.493  17.820  0.00  0.00    +0.000 N 
ATOM     19  C   UNL     1      47.795   4.404  16.817  0.00  0.00    +0.000 A 
ATOM     20  O   UNL     1      47.131   4.450  15.788  0.00  0.00    +0.000 OA
ATOM     21  C   UNL     1      48.904   5.274  17.089  0.00  0.00    +0.000 A 
ATOM     22  H   UNL     1      46.775   2.865  17.671  0.00  0.00    +0.000 HD
ENDBRANCH   9  12
ENDBRANCH   7  10
ENDBRANCH   1   7
BRANCH   4  23
ATOM     23  C   UNL     1      43.781   5.337  10.431  0.00  0.00    +0.000 C 
BRANCH  23  24
ATOM     24  N   UNL     1      44.438   4.713   9.309  0.00  0.00    +0.000 N 
ATOM     25  C   UNL     1      44.557   3.340   9.244  0.00  0.00    +0.000 C 
ATOM     26  O   UNL     1      44.102   2.592  10.109  0.00  0.00    +0.000 OA
ATOM     27  H   UNL     1      45.068   5.245   8.716  0.00  0.00    +0.000 HD
BRANCH  25  28
ATOM     28  C   UNL     1      45.279   2.793   7.992  0.00  0.00    +0.000 C 
ATOM     29  C   UNL     1      46.157   1.592   8.362  0.00  0.00    +0.000 C 
ATOM     30  C   UNL     1      46.883   1.043   7.136  0.00  0.00    +0.000 C 
ATOM     31  C   UNL     1      47.632   2.156   6.410  0.00  0.00    +0.000 C 
ATOM     32  C   UNL     1      46.715   3.341   6.114  0.00  0.00    +0.000 C 
ATOM     33  N   UNL     1      46.082   3.857   7.332  0.00  0.00    +0.000 NA
ATOM     34  H   UNL     1      45.439   4.607   7.064  0.00  0.00    +0.000 HD
ENDBRANCH  25  28
ENDBRANCH  23  24
ENDBRANCH   4  23
TORSDOF 6
ENDMDL
MODEL 2
REMARK VINA RESULT:    -8.019      1.417      1.780
REMARK INTER + INTRA:         -11.895
REMARK INTER:                 -11.010
REMARK INTRA:                  -0.885
REMARK UNBOUND:                -1.064
REMARK  Name = 
REMARK  6 active torsions:
REMARK  status: ('A' for Active; 'I' for Inactive)
REMARK    1  A    between atoms: C_2  and  C_21
REMARK    2  A    between atoms: N_3  and  C_4
REMARK    3  A    between atoms: C_4  and  C_5
REMARK    4  A    between atoms: C_8  and  C_9
REMARK    5  A    between atoms: C_9  and  N_10
REMARK    6  A    between atoms: C_11  and  C_13
REMARK                            x       y       z     vdW  Elec       q    Type
REMARK                         _______ _______ _______ _____ _____    ______ ____
ROOT
ATOM      1  C   UNL     1      47.291   6.550  13.404  0.00  0.00    +0.000 A 
ATOM      2  C   UNL     1      46.698   6.855  12.172  0.00  0.00    +0.000 A 
ATOM      3  C   UNL     1      45.857   5.934  11.534  0.00  0.00    +0.000 A 
ATOM      4  C   UNL     1      45.574   4.696  12.124  0.00  0.00    +0.000 A 
ATOM      5  C   UNL     1      46.166   4.391  13.357  0.00  0.00    +0.000 A 
ATOM      6  C   UNL     1      47.006   5.312  13.995  0.00  0.00    +0.000 A 
ENDROOT
BRANCH   1   7
ATOM      7  C   UNL     1      48.206   7.537  14.085  0.00  0.00    +0.000 C 
BRANCH   7  10
ATOM      8  O   UNL     1      50.372   6.575  15.539  0.00  0.00    +0.000 OA
ATOM      9  C   UNL     1      49.370   6.926  16.152  0.00  0.00    +0.000 C 
ATOM     10  N   UNL     1      48.228   7.360  15.517  0.00  0.00    +0.000 N 
ATOM     11  H   UNL     1      47.482   7.787  16.054  0.00  0.00    +0.000 HD
BRANCH   9  12
ATOM     12  C   UNL     1      49.316   6.889  17.605  0.00  0.00    +0.000 A 
ATOM     13  C   UNL     1      49.479   8.008  18.405  0.00  0.00    +0.000 A 
ATOM     14  O   UNL     1      49.381   7.696  19.723  0.00  0.00    +0.000 OA
ATOM     15  C   UNL     1      49.124   6.361  19.803  0.00  0.00    +0.000 A 
ATOM     16  N   UNL     1      48.935   5.699  20.972  0.00  0.00    +0.000 NA
ATOM     17  C   UNL     1      48.661   4.446  20.812  0.00  0.00    +0.000 A 
ATOM     18  N   UNL     1      48.571   3.803  19.598  0.00  0.00    +0.000 N 
ATOM     19  C   UNL     1      48.792   4.434  18.395  0.00  0.00    +0.000 A 
ATOM     20  O   UNL     1      48.758   3.844  17.322  0.00  0.00    +0.000 OA
ATOM     21  C   UNL     1      49.079   5.835  18.526  0.00  0.00    +0.000 A 
ATOM     22  H   UNL     1      48.358   2.817  19.551  0.00  0.00    +0.000 HD
ENDBRANCH   9  12
ENDBRANCH   7  10
ENDBRANCH   1   7
BRANCH   4  23
ATOM     23  C   UNL     1      44.633   3.720  11.466  0.00  0.00    +0.000 C 
BRANCH  23  24
ATOM     24  N   UNL     1      45.177   3.128  10.267  0.00  0.00    +0.000 N 
ATOM     25  C   UNL     1      44.762   3.561   9.024  0.00  0.00    +0.000 C 
ATOM     26  O   UNL     1      43.943   4.466   8.876  0.00  0.00    +0.000 OA
ATOM     27  H   UNL     1      45.628   2.218  10.298  0.00  0.00    +0.000 HD
BRANCH  25  28
ATOM     28  C   UNL     1      45.420   2.850   7.820  0.00  0.00    +0.000 C 
ATOM     29  C   UNL     1      46.266   1.663   8.295  0.00  0.00    +0.000 C 
ATOM     30  C   UNL     1      46.928   0.953   7.117  0.00  0.00    +0.000 C 
ATOM     31  C   UNL     1      47.691   1.948   6.249  0.00  0.00    +0.000 C 
ATOM     32  C   UNL     1      46.809   3.128   5.850  0.00  0.00    +0.000 C 
ATOM     33  N   UNL     1      46.238   3.801   7.021  0.00  0.00    +0.000 NA
ATOM     34  H   UNL     1      45.614   4.542   6.690  0.00  0.00    +0.000 HD
ENDBRANCH  25  28
ENDBRANCH  23  24
ENDBRANCH   4  23
TORSDOF 6
ENDMDL
MODEL 3
REMARK VINA RESULT:    -7.893      1.619      9.269
REMARK INTER + INTRA:         -11.725
REMARK INTER:                 -10.907
REMARK INTRA:                  -0.818
REMARK UNBOUND:                -1.064
REMARK  Name = 
REMARK  6 active torsions:
REMARK  status: ('A' for Active; 'I' for Inactive)
REMARK    1  A    between atoms: C_2  and  C_21
REMARK    2  A    between atoms: N_3  and  C_4
REMARK    3  A    between atoms: C_4  and  C_5
REMARK    4  A    between atoms: C_8  and  C_9
REMARK    5  A    between atoms: C_9  and  N_10
REMARK    6  A    between atoms: C_11  and  C_13
REMARK                            x       y       z     vdW  Elec       q    Type
REMARK                         _______ _______ _______ _____ _____    ______ ____
ROOT
ATOM      1  C   UNL     1      45.668   7.033  11.648  0.00  0.00    +0.000 A 
ATOM      2  C   UNL     1      45.331   8.222  12.309  0.00  0.00    +0.000 A 
ATOM      3  C   UNL     1      46.192   8.780  13.261  0.00  0.00    +0.000 A 
ATOM      4  C   UNL     1      47.420   8.174  13.559  0.00  0.00    +0.000 A 
ATOM      5  C   UNL     1      47.757   6.986  12.898  0.00  0.00    +0.000 A 
ATOM      6  C   UNL     1      46.896   6.428  11.945  0.00  0.00    +0.000 A 
ENDROOT
BRANCH   1   7
ATOM      7  C   UNL     1      44.735   6.424  10.631  0.00  0.00    +0.000 C 
BRANCH   7  10
ATOM      8  O   UNL     1      43.304   4.064  10.298  0.00  0.00    +0.000 OA
ATOM      9  C   UNL     1      44.461   4.106   9.892  0.00  0.00    +0.000 C 
ATOM     10  N   UNL     1      45.266   5.209  10.064  0.00  0.00    +0.000 N 
ATOM     11  H   UNL     1      46.155   5.266   9.581  0.00  0.00    +0.000 HD
BRANCH   9  12
ATOM     12  C   UNL     1      45.068   2.973   9.211  0.00  0.00    +0.000 A 
ATOM     13  C   UNL     1      44.688   1.658   9.427  0.00  0.00    +0.000 A 
ATOM     14  O   UNL     1      45.412   0.800   8.664  0.00  0.00    +0.000 OA
ATOM     15  C   UNL     1      46.266   1.550   7.912  0.00  0.00    +0.000 A 
ATOM     16  N   UNL     1      47.129   1.028   7.006  0.00  0.00    +0.000 NA
ATOM     17  C   UNL     1      47.812   1.924   6.374  0.00  0.00    +0.000 A 
ATOM     18  N   UNL     1      47.716   3.283   6.576  0.00  0.00    +0.000 N 
ATOM     19  C   UNL     1      46.878   3.846   7.512  0.00  0.00    +0.000 A 
ATOM     20  O   UNL     1      46.833   5.052   7.720  0.00  0.00    +0.000 OA
ATOM     21  C   UNL     1      46.083   2.884   8.223  0.00  0.00    +0.000 A 
ATOM     22  H   UNL     1      48.288   3.925   6.048  0.00  0.00    +0.000 HD
ENDBRANCH   9  12
ENDBRANCH   7  10
ENDBRANCH   1   7
BRANCH   4  23
ATOM     23  C   UNL     1      48.372   8.795  14.549  0.00  0.00    +0.000 C 
BRANCH  23  24
ATOM     24  N   UNL     1      48.370   8.133  15.831  0.00  0.00    +0.000 N 
ATOM     25  C   UNL     1      49.300   7.153  16.112  0.00  0.00    +0.000 C 
ATOM     26  O   UNL     1      50.172   6.816  15.312  0.00  0.00    +0.000 OA
ATOM     27  H   UNL     1      47.542   8.148  16.420  0.00  0.00    +0.000 HD
BRANCH  25  28
ATOM     28  C   UNL     1      49.194   6.521  17.518  0.00  0.00    +0.000 C 
ATOM     29  C   UNL     1      50.165   5.342  17.649  0.00  0.00    +0.000 C 
ATOM     30  C   UNL     1      50.070   4.701  19.031  0.00  0.00    +0.000 C 
ATOM     31  C   UNL     1      48.623   4.351  19.364  0.00  0.00    +0.000 C 
ATOM     32  C   UNL     1      47.702   5.552  19.168  0.00  0.00    +0.000 C 
ATOM     33  N   UNL     1      47.799   6.097  17.809  0.00  0.00    +0.000 NA
ATOM     34  H   UNL     1      47.206   6.930  17.757  0.00  0.00    +0.000 HD
ENDBRANCH  25  28
ENDBRANCH  23  24
ENDBRANCH   4  23
TORSDOF 6
ENDMDL
MODEL 4
REMARK VINA RESULT:    -7.784      2.066      3.551
REMARK INTER + INTRA:         -11.578
REMARK INTER:                 -10.511
REMARK INTRA:                  -1.068
REMARK UNBOUND:                -1.064
REMARK  Name = 
REMARK  6 active torsions:
REMARK  status: ('A' for Active; 'I' for Inactive)
REMARK    1  A    between atoms: C_2  and  C_21
REMARK    2  A    between atoms: N_3  and  C_4
REMARK    3  A    between atoms: C_4  and  C_5
REMARK    4  A    between atoms: C_8  and  C_9
REMARK    5  A    between atoms: C_9  and  N_10
REMARK    6  A    between atoms: C_11  and  C_13
REMARK                            x       y       z     vdW  Elec       q    Type
REMARK                         _______ _______ _______ _____ _____    ______ ____
ROOT
ATOM      1  C   UNL     1      46.600   4.423  14.021  0.00  0.00    +0.000 A 
ATOM      2  C   UNL     1      46.110   5.660  13.582  0.00  0.00    +0.000 A 
ATOM      3  C   UNL     1      45.299   5.746  12.444  0.00  0.00    +0.000 A 
ATOM      4  C   UNL     1      44.943   4.594  11.729  0.00  0.00    +0.000 A 
ATOM      5  C   UNL     1      45.434   3.357  12.168  0.00  0.00    +0.000 A 
ATOM      6  C   UNL     1      46.243   3.271  13.307  0.00  0.00    +0.000 A 
ENDROOT
BRANCH   1   7
ATOM      7  C   UNL     1      47.483   4.331  15.240  0.00  0.00    +0.000 C 
BRANCH   7  10
ATOM      8  O   UNL     1      49.683   5.048  16.782  0.00  0.00    +0.000 OA
ATOM      9  C   UNL     1      48.814   5.890  16.580  0.00  0.00    +0.000 C 
ATOM     10  N   UNL     1      47.663   5.612  15.879  0.00  0.00    +0.000 N 
ATOM     11  H   UNL     1      47.046   6.366  15.600  0.00  0.00    +0.000 HD
BRANCH   9  12
ATOM     12  C   UNL     1      48.938   7.247  17.090  0.00  0.00    +0.000 A 
ATOM     13  C   UNL     1      49.226   7.543  18.413  0.00  0.00    +0.000 A 
ATOM     14  O   UNL     1      49.287   8.883  18.620  0.00  0.00    +0.000 OA
ATOM     15  C   UNL     1      49.063   9.488  17.420  0.00  0.00    +0.000 A 
ATOM     16  N   UNL     1      49.076  10.832  17.240  0.00  0.00    +0.000 NA
ATOM     17  C   UNL     1      48.883  11.186  16.012  0.00  0.00    +0.000 A 
ATOM     18  N   UNL     1      48.669  10.320  14.962  0.00  0.00    +0.000 N 
ATOM     19  C   UNL     1      48.612   8.954  15.114  0.00  0.00    +0.000 A 
ATOM     20  O   UNL     1      48.373   8.193  14.184  0.00  0.00    +0.000 OA
ATOM     21  C   UNL     1      48.843   8.516  16.462  0.00  0.00    +0.000 A 
ATOM     22  H   UNL     1      48.518  10.671  14.027  0.00  0.00    +0.000 HD
ENDBRANCH   9  12
ENDBRANCH   7  10
ENDBRANCH   1   7
BRANCH   4  23
ATOM     23  C   UNL     1      44.033   4.675  10.530  0.00  0.00    +0.000 C 
BRANCH  23  24
ATOM     24  N   UNL     1      44.480   3.864   9.424  0.00  0.00    +0.000 N 
ATOM     25  C   UNL     1      45.469   4.322   8.577  0.00  0.00    +0.000 C 
ATOM     26  O   UNL     1      46.023   5.410   8.730  0.00  0.00    +0.000 OA
ATOM     27  H   UNL     1      43.903   3.107   9.070  0.00  0.00    +0.000 HD
BRANCH  25  28
ATOM     28  C   UNL     1      45.861   3.362   7.432  0.00  0.00    +0.000 C 
ATOM     29  C   UNL     1      46.488   2.082   7.997  0.00  0.00    +0.000 C 
ATOM     30  C   UNL     1      46.887   1.124   6.878  0.00  0.00    +0.000 C 
ATOM     31  C   UNL     1      47.756   1.834   5.845  0.00  0.00    +0.000 C 
ATOM     32  C   UNL     1      47.098   3.122   5.358  0.00  0.00    +0.000 C 
ATOM     33  N   UNL     1      46.780   4.026   6.470  0.00  0.00    +0.000 NA
ATOM     34  H   UNL     1      46.292   4.840   6.088  0.00  0.00    +0.000 HD
ENDBRANCH  25  28
ENDBRANCH  23  24
ENDBRANCH   4  23
TORSDOF 6
ENDMDL
MODEL 5
REMARK VINA RESULT:    -7.664      4.609      9.770
REMARK INTER + INTRA:         -11.416
REMARK INTER:                 -10.699
REMARK INTRA:                  -0.718
REMARK UNBOUND:                -1.064
REMARK  Name = 
REMARK  6 active torsions:
REMARK  status: ('A' for Active; 'I' for Inactive)
REMARK    1  A    between atoms: C_2  and  C_21
REMARK    2  A    between atoms: N_3  and  C_4
REMARK    3  A    between atoms: C_4  and  C_5
REMARK    4  A    between atoms: C_8  and  C_9
REMARK    5  A    between atoms: C_9  and  N_10
REMARK    6  A    between atoms: C_11  and  C_13
REMARK                            x       y       z     vdW  Elec       q    Type
REMARK                         _______ _______ _______ _____ _____    ______ ____
ROOT
ATOM      1  C   UNL     1      48.623   3.244  17.235  0.00  0.00    +0.000 A 
ATOM      2  C   UNL     1      49.270   2.080  16.798  0.00  0.00    +0.000 A 
ATOM      3  C   UNL     1      50.640   1.896  17.024  0.00  0.00    +0.000 A 
ATOM      4  C   UNL     1      51.389   2.861  17.709  0.00  0.00    +0.000 A 
ATOM      5  C   UNL     1      50.741   4.024  18.147  0.00  0.00    +0.000 A 
ATOM      6  C   UNL     1      49.371   4.208  17.922  0.00  0.00    +0.000 A 
ENDROOT
BRANCH   1   7
ATOM      7  C   UNL     1      47.150   3.449  16.981  0.00  0.00    +0.000 C 
BRANCH   7  10
ATOM      8  O   UNL     1      47.278   3.041  14.234  0.00  0.00    +0.000 OA
ATOM      9  C   UNL     1      46.941   4.147  14.643  0.00  0.00    +0.000 C 
ATOM     10  N   UNL     1      46.905   4.460  15.983  0.00  0.00    +0.000 N 
ATOM     11  H   UNL     1      46.474   5.326  16.288  0.00  0.00    +0.000 HD
BRANCH   9  12
ATOM     12  C   UNL     1      46.571   5.215  13.728  0.00  0.00    +0.000 A 
ATOM     13  C   UNL     1      47.426   6.244  13.368  0.00  0.00    +0.000 A 
ATOM     14  O   UNL     1      46.833   7.104  12.501  0.00  0.00    +0.000 OA
ATOM     15  C   UNL     1      45.578   6.631  12.259  0.00  0.00    +0.000 A 
ATOM     16  N   UNL     1      44.700   7.224  11.413  0.00  0.00    +0.000 NA
ATOM     17  C   UNL     1      43.584   6.581  11.300  0.00  0.00    +0.000 A 
ATOM     18  N   UNL     1      43.270   5.416  11.963  0.00  0.00    +0.000 N 
ATOM     19  C   UNL     1      44.122   4.806  12.856  0.00  0.00    +0.000 A 
ATOM     20  O   UNL     1      43.816   3.796  13.479  0.00  0.00    +0.000 OA
ATOM     21  C   UNL     1      45.384   5.477  12.995  0.00  0.00    +0.000 A 
ATOM     22  H   UNL     1      42.373   4.972  11.830  0.00  0.00    +0.000 HD
ENDBRANCH   9  12
ENDBRANCH   7  10
ENDBRANCH   1   7
BRANCH   4  23
ATOM     23  C   UNL     1      52.853   2.647  17.996  0.00  0.00    +0.000 C 
BRANCH  23  24
ATOM     24  N   UNL     1      53.144   1.331  18.510  0.00  0.00    +0.000 N 
ATOM     25  C   UNL     1      53.998   0.488  17.829  0.00  0.00    +0.000 C 
ATOM     26  O   UNL     1      54.560   0.814  16.784  0.00  0.00    +0.000 OA
ATOM     27  H   UNL     1      52.528   0.892  19.189  0.00  0.00    +0.000 HD
BRANCH  25  28
ATOM     28  C   UNL     1      54.230  -0.893  18.483  0.00  0.00    +0.000 C 
ATOM     29  C   UNL     1      54.915  -1.844  17.495  0.00  0.00    +0.000 C 
ATOM     30  C   UNL     1      55.147  -3.216  18.123  0.00  0.00    +0.000 C 
ATOM     31  C   UNL     1      53.851  -3.764  18.712  0.00  0.00    +0.000 C 
ATOM     32  C   UNL     1      53.195  -2.752  19.649  0.00  0.00    +0.000 C 
ATOM     33  N   UNL     1      52.953  -1.469  18.979  0.00  0.00    +0.000 NA
ATOM     34  H   UNL     1      52.568  -0.819  19.669  0.00  0.00    +0.000 HD
ENDBRANCH  25  28
ENDBRANCH  23  24
ENDBRANCH   4  23
TORSDOF 6
ENDMDL
MODEL 6
REMARK VINA RESULT:    -7.562      2.847      9.595
REMARK INTER + INTRA:         -11.278
REMARK INTER:                 -10.495
REMARK INTRA:                  -0.782
REMARK UNBOUND:                -1.064
REMARK  Name = 
REMARK  6 active torsions:
REMARK  status: ('A' for Active; 'I' for Inactive)
REMARK    1  A    between atoms: C_2  and  C_21
REMARK    2  A    between atoms: N_3  and  C_4
REMARK    3  A    between atoms: C_4  and  C_5
REMARK    4  A    between atoms: C_8  and  C_9
REMARK    5  A    between atoms: C_9  and  N_10
REMARK    6  A    between atoms: C_11  and  C_13
REMARK                            x       y       z     vdW  Elec       q    Type
REMARK                         _______ _______ _______ _____ _____    ______ ____
ROOT
ATOM      1  C   UNL     1      44.649   5.017  12.263  0.00  0.00    +0.000 A 
ATOM      2  C   UNL     1      44.250   6.272  11.783  0.00  0.00    +0.000 A 
ATOM      3  C   UNL     1      44.988   7.422  12.090  0.00  0.00    +0.000 A 
ATOM      4  C   UNL     1      46.150   7.342  12.867  0.00  0.00    +0.000 A 
ATOM      5  C   UNL     1      46.549   6.087  13.346  0.00  0.00    +0.000 A 
ATOM      6  C   UNL     1      45.813   4.936  13.038  0.00  0.00    +0.000 A 
ENDROOT
BRANCH   1   7
ATOM      7  C   UNL     1      43.849   3.779  11.943  0.00  0.00    +0.000 C 
BRANCH   7  10
ATOM      8  O   UNL     1      43.870   4.083   9.180  0.00  0.00    +0.000 OA
ATOM      9  C   UNL     1      44.532   3.174   9.670  0.00  0.00    +0.000 C 
ATOM     10  N   UNL     1      44.537   2.909  11.021  0.00  0.00    +0.000 N 
ATOM     11  H   UNL     1      45.211   2.257  11.406  0.00  0.00    +0.000 HD
BRANCH   9  12
ATOM     12  C   UNL     1      45.348   2.297   8.845  0.00  0.00    +0.000 A 
ATOM     13  C   UNL     1      45.251   0.915   8.871  0.00  0.00    +0.000 A 
ATOM     14  O   UNL     1      46.123   0.340   8.004  0.00  0.00    +0.000 OA
ATOM     15  C   UNL     1      46.790   1.347   7.374  0.00  0.00    +0.000 A 
ATOM     16  N   UNL     1      47.726   1.145   6.415  0.00  0.00    +0.000 NA
ATOM     17  C   UNL     1      48.199   2.242   5.922  0.00  0.00    +0.000 A 
ATOM     18  N   UNL     1      47.828   3.510   6.310  0.00  0.00    +0.000 N 
ATOM     19  C   UNL     1      46.909   3.753   7.306  0.00  0.00    +0.000 A 
ATOM     20  O   UNL     1      46.620   4.883   7.680  0.00  0.00    +0.000 OA
ATOM     21  C   UNL     1      46.342   2.558   7.867  0.00  0.00    +0.000 A 
ATOM     22  H   UNL     1      48.247   4.324   5.884  0.00  0.00    +0.000 HD
ENDBRANCH   9  12
ENDBRANCH   7  10
ENDBRANCH   1   7
BRANCH   4  23
ATOM     23  C   UNL     1      46.974   8.570  13.162  0.00  0.00    +0.000 C 
BRANCH  23  24
ATOM     24  N   UNL     1      47.336   8.689  14.553  0.00  0.00    +0.000 N 
ATOM     25  C   UNL     1      48.512   9.313  14.918  0.00  0.00    +0.000 C 
ATOM     26  O   UNL     1      49.283   9.807  14.096  0.00  0.00    +0.000 OA
ATOM     27  H   UNL     1      46.915   8.083  15.252  0.00  0.00    +0.000 HD
BRANCH  25  28
ATOM     28  C   UNL     1      48.786   9.378  16.436  0.00  0.00    +0.000 C 
ATOM     29  C   UNL     1      50.037   8.566  16.790  0.00  0.00    +0.000 C 
ATOM     30  C   UNL     1      50.319   8.614  18.290  0.00  0.00    +0.000 C 
ATOM     31  C   UNL     1      49.079   8.218  19.084  0.00  0.00    +0.000 C 
ATOM     32  C   UNL     1      47.860   9.029  18.652  0.00  0.00    +0.000 C 
ATOM     33  N   UNL     1      47.608   8.908  17.212  0.00  0.00    +0.000 NA
ATOM     34  H   UNL     1      46.819   9.515  16.975  0.00  0.00    +0.000 HD
ENDBRANCH  25  28
ENDBRANCH  23  24
ENDBRANCH   4  23
TORSDOF 6
ENDMDL
MODEL 7
REMARK VINA RESULT:    -7.418      1.860      2.707
REMARK INTER + INTRA:         -11.083
REMARK INTER:                 -10.200
REMARK INTRA:                  -0.884
REMARK UNBOUND:                -1.064
REMARK  Name = 
REMARK  6 active torsions:
REMARK  status: ('A' for Active; 'I' for Inactive)
REMARK    1  A    between atoms: C_2  and  C_21
REMARK    2  A    between atoms: N_3  and  C_4
REMARK    3  A    between atoms: C_4  and  C_5
REMARK    4  A    between atoms: C_8  and  C_9
REMARK    5  A    between atoms: C_9  and  N_10
REMARK    6  A    between atoms: C_11  and  C_13
REMARK                            x       y       z     vdW  Elec       q    Type
REMARK                         _______ _______ _______ _____ _____    ______ ____
ROOT
ATOM      1  C   UNL     1      47.596   7.091  13.650  0.00  0.00    +0.000 A 
ATOM      2  C   UNL     1      46.992   7.905  12.682  0.00  0.00    +0.000 A 
ATOM      3  C   UNL     1      46.040   7.382  11.799  0.00  0.00    +0.000 A 
ATOM      4  C   UNL     1      45.654   6.038  11.877  0.00  0.00    +0.000 A 
ATOM      5  C   UNL     1      46.256   5.223  12.845  0.00  0.00    +0.000 A 
ATOM      6  C   UNL     1      47.208   5.747  13.729  0.00  0.00    +0.000 A 
ENDROOT
BRANCH   1   7
ATOM      7  C   UNL     1      48.630   7.651  14.593  0.00  0.00    +0.000 C 
BRANCH   7  10
ATOM      8  O   UNL     1      48.305   6.948  17.263  0.00  0.00    +0.000 OA
ATOM      9  C   UNL     1      49.097   6.304  16.584  0.00  0.00    +0.000 C 
ATOM     10  N   UNL     1      49.368   6.614  15.271  0.00  0.00    +0.000 N 
ATOM     11  H   UNL     1      49.904   5.970  14.699  0.00  0.00    +0.000 HD
BRANCH   9  12
ATOM     12  C   UNL     1      49.822   5.169  17.134  0.00  0.00    +0.000 A 
ATOM     13  C   UNL     1      49.204   4.019  17.598  0.00  0.00    +0.000 A 
ATOM     14  O   UNL     1      50.111   3.118  18.056  0.00  0.00    +0.000 OA
ATOM     15  C   UNL     1      51.347   3.660  17.872  0.00  0.00    +0.000 A 
ATOM     16  N   UNL     1      52.502   3.025  18.190  0.00  0.00    +0.000 NA
ATOM     17  C   UNL     1      53.560   3.706  17.891  0.00  0.00    +0.000 A 
ATOM     18  N   UNL     1      53.560   4.958  17.317  0.00  0.00    +0.000 N 
ATOM     19  C   UNL     1      52.408   5.646  17.015  0.00  0.00    +0.000 A 
ATOM     20  O   UNL     1      52.416   6.779  16.549  0.00  0.00    +0.000 OA
ATOM     21  C   UNL     1      51.208   4.916  17.312  0.00  0.00    +0.000 A 
ATOM     22  H   UNL     1      54.428   5.433  17.117  0.00  0.00    +0.000 HD
ENDBRANCH   9  12
ENDBRANCH   7  10
ENDBRANCH   1   7
BRANCH   4  23
ATOM     23  C   UNL     1      44.595   5.480  10.960  0.00  0.00    +0.000 C 
BRANCH  23  24
ATOM     24  N   UNL     1      45.141   4.846   9.784  0.00  0.00    +0.000 N 
ATOM     25  C   UNL     1      44.718   3.587   9.409  0.00  0.00    +0.000 C 
ATOM     26  O   UNL     1      43.860   2.962  10.031  0.00  0.00    +0.000 OA
ATOM     27  H   UNL     1      46.023   5.158   9.389  0.00  0.00    +0.000 HD
BRANCH  25  28
ATOM     28  C   UNL     1      45.375   3.018   8.132  0.00  0.00    +0.000 C 
ATOM     29  C   UNL     1      46.151   1.736   8.455  0.00  0.00    +0.000 C 
ATOM     30  C   UNL     1      46.812   1.163   7.204  0.00  0.00    +0.000 C 
ATOM     31  C   UNL     1      47.644   2.229   6.499  0.00  0.00    +0.000 C 
ATOM     32  C   UNL     1      46.829   3.495   6.249  0.00  0.00    +0.000 C 
ATOM     33  N   UNL     1      46.258   4.028   7.491  0.00  0.00    +0.000 NA
ATOM     34  H   UNL     1      45.679   4.837   7.253  0.00  0.00    +0.000 HD
ENDBRANCH  25  28
ENDBRANCH  23  24
ENDBRANCH   4  23
TORSDOF 6
ENDMDL
MODEL 8
REMARK VINA RESULT:    -7.224      4.618      9.742
REMARK INTER + INTRA:         -10.821
REMARK INTER:                  -9.844
REMARK INTRA:                  -0.977
REMARK UNBOUND:                -1.064
REMARK  Name = 
REMARK  6 active torsions:
REMARK  status: ('A' for Active; 'I' for Inactive)
REMARK    1  A    between atoms: C_2  and  C_21
REMARK    2  A    between atoms: N_3  and  C_4
REMARK    3  A    between atoms: C_4  and  C_5
REMARK    4  A    between atoms: C_8  and  C_9
REMARK    5  A    between atoms: C_9  and  N_10
REMARK    6  A    between atoms: C_11  and  C_13
REMARK                            x       y       z     vdW  Elec       q    Type
REMARK                         _______ _______ _______ _____ _____    ______ ____
ROOT
ATOM      1  C   UNL     1      48.891   3.368  17.330  0.00  0.00    +0.000 A 
ATOM      2  C   UNL     1      49.450   2.131  16.983  0.00  0.00    +0.000 A 
ATOM      3  C   UNL     1      50.813   1.880  17.186  0.00  0.00    +0.000 A 
ATOM      4  C   UNL     1      51.643   2.853  17.757  0.00  0.00    +0.000 A 
ATOM      5  C   UNL     1      51.083   4.090  18.105  0.00  0.00    +0.000 A 
ATOM      6  C   UNL     1      49.720   4.340  17.904  0.00  0.00    +0.000 A 
ENDROOT
BRANCH   1   7
ATOM      7  C   UNL     1      47.425   3.643  17.102  0.00  0.00    +0.000 C 
BRANCH   7  10
ATOM      8  O   UNL     1      47.282   3.102  14.379  0.00  0.00    +0.000 OA
ATOM      9  C   UNL     1      47.102   4.256  14.753  0.00  0.00    +0.000 C 
ATOM     10  N   UNL     1      47.211   4.631  16.073  0.00  0.00    +0.000 N 
ATOM     11  H   UNL     1      46.904   5.552  16.364  0.00  0.00    +0.000 HD
BRANCH   9  12
ATOM     12  C   UNL     1      46.777   5.318  13.813  0.00  0.00    +0.000 A 
ATOM     13  C   UNL     1      45.621   5.334  13.049  0.00  0.00    +0.000 A 
ATOM     14  O   UNL     1      45.564   6.437  12.259  0.00  0.00    +0.000 OA
ATOM     15  C   UNL     1      46.679   7.176  12.516  0.00  0.00    +0.000 A 
ATOM     16  N   UNL     1      46.945   8.367  11.925  0.00  0.00    +0.000 NA
ATOM     17  C   UNL     1      48.035   8.917  12.350  0.00  0.00    +0.000 A 
ATOM     18  N   UNL     1      48.878   8.378  13.297  0.00  0.00    +0.000 N 
ATOM     19  C   UNL     1      48.658   7.156  13.890  0.00  0.00    +0.000 A 
ATOM     20  O   UNL     1      49.438   6.661  14.695  0.00  0.00    +0.000 OA
ATOM     21  C   UNL     1      47.444   6.520  13.461  0.00  0.00    +0.000 A 
ATOM     22  H   UNL     1      49.718   8.864  13.576  0.00  0.00    +0.000 HD
ENDBRANCH   9  12
ENDBRANCH   7  10
ENDBRANCH   1   7
BRANCH   4  23
ATOM     23  C   UNL     1      53.101   2.572  18.020  0.00  0.00    +0.000 C 
BRANCH  23  24
ATOM     24  N   UNL     1      53.335   1.260  18.573  0.00  0.00    +0.000 N 
ATOM     25  C   UNL     1      53.988   0.296  17.833  0.00  0.00    +0.000 C 
ATOM     26  O   UNL     1      54.414   0.506  16.698  0.00  0.00    +0.000 OA
ATOM     27  H   UNL     1      52.789   0.925  19.362  0.00  0.00    +0.000 HD
BRANCH  25  28
ATOM     28  C   UNL     1      54.179  -1.066  18.536  0.00  0.00    +0.000 C 
ATOM     29  C   UNL     1      54.899  -2.051  17.609  0.00  0.00    +0.000 C 
ATOM     30  C   UNL     1      55.091  -3.406  18.286  0.00  0.00    +0.000 C 
ATOM     31  C   UNL     1      53.766  -3.927  18.833  0.00  0.00    +0.000 C 
ATOM     32  C   UNL     1      53.078  -2.883  19.709  0.00  0.00    +0.000 C 
ATOM     33  N   UNL     1      52.876  -1.618  18.993  0.00  0.00    +0.000 NA
ATOM     34  H   UNL     1      52.467  -0.945  19.645  0.00  0.00    +0.000 HD
ENDBRANCH  25  28
ENDBRANCH  23  24
ENDBRANCH   4  23
TORSDOF 6
ENDMDL
MODEL 9
REMARK VINA RESULT:    -7.161      3.147      4.743
REMARK INTER + INTRA:         -10.737
REMARK INTER:                  -9.616
REMARK INTRA:                  -1.121
REMARK UNBOUND:                -1.064
REMARK  Name = 
REMARK  6 active torsions:
REMARK  status: ('A' for Active; 'I' for Inactive)
REMARK    1  A    between atoms: C_2  and  C_21
REMARK    2  A    between atoms: N_3  and  C_4
REMARK    3  A    between atoms: C_4  and  C_5
REMARK    4  A    between atoms: C_8  and  C_9
REMARK    5  A    between atoms: C_9  and  N_10
REMARK    6  A    between atoms: C_11  and  C_13
REMARK                            x       y       z     vdW  Elec       q    Type
REMARK                         _______ _______ _______ _____ _____    ______ ____
ROOT
ATOM      1  C   UNL     1      47.541   6.375  13.713  0.00  0.00    +0.000 A 
ATOM      2  C   UNL     1      47.212   7.302  12.714  0.00  0.00    +0.000 A 
ATOM      3  C   UNL     1      46.259   6.992  11.735  0.00  0.00    +0.000 A 
ATOM      4  C   UNL     1      45.598   5.757  11.745  0.00  0.00    +0.000 A 
ATOM      5  C   UNL     1      45.926   4.831  12.745  0.00  0.00    +0.000 A 
ATOM      6  C   UNL     1      46.878   5.141  13.724  0.00  0.00    +0.000 A 
ENDROOT
BRANCH   1   7
ATOM      7  C   UNL     1      48.575   6.704  14.759  0.00  0.00    +0.000 C 
BRANCH   7  10
ATOM      8  O   UNL     1      49.644   9.265  14.931  0.00  0.00    +0.000 OA
ATOM      9  C   UNL     1      50.299   8.398  14.361  0.00  0.00    +0.000 C 
ATOM     10  N   UNL     1      49.828   7.118  14.176  0.00  0.00    +0.000 N 
ATOM     11  H   UNL     1      50.453   6.392  13.844  0.00  0.00    +0.000 HD
BRANCH   9  12
ATOM     12  C   UNL     1      51.621   8.675  13.823  0.00  0.00    +0.000 A 
ATOM     13  C   UNL     1      52.674   9.149  14.589  0.00  0.00    +0.000 A 
ATOM     14  O   UNL     1      53.795   9.320  13.842  0.00  0.00    +0.000 OA
ATOM     15  C   UNL     1      53.495   8.932  12.570  0.00  0.00    +0.000 A 
ATOM     16  N   UNL     1      54.388   8.940  11.550  0.00  0.00    +0.000 NA
ATOM     17  C   UNL     1      53.902   8.491  10.440  0.00  0.00    +0.000 A 
ATOM     18  N   UNL     1      52.610   8.049  10.262  0.00  0.00    +0.000 N 
ATOM     19  C   UNL     1      51.667   8.061  11.264  0.00  0.00    +0.000 A 
ATOM     20  O   UNL     1      50.506   7.712  11.085  0.00  0.00    +0.000 OA
ATOM     21  C   UNL     1      52.173   8.534  12.522  0.00  0.00    +0.000 A 
ATOM     22  H   UNL     1      52.298   7.717   9.361  0.00  0.00    +0.000 HD
ENDBRANCH   9  12
ENDBRANCH   7  10
ENDBRANCH   1   7
BRANCH   4  23
ATOM     23  C   UNL     1      44.538   5.436  10.723  0.00  0.00    +0.000 C 
BRANCH  23  24
ATOM     24  N   UNL     1      45.062   4.775   9.552  0.00  0.00    +0.000 N 
ATOM     25  C   UNL     1      44.727   3.464   9.281  0.00  0.00    +0.000 C 
ATOM     26  O   UNL     1      43.966   2.812   9.996  0.00  0.00    +0.000 OA
ATOM     27  H   UNL     1      45.888   5.132   9.081  0.00  0.00    +0.000 HD
BRANCH  25  28
ATOM     28  C   UNL     1      45.349   2.870   7.998  0.00  0.00    +0.000 C 
ATOM     29  C   UNL     1      46.204   1.643   8.336  0.00  0.00    +0.000 C 
ATOM     30  C   UNL     1      46.832   1.047   7.079  0.00  0.00    +0.000 C 
ATOM     31  C   UNL     1      47.575   2.119   6.287  0.00  0.00    +0.000 C 
ATOM     32  C   UNL     1      46.685   3.332   6.025  0.00  0.00    +0.000 C 
ATOM     33  N   UNL     1      46.148   3.892   7.271  0.00  0.00    +0.000 NA
ATOM     34  H   UNL     1      45.518   4.661   7.028  0.00  0.00    +0.000 HD
ENDBRANCH  25  28
ENDBRANCH  23  24
ENDBRANCH   4  23
TORSDOF 6
ENDMDL
