MODEL 1
REMARK VINA RESULT:    -7.877      0.000      0.000
REMARK INTER + INTRA:         -10.946
REMARK INTER:                 -10.179
REMARK INTRA:                  -0.767
REMARK UNBOUND:                -0.767
REMARK  Name = 
REMARK  7 active torsions:
REMARK  status: ('A' for Active; 'I' for Inactive)
REMARK    1  A    between atoms: C_1  and  C_2
REMARK    2  A    between atoms: C_2  and  N_3
REMARK    3  A    between atoms: C_2  and  C_17
REMARK    4  A    between atoms: C_4  and  C_6
REMARK    5  A    between atoms: N_12  and  C_13
REMARK    6  A    between atoms: C_20  and  O_21
REMARK    7  A    between atoms: O_21  and  C_22
REMARK                            x       y       z     vdW  Elec       q    Type
REMARK                         _______ _______ _______ _____ _____    ______ ____
ROOT
ATOM      1  C   UNL     1      43.021   5.248  13.225  0.00  0.00    +0.000 C 
ATOM      2  C   UNL     1      44.317   4.450  13.053  0.00  0.00    +0.000 C 
ENDROOT
BRANCH   2   3
ATOM      3  C   UNL     1      44.623   4.149  11.594  0.00  0.00    +0.000 A 
ATOM      4  C   UNL     1      44.302   2.882  11.086  0.00  0.00    +0.000 A 
ATOM      5  C   UNL     1      44.412   2.616   9.722  0.00  0.00    +0.000 A 
ATOM      6  C   UNL     1      44.830   3.614   8.839  0.00  0.00    +0.000 A 
ATOM      7  C   UNL     1      45.275   4.834   9.345  0.00  0.00    +0.000 A 
ATOM      8  C   UNL     1      45.183   5.093  10.716  0.00  0.00    +0.000 A 
BRANCH   6   9
ATOM      9  O   UNL     1      44.868   3.448   7.473  0.00  0.00    +0.000 OA
BRANCH   9  10
ATOM     10  C   UNL     1      46.054   2.984   6.917  0.00  0.00    +0.000 A 
ATOM     11  C   UNL     1      46.724   1.967   7.577  0.00  0.00    +0.000 A 
ATOM     12  N   UNL     1      47.854   1.396   7.085  0.00  0.00    +0.000 NA
ATOM     13  C   UNL     1      48.283   1.898   5.903  0.00  0.00    +0.000 A 
ATOM     14  C   UNL     1      47.632   2.934   5.256  0.00  0.00    +0.000 A 
ATOM     15  N   UNL     1      46.519   3.511   5.757  0.00  0.00    +0.000 NA
ENDBRANCH   9  10
ENDBRANCH   6   9
ENDBRANCH   2   3
BRANCH   2  16
ATOM     16  N   UNL     1      45.440   5.134  13.660  0.00  0.00    +0.000 N 
ATOM     17  C   UNL     1      46.576   4.495  14.087  0.00  0.00    +0.000 C 
ATOM     18  O   UNL     1      46.798   3.309  13.860  0.00  0.00    +0.000 OA
ATOM     19  H   UNL     1      45.228   6.051  14.036  0.00  0.00    +0.000 HD
BRANCH  17  20
ATOM     20  C   UNL     1      47.555   5.349  14.777  0.00  0.00    +0.000 A 
ATOM     21  C   UNL     1      47.909   5.090  16.094  0.00  0.00    +0.000 A 
ATOM     22  S   UNL     1      49.113   6.146  16.687  0.00  0.00    +0.000 S 
ATOM     23  C   UNL     1      49.158   7.012  15.221  0.00  0.00    +0.000 A 
ATOM     24  N   UNL     1      49.998   8.068  15.047  0.00  0.00    +0.000 NA
ATOM     25  C   UNL     1      49.906   8.648  13.901  0.00  0.00    +0.000 A 
ATOM     26  N   UNL     1      49.042   8.284  12.891  0.00  0.00    +0.000 N 
ATOM     27  C   UNL     1      49.008   9.023  11.646  0.00  0.00    +0.000 C 
ATOM     28  C   UNL     1      48.183   7.201  13.022  0.00  0.00    +0.000 A 
ATOM     29  O   UNL     1      47.426   6.844  12.123  0.00  0.00    +0.000 OA
ATOM     30  C   UNL     1      48.267   6.508  14.297  0.00  0.00    +0.000 A 
ENDBRANCH  17  20
ENDBRANCH   2  16
TORSDOF 5
ENDMDL
MODEL 2
REMARK VINA RESULT:    -7.845      1.560      2.838
REMARK INTER + INTRA:         -10.904
REMARK INTER:                 -10.272
REMARK INTRA:                  -0.632
REMARK UNBOUND:                -0.767
REMARK  Name = 
REMARK  7 active torsions:
REMARK  status: ('A' for Active; 'I' for Inactive)
REMARK    1  A    between atoms: C_1  and  C_2
REMARK    2  A    between atoms: C_2  and  N_3
REMARK    3  A    between atoms: C_2  and  C_17
REMARK    4  A    between atoms: C_4  and  C_6
REMARK    5  A    between atoms: N_12  and  C_13
REMARK    6  A    between atoms: C_20  and  O_21
REMARK    7  A    between atoms: O_21  and  C_22
REMARK                            x       y       z     vdW  Elec       q    Type
REMARK                         _______ _______ _______ _____ _____    ______ ____
ROOT
ATOM      1  C   UNL     1      43.121   5.505  13.247  0.00  0.00    +0.000 C 
ATOM      2  C   UNL     1      44.392   4.663  13.096  0.00  0.00    +0.000 C 
ENDROOT
BRANCH   2   3
ATOM      3  C   UNL     1      44.645   4.250  11.654  0.00  0.00    +0.000 A 
ATOM      4  C   UNL     1      44.189   2.997  11.222  0.00  0.00    +0.000 A 
ATOM      5  C   UNL     1      44.253   2.645   9.874  0.00  0.00    +0.000 A 
ATOM      6  C   UNL     1      44.759   3.544   8.932  0.00  0.00    +0.000 A 
ATOM      7  C   UNL     1      45.334   4.737   9.365  0.00  0.00    +0.000 A 
ATOM      8  C   UNL     1      45.288   5.081  10.719  0.00  0.00    +0.000 A 
BRANCH   6   9
ATOM      9  O   UNL     1      44.761   3.298   7.578  0.00  0.00    +0.000 OA
BRANCH   9  10
ATOM     10  C   UNL     1      45.961   2.900   7.001  0.00  0.00    +0.000 A 
ATOM     11  C   UNL     1      46.641   1.843   7.586  0.00  0.00    +0.000 A 
ATOM     12  N   UNL     1      47.785   1.332   7.063  0.00  0.00    +0.000 NA
ATOM     13  C   UNL     1      48.218   1.933   5.931  0.00  0.00    +0.000 A 
ATOM     14  C   UNL     1      47.558   3.008   5.361  0.00  0.00    +0.000 A 
ATOM     15  N   UNL     1      46.430   3.525   5.893  0.00  0.00    +0.000 NA
ENDBRANCH   9  10
ENDBRANCH   6   9
ENDBRANCH   2   3
BRANCH   2  16
ATOM     16  N   UNL     1      45.549   5.359  13.619  0.00  0.00    +0.000 N 
ATOM     17  C   UNL     1      46.668   4.721  14.091  0.00  0.00    +0.000 C 
ATOM     18  O   UNL     1      46.842   3.511  13.979  0.00  0.00    +0.000 OA
ATOM     19  H   UNL     1      45.378   6.316  13.907  0.00  0.00    +0.000 HD
BRANCH  17  20
ATOM     20  C   UNL     1      47.688   5.599  14.683  0.00  0.00    +0.000 A 
ATOM     21  C   UNL     1      48.257   6.621  13.936  0.00  0.00    +0.000 A 
ATOM     22  S   UNL     1      49.362   7.571  14.826  0.00  0.00    +0.000 S 
ATOM     23  C   UNL     1      49.151   6.615  16.220  0.00  0.00    +0.000 A 
ATOM     24  N   UNL     1      49.817   6.888  17.375  0.00  0.00    +0.000 NA
ATOM     25  C   UNL     1      49.585   6.067  18.339  0.00  0.00    +0.000 A 
ATOM     26  N   UNL     1      48.748   4.974  18.272  0.00  0.00    +0.000 N 
ATOM     27  C   UNL     1      48.578   4.102  19.415  0.00  0.00    +0.000 C 
ATOM     28  C   UNL     1      48.038   4.672  17.118  0.00  0.00    +0.000 A 
ATOM     29  O   UNL     1      47.266   3.719  17.046  0.00  0.00    +0.000 OA
ATOM     30  C   UNL     1      48.259   5.585  16.009  0.00  0.00    +0.000 A 
ENDBRANCH  17  20
ENDBRANCH   2  16
TORSDOF 5
ENDMDL
MODEL 3
REMARK VINA RESULT:    -7.434      2.542      4.375
REMARK INTER + INTRA:         -10.374
REMARK INTER:                  -9.186
REMARK INTRA:                  -1.188
REMARK UNBOUND:                -0.767
REMARK  Name = 
REMARK  7 active torsions:
REMARK  status: ('A' for Active; 'I' for Inactive)
REMARK    1  A    between atoms: C_1  and  C_2
REMARK    2  A    between atoms: C_2  and  N_3
REMARK    3  A    between atoms: C_2  and  C_17
REMARK    4  A    between atoms: C_4  and  C_6
REMARK    5  A    between atoms: N_12  and  C_13
REMARK    6  A    between atoms: C_20  and  O_21
REMARK    7  A    between atoms: O_21  and  C_22
REMARK                            x       y       z     vdW  Elec       q    Type
REMARK                         _______ _______ _______ _____ _____    ______ ____
ROOT
ATOM      1  C   UNL     1      47.701   9.049  12.444  0.00  0.00    +0.000 C 
ATOM      2  C   UNL     1      47.047   8.098  13.451  0.00  0.00    +0.000 C 
ENDROOT
BRANCH   2   3
ATOM      3  C   UNL     1      46.133   7.084  12.781  0.00  0.00    +0.000 A 
ATOM      4  C   UNL     1      45.066   7.551  12.001  0.00  0.00    +0.000 A 
ATOM      5  C   UNL     1      44.304   6.666  11.239  0.00  0.00    +0.000 A 
ATOM      6  C   UNL     1      44.603   5.302  11.230  0.00  0.00    +0.000 A 
ATOM      7  C   UNL     1      45.575   4.809  12.098  0.00  0.00    +0.000 A 
ATOM      8  C   UNL     1      46.326   5.694  12.878  0.00  0.00    +0.000 A 
BRANCH   6   9
ATOM      9  O   UNL     1      43.955   4.391  10.428  0.00  0.00    +0.000 OA
BRANCH   9  10
ATOM     10  C   UNL     1      44.716   3.719   9.478  0.00  0.00    +0.000 A 
ATOM     11  C   UNL     1      45.335   4.473   8.493  0.00  0.00    +0.000 A 
ATOM     12  N   UNL     1      46.154   3.924   7.560  0.00  0.00    +0.000 NA
ATOM     13  C   UNL     1      46.319   2.584   7.656  0.00  0.00    +0.000 A 
ATOM     14  C   UNL     1      45.679   1.825   8.621  0.00  0.00    +0.000 A 
ATOM     15  N   UNL     1      44.852   2.371   9.537  0.00  0.00    +0.000 NA
ENDBRANCH   9  10
ENDBRANCH   6   9
ENDBRANCH   2   3
BRANCH   2  16
ATOM     16  N   UNL     1      48.043   7.412  14.249  0.00  0.00    +0.000 N 
ATOM     17  C   UNL     1      48.602   7.942  15.383  0.00  0.00    +0.000 C 
ATOM     18  O   UNL     1      48.203   8.982  15.899  0.00  0.00    +0.000 OA
ATOM     19  H   UNL     1      48.531   6.664  13.770  0.00  0.00    +0.000 HD
BRANCH  17  20
ATOM     20  C   UNL     1      49.675   7.139  15.988  0.00  0.00    +0.000 A 
ATOM     21  C   UNL     1      50.976   7.620  16.032  0.00  0.00    +0.000 A 
ATOM     22  S   UNL     1      52.055   6.573  16.841  0.00  0.00    +0.000 S 
ATOM     23  C   UNL     1      50.827   5.423  17.112  0.00  0.00    +0.000 A 
ATOM     24  N   UNL     1      51.078   4.260  17.772  0.00  0.00    +0.000 NA
ATOM     25  C   UNL     1      50.066   3.471  17.879  0.00  0.00    +0.000 A 
ATOM     26  N   UNL     1      48.806   3.719  17.380  0.00  0.00    +0.000 N 
ATOM     27  C   UNL     1      47.744   2.748  17.540  0.00  0.00    +0.000 C 
ATOM     28  C   UNL     1      48.505   4.901  16.717  0.00  0.00    +0.000 A 
ATOM     29  O   UNL     1      47.381   5.153  16.290  0.00  0.00    +0.000 OA
ATOM     30  C   UNL     1      49.617   5.828  16.589  0.00  0.00    +0.000 A 
ENDBRANCH  17  20
ENDBRANCH   2  16
TORSDOF 5
ENDMDL
MODEL 4
REMARK VINA RESULT:    -7.176      2.982      4.291
REMARK INTER + INTRA:         -10.041
REMARK INTER:                  -9.186
REMARK INTRA:                  -0.855
REMARK UNBOUND:                -0.767
REMARK  Name = 
REMARK  7 active torsions:
REMARK  status: ('A' for Active; 'I' for Inactive)
REMARK    1  A    between atoms: C_1  and  C_2
REMARK    2  A    between atoms: C_2  and  N_3
REMARK    3  A    between atoms: C_2  and  C_17
REMARK    4  A    between atoms: C_4  and  C_6
REMARK    5  A    between atoms: N_12  and  C_13
REMARK    6  A    between atoms: C_20  and  O_21
REMARK    7  A    between atoms: O_21  and  C_22
REMARK                            x       y       z     vdW  Elec       q    Type
REMARK                         _______ _______ _______ _____ _____    ______ ____
ROOT
ATOM      1  C   UNL     1      48.891   7.767  12.976  0.00  0.00    +0.000 C 
ATOM      2  C   UNL     1      47.709   7.219  13.782  0.00  0.00    +0.000 C 
ENDROOT
BRANCH   2   3
ATOM      3  C   UNL     1      46.706   6.481  12.909  0.00  0.00    +0.000 A 
ATOM      4  C   UNL     1      46.107   7.167  11.843  0.00  0.00    +0.000 A 
ATOM      5  C   UNL     1      45.310   6.490  10.921  0.00  0.00    +0.000 A 
ATOM      6  C   UNL     1      45.108   5.112  11.039  0.00  0.00    +0.000 A 
ATOM      7  C   UNL     1      45.589   4.444  12.163  0.00  0.00    +0.000 A 
ATOM      8  C   UNL     1      46.372   5.128  13.098  0.00  0.00    +0.000 A 
BRANCH   6   9
ATOM      9  O   UNL     1      44.415   4.368  10.112  0.00  0.00    +0.000 OA
BRANCH   9  10
ATOM     10  C   UNL     1      45.158   3.641   9.190  0.00  0.00    +0.000 A 
ATOM     11  C   UNL     1      45.226   2.267   9.353  0.00  0.00    +0.000 A 
ATOM     12  N   UNL     1      45.868   1.458   8.471  0.00  0.00    +0.000 NA
ATOM     13  C   UNL     1      46.443   2.091   7.422  0.00  0.00    +0.000 A 
ATOM     14  C   UNL     1      46.401   3.467   7.273  0.00  0.00    +0.000 A 
ATOM     15  N   UNL     1      45.777   4.270   8.160  0.00  0.00    +0.000 NA
ENDBRANCH   9  10
ENDBRANCH   6   9
ENDBRANCH   2   3
BRANCH   2  16
ATOM     16  N   UNL     1      48.159   6.354  14.853  0.00  0.00    +0.000 N 
ATOM     17  C   UNL     1      48.639   6.818  16.051  0.00  0.00    +0.000 C 
ATOM     18  O   UNL     1      48.594   8.002  16.373  0.00  0.00    +0.000 OA
ATOM     19  H   UNL     1      48.394   5.409  14.569  0.00  0.00    +0.000 HD
BRANCH  17  20
ATOM     20  C   UNL     1      49.151   5.785  16.965  0.00  0.00    +0.000 A 
ATOM     21  C   UNL     1      48.276   5.022  17.725  0.00  0.00    +0.000 A 
ATOM     22  S   UNL     1      49.062   3.830  18.661  0.00  0.00    +0.000 S 
ATOM     23  C   UNL     1      50.596   4.332  18.120  0.00  0.00    +0.000 A 
ATOM     24  N   UNL     1      51.734   3.717  18.541  0.00  0.00    +0.000 NA
ATOM     25  C   UNL     1      52.824   4.219  18.074  0.00  0.00    +0.000 A 
ATOM     26  N   UNL     1      52.904   5.297  17.220  0.00  0.00    +0.000 N 
ATOM     27  C   UNL     1      54.189   5.794  16.774  0.00  0.00    +0.000 C 
ATOM     28  C   UNL     1      51.766   5.941  16.754  0.00  0.00    +0.000 A 
ATOM     29  O   UNL     1      51.814   6.886  15.970  0.00  0.00    +0.000 OA
ATOM     30  C   UNL     1      50.512   5.394  17.244  0.00  0.00    +0.000 A 
ENDBRANCH  17  20
ENDBRANCH   2  16
TORSDOF 5
ENDMDL
MODEL 5
REMARK VINA RESULT:    -7.032      3.281      5.679
REMARK INTER + INTRA:          -9.855
REMARK INTER:                  -8.622
REMARK INTRA:                  -1.232
REMARK UNBOUND:                -0.767
REMARK  Name = 
REMARK  7 active torsions:
REMARK  status: ('A' for Active; 'I' for Inactive)
REMARK    1  A    between atoms: C_1  and  C_2
REMARK    2  A    between atoms: C_2  and  N_3
REMARK    3  A    between atoms: C_2  and  C_17
REMARK    4  A    between atoms: C_4  and  C_6
REMARK    5  A    between atoms: N_12  and  C_13
REMARK    6  A    between atoms: C_20  and  O_21
REMARK    7  A    between atoms: O_21  and  C_22
REMARK                            x       y       z     vdW  Elec       q    Type
REMARK                         _______ _______ _______ _____ _____    ______ ____
ROOT
ATOM      1  C   UNL     1      50.509   8.360  12.645  0.00  0.00    +0.000 C 
ATOM      2  C   UNL     1      49.298   8.621  13.544  0.00  0.00    +0.000 C 
ENDROOT
BRANCH   2   3
ATOM      3  C   UNL     1      47.988   8.221  12.882  0.00  0.00    +0.000 A 
ATOM      4  C   UNL     1      47.936   7.018  12.164  0.00  0.00    +0.000 A 
ATOM      5  C   UNL     1      46.722   6.532  11.681  0.00  0.00    +0.000 A 
ATOM      6  C   UNL     1      45.536   7.231  11.919  0.00  0.00    +0.000 A 
ATOM      7  C   UNL     1      45.591   8.489  12.516  0.00  0.00    +0.000 A 
ATOM      8  C   UNL     1      46.812   8.985  12.983  0.00  0.00    +0.000 A 
BRANCH   6   9
ATOM      9  O   UNL     1      44.295   6.760  11.555  0.00  0.00    +0.000 OA
BRANCH   9  10
ATOM     10  C   UNL     1      44.074   5.392  11.659  0.00  0.00    +0.000 A 
ATOM     11  C   UNL     1      43.829   4.869  12.919  0.00  0.00    +0.000 A 
ATOM     12  N   UNL     1      43.534   3.559  13.121  0.00  0.00    +0.000 NA
ATOM     13  C   UNL     1      43.504   2.797  12.003  0.00  0.00    +0.000 A 
ATOM     14  C   UNL     1      43.778   3.311  10.747  0.00  0.00    +0.000 A 
ATOM     15  N   UNL     1      44.087   4.610  10.551  0.00  0.00    +0.000 NA
ENDBRANCH   9  10
ENDBRANCH   6   9
ENDBRANCH   2   3
BRANCH   2  16
ATOM     16  N   UNL     1      49.432   7.944  14.817  0.00  0.00    +0.000 N 
ATOM     17  C   UNL     1      48.957   8.452  16.000  0.00  0.00    +0.000 C 
ATOM     18  O   UNL     1      48.251   9.454  16.058  0.00  0.00    +0.000 OA
ATOM     19  H   UNL     1      50.156   7.235  14.849  0.00  0.00    +0.000 HD
BRANCH  17  20
ATOM     20  C   UNL     1      49.291   7.668  17.198  0.00  0.00    +0.000 A 
ATOM     21  C   UNL     1      49.907   8.273  18.285  0.00  0.00    +0.000 A 
ATOM     22  S   UNL     1      50.140   7.212  19.603  0.00  0.00    +0.000 S 
ATOM     23  C   UNL     1      49.472   5.903  18.742  0.00  0.00    +0.000 A 
ATOM     24  N   UNL     1      49.364   4.667  19.302  0.00  0.00    +0.000 NA
ATOM     25  C   UNL     1      48.868   3.765  18.528  0.00  0.00    +0.000 A 
ATOM     26  N   UNL     1      48.466   3.966  17.225  0.00  0.00    +0.000 N 
ATOM     27  C   UNL     1      47.940   2.871  16.437  0.00  0.00    +0.000 C 
ATOM     28  C   UNL     1      48.543   5.215  16.624  0.00  0.00    +0.000 A 
ATOM     29  O   UNL     1      48.164   5.421  15.474  0.00  0.00    +0.000 OA
ATOM     30  C   UNL     1      49.083   6.266  17.470  0.00  0.00    +0.000 A 
ENDBRANCH  17  20
ENDBRANCH   2  16
TORSDOF 5
ENDMDL
MODEL 6
REMARK VINA RESULT:    -7.024      3.549      7.089
REMARK INTER + INTRA:          -9.844
REMARK INTER:                  -8.790
REMARK INTRA:                  -1.054
REMARK UNBOUND:                -0.767
REMARK  Name = 
REMARK  7 active torsions:
REMARK  status: ('A' for Active; 'I' for Inactive)
REMARK    1  A    between atoms: C_1  and  C_2
REMARK    2  A    between atoms: C_2  and  N_3
REMARK    3  A    between atoms: C_2  and  C_17
REMARK    4  A    between atoms: C_4  and  C_6
REMARK    5  A    between atoms: N_12  and  C_13
REMARK    6  A    between atoms: C_20  and  O_21
REMARK    7  A    between atoms: O_21  and  C_22
REMARK                            x       y       z     vdW  Elec       q    Type
REMARK                         _______ _______ _______ _____ _____    ______ ____
ROOT
ATOM      1  C   UNL     1      46.061   8.904  13.383  0.00  0.00    +0.000 C 
ATOM      2  C   UNL     1      46.554   8.412  12.019  0.00  0.00    +0.000 C 
ENDROOT
BRANCH   2   3
ATOM      3  C   UNL     1      48.069   8.475  11.894  0.00  0.00    +0.000 A 
ATOM      4  C   UNL     1      48.807   7.292  12.043  0.00  0.00    +0.000 A 
ATOM      5  C   UNL     1      50.176   7.272  11.777  0.00  0.00    +0.000 A 
ATOM      6  C   UNL     1      50.828   8.428  11.343  0.00  0.00    +0.000 A 
ATOM      7  C   UNL     1      50.135   9.636  11.316  0.00  0.00    +0.000 A 
ATOM      8  C   UNL     1      48.767   9.660  11.603  0.00  0.00    +0.000 A 
BRANCH   6   9
ATOM      9  O   UNL     1      52.153   8.454  10.970  0.00  0.00    +0.000 OA
BRANCH   9  10
ATOM     10  C   UNL     1      52.443   8.268   9.624  0.00  0.00    +0.000 A 
ATOM     11  C   UNL     1      52.805   9.381   8.880  0.00  0.00    +0.000 A 
ATOM     12  N   UNL     1      53.173   9.299   7.576  0.00  0.00    +0.000 NA
ATOM     13  C   UNL     1      53.155   8.052   7.050  0.00  0.00    +0.000 A 
ATOM     14  C   UNL     1      52.766   6.944   7.782  0.00  0.00    +0.000 A 
ATOM     15  N   UNL     1      52.384   7.030   9.074  0.00  0.00    +0.000 NA
ENDBRANCH   9  10
ENDBRANCH   6   9
ENDBRANCH   2   3
BRANCH   2  16
ATOM     16  N   UNL     1      46.094   7.065  11.748  0.00  0.00    +0.000 N 
ATOM     17  C   UNL     1      44.803   6.762  11.398  0.00  0.00    +0.000 C 
ATOM     18  O   UNL     1      43.962   7.620  11.145  0.00  0.00    +0.000 OA
ATOM     19  H   UNL     1      46.681   6.330  12.124  0.00  0.00    +0.000 HD
BRANCH  17  20
ATOM     20  C   UNL     1      44.507   5.327  11.274  0.00  0.00    +0.000 A 
ATOM     21  C   UNL     1      43.784   4.669  12.259  0.00  0.00    +0.000 A 
ATOM     22  S   UNL     1      43.482   3.029  11.892  0.00  0.00    +0.000 S 
ATOM     23  C   UNL     1      44.352   3.136  10.432  0.00  0.00    +0.000 A 
ATOM     24  N   UNL     1      44.486   2.063   9.606  0.00  0.00    +0.000 NA
ATOM     25  C   UNL     1      45.193   2.277   8.552  0.00  0.00    +0.000 A 
ATOM     26  N   UNL     1      45.802   3.471   8.230  0.00  0.00    +0.000 N 
ATOM     27  C   UNL     1      46.595   3.594   7.025  0.00  0.00    +0.000 C 
ATOM     28  C   UNL     1      45.675   4.593   9.036  0.00  0.00    +0.000 A 
ATOM     29  O   UNL     1      46.186   5.674   8.753  0.00  0.00    +0.000 OA
ATOM     30  C   UNL     1      44.869   4.398  10.230  0.00  0.00    +0.000 A 
ENDBRANCH  17  20
ENDBRANCH   2  16
TORSDOF 5
ENDMDL
MODEL 7
REMARK VINA RESULT:    -6.949      4.360      6.194
REMARK INTER + INTRA:          -9.747
REMARK INTER:                  -8.760
REMARK INTRA:                  -0.987
REMARK UNBOUND:                -0.767
REMARK  Name = 
REMARK  7 active torsions:
REMARK  status: ('A' for Active; 'I' for Inactive)
REMARK    1  A    between atoms: C_1  and  C_2
REMARK    2  A    between atoms: C_2  and  N_3
REMARK    3  A    between atoms: C_2  and  C_17
REMARK    4  A    between atoms: C_4  and  C_6
REMARK    5  A    between atoms: N_12  and  C_13
REMARK    6  A    between atoms: C_20  and  O_21
REMARK    7  A    between atoms: O_21  and  C_22
REMARK                            x       y       z     vdW  Elec       q    Type
REMARK                         _______ _______ _______ _____ _____    ______ ____
ROOT
ATOM      1  C   UNL     1      44.298   4.542  13.262  0.00  0.00    +0.000 C 
ATOM      2  C   UNL     1      45.666   5.216  13.126  0.00  0.00    +0.000 C 
ENDROOT
BRANCH   2   3
ATOM      3  C   UNL     1      45.560   6.638  12.596  0.00  0.00    +0.000 A 
ATOM      4  C   UNL     1      44.604   6.920  11.610  0.00  0.00    +0.000 A 
ATOM      5  C   UNL     1      44.360   8.234  11.213  0.00  0.00    +0.000 A 
ATOM      6  C   UNL     1      45.056   9.292  11.804  0.00  0.00    +0.000 A 
ATOM      7  C   UNL     1      46.096   9.016  12.689  0.00  0.00    +0.000 A 
ATOM      8  C   UNL     1      46.355   7.697  13.071  0.00  0.00    +0.000 A 
BRANCH   6   9
ATOM      9  O   UNL     1      44.796  10.615  11.529  0.00  0.00    +0.000 OA
BRANCH   9  10
ATOM     10  C   UNL     1      43.505  10.945  11.136  0.00  0.00    +0.000 A 
ATOM     11  C   UNL     1      43.247  11.041   9.778  0.00  0.00    +0.000 A 
ATOM     12  N   UNL     1      42.006  11.290   9.286  0.00  0.00    +0.000 NA
ATOM     13  C   UNL     1      41.038  11.445  10.219  0.00  0.00    +0.000 A 
ATOM     14  C   UNL     1      41.298  11.378  11.577  0.00  0.00    +0.000 A 
ATOM     15  N   UNL     1      42.536  11.147  12.063  0.00  0.00    +0.000 NA
ENDBRANCH   9  10
ENDBRANCH   6   9
ENDBRANCH   2   3
BRANCH   2  16
ATOM     16  N   UNL     1      46.380   5.214  14.386  0.00  0.00    +0.000 N 
ATOM     17  C   UNL     1      47.128   4.153  14.831  0.00  0.00    +0.000 C 
ATOM     18  O   UNL     1      47.373   3.173  14.134  0.00  0.00    +0.000 OA
ATOM     19  H   UNL     1      46.058   5.897  15.061  0.00  0.00    +0.000 HD
BRANCH  17  20
ATOM     20  C   UNL     1      47.684   4.301  16.184  0.00  0.00    +0.000 A 
ATOM     21  C   UNL     1      47.270   3.463  17.210  0.00  0.00    +0.000 A 
ATOM     22  S   UNL     1      48.088   3.746  18.682  0.00  0.00    +0.000 S 
ATOM     23  C   UNL     1      48.982   5.029  18.006  0.00  0.00    +0.000 A 
ATOM     24  N   UNL     1      49.893   5.723  18.740  0.00  0.00    +0.000 NA
ATOM     25  C   UNL     1      50.474   6.685  18.111  0.00  0.00    +0.000 A 
ATOM     26  N   UNL     1      50.233   7.041  16.802  0.00  0.00    +0.000 N 
ATOM     27  C   UNL     1      50.931   8.158  16.200  0.00  0.00    +0.000 C 
ATOM     28  C   UNL     1      49.325   6.347  16.014  0.00  0.00    +0.000 A 
ATOM     29  O   UNL     1      49.117   6.631  14.837  0.00  0.00    +0.000 OA
ATOM     30  C   UNL     1      48.658   5.241  16.682  0.00  0.00    +0.000 A 
ENDBRANCH  17  20
ENDBRANCH   2  16
TORSDOF 5
ENDMDL
MODEL 8
REMARK VINA RESULT:    -6.548      3.072      8.243
REMARK INTER + INTRA:          -9.229
REMARK INTER:                  -8.191
REMARK INTRA:                  -1.038
REMARK UNBOUND:                -0.767
REMARK  Name = 
REMARK  7 active torsions:
REMARK  status: ('A' for Active; 'I' for Inactive)
REMARK    1  A    between atoms: C_1  and  C_2
REMARK    2  A    between atoms: C_2  and  N_3
REMARK    3  A    between atoms: C_2  and  C_17
REMARK    4  A    between atoms: C_4  and  C_6
REMARK    5  A    between atoms: N_12  and  C_13
REMARK    6  A    between atoms: C_20  and  O_21
REMARK    7  A    between atoms: O_21  and  C_22
REMARK                            x       y       z     vdW  Elec       q    Type
REMARK                         _______ _______ _______ _____ _____    ______ ____
ROOT
ATOM      1  C   UNL     1      45.936   8.755  13.380  0.00  0.00    +0.000 C 
ATOM      2  C   UNL     1      46.364   8.330  11.973  0.00  0.00    +0.000 C 
ENDROOT
BRANCH   2   3
ATOM      3  C   UNL     1      47.864   8.463  11.759  0.00  0.00    +0.000 A 
ATOM      4  C   UNL     1      48.426   9.746  11.705  0.00  0.00    +0.000 A 
ATOM      5  C   UNL     1      49.810   9.914  11.675  0.00  0.00    +0.000 A 
ATOM      6  C   UNL     1      50.658   8.804  11.714  0.00  0.00    +0.000 A 
ATOM      7  C   UNL     1      50.113   7.524  11.637  0.00  0.00    +0.000 A 
ATOM      8  C   UNL     1      48.725   7.356  11.647  0.00  0.00    +0.000 A 
BRANCH   6   9
ATOM      9  O   UNL     1      52.029   8.902  11.786  0.00  0.00    +0.000 OA
BRANCH   9  10
ATOM     10  C   UNL     1      52.575   9.373  12.973  0.00  0.00    +0.000 A 
ATOM     11  C   UNL     1      52.686   8.485  14.032  0.00  0.00    +0.000 A 
ATOM     12  N   UNL     1      53.267   8.824  15.211  0.00  0.00    +0.000 NA
ATOM     13  C   UNL     1      53.726  10.095  15.282  0.00  0.00    +0.000 A 
ATOM     14  C   UNL     1      53.591  10.992  14.237  0.00  0.00    +0.000 A 
ATOM     15  N   UNL     1      52.998  10.658  13.072  0.00  0.00    +0.000 NA
ENDBRANCH   9  10
ENDBRANCH   6   9
ENDBRANCH   2   3
BRANCH   2  16
ATOM     16  N   UNL     1      45.944   6.975  11.682  0.00  0.00    +0.000 N 
ATOM     17  C   UNL     1      44.648   6.629  11.393  0.00  0.00    +0.000 C 
ATOM     18  O   UNL     1      43.761   7.459  11.216  0.00  0.00    +0.000 OA
ATOM     19  H   UNL     1      46.580   6.253  12.001  0.00  0.00    +0.000 HD
BRANCH  17  20
ATOM     20  C   UNL     1      44.404   5.187  11.237  0.00  0.00    +0.000 A 
ATOM     21  C   UNL     1      43.684   4.488  12.195  0.00  0.00    +0.000 A 
ATOM     22  S   UNL     1      43.445   2.846  11.793  0.00  0.00    +0.000 S 
ATOM     23  C   UNL     1      44.339   3.009  10.352  0.00  0.00    +0.000 A 
ATOM     24  N   UNL     1      44.525   1.957   9.510  0.00  0.00    +0.000 NA
ATOM     25  C   UNL     1      45.245   2.215   8.474  0.00  0.00    +0.000 A 
ATOM     26  N   UNL     1      45.819   3.434   8.186  0.00  0.00    +0.000 N 
ATOM     27  C   UNL     1      46.631   3.607   7.000  0.00  0.00    +0.000 C 
ATOM     28  C   UNL     1      45.639   4.536   9.010  0.00  0.00    +0.000 A 
ATOM     29  O   UNL     1      46.118   5.639   8.757  0.00  0.00    +0.000 OA
ATOM     30  C   UNL     1      44.817   4.292  10.184  0.00  0.00    +0.000 A 
ENDBRANCH  17  20
ENDBRANCH   2  16
TORSDOF 5
ENDMDL
MODEL 9
REMARK VINA RESULT:    -6.447      3.376      5.910
REMARK INTER + INTRA:          -9.098
REMARK INTER:                  -8.287
REMARK INTRA:                  -0.811
REMARK UNBOUND:                -0.767
REMARK  Name = 
REMARK  7 active torsions:
REMARK  status: ('A' for Active; 'I' for Inactive)
REMARK    1  A    between atoms: C_1  and  C_2
REMARK    2  A    between atoms: C_2  and  N_3
REMARK    3  A    between atoms: C_2  and  C_17
REMARK    4  A    between atoms: C_4  and  C_6
REMARK    5  A    between atoms: N_12  and  C_13
REMARK    6  A    between atoms: C_20  and  O_21
REMARK    7  A    between atoms: O_21  and  C_22
REMARK                            x       y       z     vdW  Elec       q    Type
REMARK                         _______ _______ _______ _____ _____    ______ ____
ROOT
ATOM      1  C   UNL     1      50.585   7.903  11.352  0.00  0.00    +0.000 C 
ATOM      2  C   UNL     1      49.865   8.141  12.683  0.00  0.00    +0.000 C 
ENDROOT
BRANCH   2   3
ATOM      3  C   UNL     1      48.391   7.771  12.618  0.00  0.00    +0.000 A 
ATOM      4  C   UNL     1      47.449   8.789  12.416  0.00  0.00    +0.000 A 
ATOM      5  C   UNL     1      46.109   8.480  12.188  0.00  0.00    +0.000 A 
ATOM      6  C   UNL     1      45.688   7.148  12.142  0.00  0.00    +0.000 A 
ATOM      7  C   UNL     1      46.587   6.136  12.470  0.00  0.00    +0.000 A 
ATOM      8  C   UNL     1      47.927   6.447  12.719  0.00  0.00    +0.000 A 
BRANCH   6   9
ATOM      9  O   UNL     1      44.403   6.772  11.826  0.00  0.00    +0.000 OA
BRANCH   9  10
ATOM     10  C   UNL     1      44.125   5.411  11.789  0.00  0.00    +0.000 A 
ATOM     11  C   UNL     1      43.807   4.783  12.983  0.00  0.00    +0.000 A 
ATOM     12  N   UNL     1      43.453   3.473  13.047  0.00  0.00    +0.000 NA
ATOM     13  C   UNL     1      43.440   2.822  11.861  0.00  0.00    +0.000 A 
ATOM     14  C   UNL     1      43.787   3.439  10.672  0.00  0.00    +0.000 A 
ATOM     15  N   UNL     1      44.154   4.737  10.612  0.00  0.00    +0.000 NA
ENDBRANCH   9  10
ENDBRANCH   6   9
ENDBRANCH   2   3
BRANCH   2  16
ATOM     16  N   UNL     1      50.507   7.421  13.763  0.00  0.00    +0.000 N 
ATOM     17  C   UNL     1      50.815   7.987  14.974  0.00  0.00    +0.000 C 
ATOM     18  O   UNL     1      50.444   9.112  15.296  0.00  0.00    +0.000 OA
ATOM     19  H   UNL     1      50.994   6.577  13.484  0.00  0.00    +0.000 HD
BRANCH  17  20
ATOM     20  C   UNL     1      51.564   7.124  15.898  0.00  0.00    +0.000 A 
ATOM     21  C   UNL     1      52.923   7.320  16.100  0.00  0.00    +0.000 A 
ATOM     22  S   UNL     1      53.591   6.266  17.265  0.00  0.00    +0.000 S 
ATOM     23  C   UNL     1      52.096   5.482  17.497  0.00  0.00    +0.000 A 
ATOM     24  N   UNL     1      51.962   4.459  18.384  0.00  0.00    +0.000 NA
ATOM     25  C   UNL     1      50.784   3.940  18.436  0.00  0.00    +0.000 A 
ATOM     26  N   UNL     1      49.705   4.336  17.675  0.00  0.00    +0.000 N 
ATOM     27  C   UNL     1      48.428   3.665  17.800  0.00  0.00    +0.000 C 
ATOM     28  C   UNL     1      49.797   5.386  16.773  0.00  0.00    +0.000 A 
ATOM     29  O   UNL     1      48.839   5.772  16.106  0.00  0.00    +0.000 OA
ATOM     30  C   UNL     1      51.107   6.012  16.696  0.00  0.00    +0.000 A 
ENDBRANCH  17  20
ENDBRANCH   2  16
TORSDOF 5
ENDMDL
