MODEL 1
REMARK VINA RESULT:    -8.094      0.000      0.000
REMARK INTER + INTRA:         -11.770
REMARK INTER:                 -10.933
REMARK INTRA:                  -0.837
REMARK UNBOUND:                -0.837
REMARK  Name = 
REMARK  8 active torsions:
REMARK  status: ('A' for Active; 'I' for Inactive)
REMARK    1  A    between atoms: C_1  and  C_2
REMARK    2  A    between atoms: C_2  and  C_3
REMARK    3  A    between atoms: C_2  and  N_5
REMARK    4  A    between atoms: C_13  and  C_14
REMARK    5  A    between atoms: C_14  and  C_15
REMARK    6  A    between atoms: C_14  and  C_16
REMARK    7  A    between atoms: C_16  and  N_17
REMARK    8  A    between atoms: C_21  and  C_22
REMARK                            x       y       z     vdW  Elec       q    Type
REMARK                         _______ _______ _______ _____ _____    ______ ____
ROOT
ATOM      1  N   UNL     1      49.509   9.848  12.823  0.00  0.00    +0.000 NA
ATOM      2  C   UNL     1      49.964   8.617  13.532  0.00  0.00    +0.000 C 
ATOM      3  C   UNL     1      49.388   7.285  12.991  0.00  0.00    +0.000 C 
ATOM      4  N   UNL     1      47.937   7.378  12.882  0.00  0.00    +0.000 N 
ATOM      5  C   UNL     1      47.185   6.228  12.901  0.00  0.00    +0.000 A 
ATOM      6  N   UNL     1      47.699   5.100  13.405  0.00  0.00    +0.000 NA
ATOM      7  C   UNL     1      46.861   4.059  13.569  0.00  0.00    +0.000 A 
ATOM      8  C   UNL     1      45.529   4.087  13.231  0.00  0.00    +0.000 A 
ATOM      9  C   UNL     1      45.088   5.258  12.661  0.00  0.00    +0.000 A 
ATOM     10  N   UNL     1      45.911   6.310  12.493  0.00  0.00    +0.000 NA
ATOM     11  C   UNL     1      47.335   8.588  12.329  0.00  0.00    +0.000 C 
ATOM     12  C   UNL     1      48.027   9.847  12.895  0.00  0.00    +0.000 C 
ENDROOT
BRANCH   1  14
ATOM     13  C   UNL     1      49.628  11.234  10.736  0.00  0.00    +0.000 C 
ATOM     14  C   UNL     1      50.027   9.920  11.428  0.00  0.00    +0.000 C 
BRANCH  14  15
ATOM     15  C   UNL     1      51.516   9.830  11.362  0.00  0.00    +0.000 C 
ATOM     16  N   UNL     1      52.669   9.733  11.311  0.00  0.00    +0.000 NA
ENDBRANCH  14  15
ENDBRANCH   1  14
BRANCH   9  17
ATOM     17  C   UNL     1      43.686   5.401  12.100  0.00  0.00    +0.000 C 
ATOM     18  C   UNL     1      42.689   5.198  13.244  0.00  0.00    +0.000 C 
BRANCH  17  19
ATOM     19  C   UNL     1      43.443   4.377  10.969  0.00  0.00    +0.000 C 
BRANCH  19  20
ATOM     20  N   UNL     1      43.858   4.907   9.672  0.00  0.00    +0.000 N 
ATOM     21  C   UNL     1      44.692   4.052   8.964  0.00  0.00    +0.000 A 
ATOM     22  N   UNL     1      44.592   2.723   9.115  0.00  0.00    +0.000 NA
ATOM     23  C   UNL     1      45.482   1.954   8.459  0.00  0.00    +0.000 A 
ATOM     24  C   UNL     1      46.468   2.460   7.653  0.00  0.00    +0.000 A 
ATOM     25  C   UNL     1      46.468   3.828   7.531  0.00  0.00    +0.000 A 
ATOM     26  N   UNL     1      45.604   4.638   8.179  0.00  0.00    +0.000 NA
ATOM     27  H   UNL     1      44.325   5.807   9.685  0.00  0.00    +0.000 HD
BRANCH  24  28
ATOM     28  C   UNL     1      47.463   1.602   6.968  0.00  0.00    +0.000 C 
ATOM     29  F   UNL     1      47.108   1.275   5.694  0.00  0.00    +0.000 F 
ATOM     30  F   UNL     1      48.693   2.178   6.881  0.00  0.00    +0.000 F 
ATOM     31  F   UNL     1      47.649   0.418   7.613  0.00  0.00    +0.000 F 
ENDBRANCH  24  28
ENDBRANCH  19  20
ENDBRANCH  17  19
ENDBRANCH   9  17
TORSDOF 6
ENDMDL
MODEL 2
REMARK VINA RESULT:    -7.557      1.865      2.239
REMARK INTER + INTRA:         -11.045
REMARK INTER:                 -10.271
REMARK INTRA:                  -0.775
REMARK UNBOUND:                -0.837
REMARK  Name = 
REMARK  8 active torsions:
REMARK  status: ('A' for Active; 'I' for Inactive)
REMARK    1  A    between atoms: C_1  and  C_2
REMARK    2  A    between atoms: C_2  and  C_3
REMARK    3  A    between atoms: C_2  and  N_5
REMARK    4  A    between atoms: C_13  and  C_14
REMARK    5  A    between atoms: C_14  and  C_15
REMARK    6  A    between atoms: C_14  and  C_16
REMARK    7  A    between atoms: C_16  and  N_17
REMARK    8  A    between atoms: C_21  and  C_22
REMARK                            x       y       z     vdW  Elec       q    Type
REMARK                         _______ _______ _______ _____ _____    ______ ____
ROOT
ATOM      1  N   UNL     1      50.148   9.485  15.726  0.00  0.00    +0.000 NA
ATOM      2  C   UNL     1      49.967   8.166  16.401  0.00  0.00    +0.000 C 
ATOM      3  C   UNL     1      49.621   6.982  15.465  0.00  0.00    +0.000 C 
ATOM      4  N   UNL     1      48.501   7.340  14.603  0.00  0.00    +0.000 N 
ATOM      5  C   UNL     1      47.723   6.345  14.061  0.00  0.00    +0.000 A 
ATOM      6  N   UNL     1      47.718   5.125  14.611  0.00  0.00    +0.000 NA
ATOM      7  C   UNL     1      46.803   4.248  14.158  0.00  0.00    +0.000 A 
ATOM      8  C   UNL     1      45.900   4.528  13.160  0.00  0.00    +0.000 A 
ATOM      9  C   UNL     1      46.007   5.780  12.601  0.00  0.00    +0.000 A 
ATOM     10  N   UNL     1      46.913   6.672  13.045  0.00  0.00    +0.000 NA
ATOM     11  C   UNL     1      48.472   8.658  13.976  0.00  0.00    +0.000 C 
ATOM     12  C   UNL     1      48.890   9.750  14.985  0.00  0.00    +0.000 C 
ENDROOT
BRANCH   1  14
ATOM     13  C   UNL     1      51.520  10.868  14.145  0.00  0.00    +0.000 C 
ATOM     14  C   UNL     1      51.357   9.514  14.857  0.00  0.00    +0.000 C 
BRANCH  14  15
ATOM     15  C   UNL     1      52.618   9.269  15.617  0.00  0.00    +0.000 C 
ATOM     16  N   UNL     1      53.594   9.053  16.204  0.00  0.00    +0.000 NA
ENDBRANCH  14  15
ENDBRANCH   1  14
BRANCH   9  17
ATOM     17  C   UNL     1      45.185   6.195  11.396  0.00  0.00    +0.000 C 
ATOM     18  C   UNL     1      44.581   7.573  11.678  0.00  0.00    +0.000 C 
BRANCH  17  19
ATOM     19  C   UNL     1      44.078   5.157  11.105  0.00  0.00    +0.000 C 
BRANCH  19  20
ATOM     20  N   UNL     1      43.835   5.025   9.671  0.00  0.00    +0.000 N 
ATOM     21  C   UNL     1      44.569   4.008   9.075  0.00  0.00    +0.000 A 
ATOM     22  N   UNL     1      44.913   2.916   9.773  0.00  0.00    +0.000 NA
ATOM     23  C   UNL     1      45.690   2.003   9.159  0.00  0.00    +0.000 A 
ATOM     24  C   UNL     1      46.137   2.137   7.871  0.00  0.00    +0.000 A 
ATOM     25  C   UNL     1      45.704   3.269   7.224  0.00  0.00    +0.000 A 
ATOM     26  N   UNL     1      44.934   4.215   7.804  0.00  0.00    +0.000 NA
ATOM     27  H   UNL     1      43.999   5.854   9.110  0.00  0.00    +0.000 HD
BRANCH  24  28
ATOM     28  C   UNL     1      47.023   1.142   7.222  0.00  0.00    +0.000 C 
ATOM     29  F   UNL     1      46.966  -0.090   7.800  0.00  0.00    +0.000 F 
ATOM     30  F   UNL     1      46.738   0.955   5.904  0.00  0.00    +0.000 F 
ATOM     31  F   UNL     1      48.331   1.512   7.273  0.00  0.00    +0.000 F 
ENDBRANCH  24  28
ENDBRANCH  19  20
ENDBRANCH  17  19
ENDBRANCH   9  17
TORSDOF 6
ENDMDL
MODEL 3
REMARK VINA RESULT:    -7.416      2.768      3.421
REMARK INTER + INTRA:         -10.854
REMARK INTER:                 -10.100
REMARK INTRA:                  -0.754
REMARK UNBOUND:                -0.837
REMARK  Name = 
REMARK  8 active torsions:
REMARK  status: ('A' for Active; 'I' for Inactive)
REMARK    1  A    between atoms: C_1  and  C_2
REMARK    2  A    between atoms: C_2  and  C_3
REMARK    3  A    between atoms: C_2  and  N_5
REMARK    4  A    between atoms: C_13  and  C_14
REMARK    5  A    between atoms: C_14  and  C_15
REMARK    6  A    between atoms: C_14  and  C_16
REMARK    7  A    between atoms: C_16  and  N_17
REMARK    8  A    between atoms: C_21  and  C_22
REMARK                            x       y       z     vdW  Elec       q    Type
REMARK                         _______ _______ _______ _____ _____    ______ ____
ROOT
ATOM      1  N   UNL     1      49.897   8.338  17.716  0.00  0.00    +0.000 NA
ATOM      2  C   UNL     1      49.613   6.909  18.041  0.00  0.00    +0.000 C 
ATOM      3  C   UNL     1      49.487   5.962  16.823  0.00  0.00    +0.000 C 
ATOM      4  N   UNL     1      48.555   6.522  15.851  0.00  0.00    +0.000 N 
ATOM      5  C   UNL     1      47.923   5.685  14.964  0.00  0.00    +0.000 A 
ATOM      6  N   UNL     1      47.834   4.376  15.226  0.00  0.00    +0.000 NA
ATOM      7  C   UNL     1      47.047   3.637  14.421  0.00  0.00    +0.000 A 
ATOM      8  C   UNL     1      46.356   4.146  13.347  0.00  0.00    +0.000 A 
ATOM      9  C   UNL     1      46.546   5.486  13.103  0.00  0.00    +0.000 A 
ATOM     10  N   UNL     1      47.326   6.240  13.901  0.00  0.00    +0.000 NA
ATOM     11  C   UNL     1      48.624   7.945  15.530  0.00  0.00    +0.000 C 
ATOM     12  C   UNL     1      48.809   8.784  16.812  0.00  0.00    +0.000 C 
ENDROOT
BRANCH   1  14
ATOM     13  C   UNL     1      51.571  10.009  16.881  0.00  0.00    +0.000 C 
ATOM     14  C   UNL     1      51.256   8.525  17.133  0.00  0.00    +0.000 C 
BRANCH  14  15
ATOM     15  C   UNL     1      52.338   7.995  18.014  0.00  0.00    +0.000 C 
ATOM     16  N   UNL     1      53.172   7.559  18.690  0.00  0.00    +0.000 NA
ENDBRANCH  14  15
ENDBRANCH   1  14
BRANCH   9  17
ATOM     17  C   UNL     1      45.974   6.169  11.876  0.00  0.00    +0.000 C 
ATOM     18  C   UNL     1      45.600   7.604  12.255  0.00  0.00    +0.000 C 
BRANCH  17  19
ATOM     19  C   UNL     1      44.743   5.400  11.347  0.00  0.00    +0.000 C 
BRANCH  19  20
ATOM     20  N   UNL     1      44.644   5.490   9.892  0.00  0.00    +0.000 N 
ATOM     21  C   UNL     1      45.155   4.380   9.231  0.00  0.00    +0.000 A 
ATOM     22  N   UNL     1      45.120   3.169   9.806  0.00  0.00    +0.000 NA
ATOM     23  C   UNL     1      45.701   2.149   9.146  0.00  0.00    +0.000 A 
ATOM     24  C   UNL     1      46.314   2.290   7.930  0.00  0.00    +0.000 A 
ATOM     25  C   UNL     1      46.268   3.558   7.403  0.00  0.00    +0.000 A 
ATOM     26  N   UNL     1      45.707   4.611   8.035  0.00  0.00    +0.000 NA
ATOM     27  H   UNL     1      45.082   6.297   9.462  0.00  0.00    +0.000 HD
BRANCH  24  28
ATOM     28  C   UNL     1      46.983   1.166   7.232  0.00  0.00    +0.000 C 
ATOM     29  F   UNL     1      46.729  -0.047   7.798  0.00  0.00    +0.000 F 
ATOM     30  F   UNL     1      46.619   1.058   5.926  0.00  0.00    +0.000 F 
ATOM     31  F   UNL     1      48.337   1.296   7.235  0.00  0.00    +0.000 F 
ENDBRANCH  24  28
ENDBRANCH  19  20
ENDBRANCH  17  19
ENDBRANCH   9  17
TORSDOF 6
ENDMDL
MODEL 4
REMARK VINA RESULT:    -6.944      1.863      3.084
REMARK INTER + INTRA:         -10.217
REMARK INTER:                 -10.457
REMARK INTRA:                   0.240
REMARK UNBOUND:                -0.837
REMARK  Name = 
REMARK  8 active torsions:
REMARK  status: ('A' for Active; 'I' for Inactive)
REMARK    1  A    between atoms: C_1  and  C_2
REMARK    2  A    between atoms: C_2  and  C_3
REMARK    3  A    between atoms: C_2  and  N_5
REMARK    4  A    between atoms: C_13  and  C_14
REMARK    5  A    between atoms: C_14  and  C_15
REMARK    6  A    between atoms: C_14  and  C_16
REMARK    7  A    between atoms: C_16  and  N_17
REMARK    8  A    between atoms: C_21  and  C_22
REMARK                            x       y       z     vdW  Elec       q    Type
REMARK                         _______ _______ _______ _____ _____    ______ ____
ROOT
ATOM      1  N   UNL     1      50.115   8.362  15.101  0.00  0.00    +0.000 NA
ATOM      2  C   UNL     1      49.522   9.353  14.155  0.00  0.00    +0.000 C 
ATOM      3  C   UNL     1      47.987   9.263  13.972  0.00  0.00    +0.000 C 
ATOM      4  N   UNL     1      47.600   7.889  13.676  0.00  0.00    +0.000 N 
ATOM      5  C   UNL     1      46.420   7.648  13.015  0.00  0.00    +0.000 A 
ATOM      6  N   UNL     1      45.841   8.622  12.304  0.00  0.00    +0.000 NA
ATOM      7  C   UNL     1      44.793   8.282  11.529  0.00  0.00    +0.000 A 
ATOM      8  C   UNL     1      44.283   7.009  11.447  0.00  0.00    +0.000 A 
ATOM      9  C   UNL     1      44.890   6.074  12.252  0.00  0.00    +0.000 A 
ATOM     10  N   UNL     1      45.942   6.397  13.030  0.00  0.00    +0.000 NA
ATOM     11  C   UNL     1      48.203   6.795  14.434  0.00  0.00    +0.000 C 
ATOM     12  C   UNL     1      49.721   7.022  14.603  0.00  0.00    +0.000 C 
ENDROOT
BRANCH   1  14
ATOM     13  C   UNL     1      50.305   7.578  17.476  0.00  0.00    +0.000 C 
ATOM     14  C   UNL     1      49.697   8.609  16.510  0.00  0.00    +0.000 C 
BRANCH  14  15
ATOM     15  C   UNL     1      50.103   9.958  17.004  0.00  0.00    +0.000 C 
ATOM     16  N   UNL     1      50.440  10.994  17.398  0.00  0.00    +0.000 NA
ENDBRANCH  14  15
ENDBRANCH   1  14
BRANCH   9  17
ATOM     17  C   UNL     1      44.357   4.662  12.388  0.00  0.00    +0.000 C 
ATOM     18  C   UNL     1      45.549   3.705  12.472  0.00  0.00    +0.000 C 
BRANCH  17  19
ATOM     19  C   UNL     1      43.446   4.304  11.193  0.00  0.00    +0.000 C 
BRANCH  19  20
ATOM     20  N   UNL     1      43.907   4.942   9.962  0.00  0.00    +0.000 N 
ATOM     21  C   UNL     1      44.654   4.101   9.147  0.00  0.00    +0.000 A 
ATOM     22  N   UNL     1      44.427   2.779   9.142  0.00  0.00    +0.000 NA
ATOM     23  C   UNL     1      45.237   2.012   8.388  0.00  0.00    +0.000 A 
ATOM     24  C   UNL     1      46.265   2.514   7.634  0.00  0.00    +0.000 A 
ATOM     25  C   UNL     1      46.397   3.881   7.674  0.00  0.00    +0.000 A 
ATOM     26  N   UNL     1      45.616   4.687   8.424  0.00  0.00    +0.000 NA
ATOM     27  H   UNL     1      44.459   5.785  10.074  0.00  0.00    +0.000 HD
BRANCH  24  28
ATOM     28  C   UNL     1      47.172   1.652   6.839  0.00  0.00    +0.000 C 
ATOM     29  F   UNL     1      46.851   0.330   6.900  0.00  0.00    +0.000 F 
ATOM     30  F   UNL     1      47.192   1.976   5.517  0.00  0.00    +0.000 F 
ATOM     31  F   UNL     1      48.462   1.737   7.264  0.00  0.00    +0.000 F 
ENDBRANCH  24  28
ENDBRANCH  19  20
ENDBRANCH  17  19
ENDBRANCH   9  17
TORSDOF 6
ENDMDL
MODEL 5
REMARK VINA RESULT:    -6.507      4.744      8.554
REMARK INTER + INTRA:          -9.626
REMARK INTER:                  -8.854
REMARK INTRA:                  -0.772
REMARK UNBOUND:                -0.837
REMARK  Name = 
REMARK  8 active torsions:
REMARK  status: ('A' for Active; 'I' for Inactive)
REMARK    1  A    between atoms: C_1  and  C_2
REMARK    2  A    between atoms: C_2  and  C_3
REMARK    3  A    between atoms: C_2  and  N_5
REMARK    4  A    between atoms: C_13  and  C_14
REMARK    5  A    between atoms: C_14  and  C_15
REMARK    6  A    between atoms: C_14  and  C_16
REMARK    7  A    between atoms: C_16  and  N_17
REMARK    8  A    between atoms: C_21  and  C_22
REMARK                            x       y       z     vdW  Elec       q    Type
REMARK                         _______ _______ _______ _____ _____    ______ ____
ROOT
ATOM      1  N   UNL     1      43.827   4.738  11.430  0.00  0.00    +0.000 NA
ATOM      2  C   UNL     1      44.551   5.647  10.494  0.00  0.00    +0.000 C 
ATOM      3  C   UNL     1      46.040   5.905  10.834  0.00  0.00    +0.000 C 
ATOM      4  N   UNL     1      46.170   6.303  12.231  0.00  0.00    +0.000 N 
ATOM      5  C   UNL     1      47.267   7.031  12.625  0.00  0.00    +0.000 A 
ATOM      6  N   UNL     1      47.983   7.705  11.719  0.00  0.00    +0.000 NA
ATOM      7  C   UNL     1      48.928   8.546  12.180  0.00  0.00    +0.000 A 
ATOM      8  C   UNL     1      49.205   8.731  13.514  0.00  0.00    +0.000 A 
ATOM      9  C   UNL     1      48.471   7.958  14.383  0.00  0.00    +0.000 A 
ATOM     10  N   UNL     1      47.519   7.115  13.939  0.00  0.00    +0.000 NA
ATOM     11  C   UNL     1      45.412   5.587  13.254  0.00  0.00    +0.000 C 
ATOM     12  C   UNL     1      43.963   5.336  12.781  0.00  0.00    +0.000 C 
ENDROOT
BRANCH   1  14
ATOM     13  C   UNL     1      43.419   2.361  12.122  0.00  0.00    +0.000 C 
ATOM     14  C   UNL     1      44.330   3.336  11.357  0.00  0.00    +0.000 C 
BRANCH  14  15
ATOM     15  C   UNL     1      44.426   2.832   9.956  0.00  0.00    +0.000 C 
ATOM     16  N   UNL     1      44.510   2.464   8.861  0.00  0.00    +0.000 NA
ENDBRANCH  14  15
ENDBRANCH   1  14
BRANCH   9  17
ATOM     17  C   UNL     1      48.753   7.934  15.872  0.00  0.00    +0.000 C 
ATOM     18  C   UNL     1      49.395   9.269  16.260  0.00  0.00    +0.000 C 
BRANCH  17  19
ATOM     19  C   UNL     1      49.679   6.752  16.235  0.00  0.00    +0.000 C 
BRANCH  19  20
ATOM     20  N   UNL     1      48.910   5.586  16.665  0.00  0.00    +0.000 N 
ATOM     21  C   UNL     1      49.700   4.495  17.005  0.00  0.00    +0.000 A 
ATOM     22  N   UNL     1      50.932   4.675  17.504  0.00  0.00    +0.000 NA
ATOM     23  C   UNL     1      51.674   3.577  17.740  0.00  0.00    +0.000 A 
ATOM     24  C   UNL     1      51.233   2.302  17.500  0.00  0.00    +0.000 A 
ATOM     25  C   UNL     1      49.947   2.216  17.024  0.00  0.00    +0.000 A 
ATOM     26  N   UNL     1      49.172   3.290  16.763  0.00  0.00    +0.000 NA
ATOM     27  H   UNL     1      48.220   5.238  16.009  0.00  0.00    +0.000 HD
BRANCH  24  28
ATOM     28  C   UNL     1      52.076   1.104  17.729  0.00  0.00    +0.000 C 
ATOM     29  F   UNL     1      53.141   1.342  18.545  0.00  0.00    +0.000 F 
ATOM     30  F   UNL     1      51.391   0.071  18.292  0.00  0.00    +0.000 F 
ATOM     31  F   UNL     1      52.601   0.619  16.572  0.00  0.00    +0.000 F 
ENDBRANCH  24  28
ENDBRANCH  19  20
ENDBRANCH  17  19
ENDBRANCH   9  17
TORSDOF 6
ENDMDL
MODEL 6
REMARK VINA RESULT:    -6.319      5.918      9.105
REMARK INTER + INTRA:          -9.373
REMARK INTER:                  -8.798
REMARK INTRA:                  -0.575
REMARK UNBOUND:                -0.837
REMARK  Name = 
REMARK  8 active torsions:
REMARK  status: ('A' for Active; 'I' for Inactive)
REMARK    1  A    between atoms: C_1  and  C_2
REMARK    2  A    between atoms: C_2  and  C_3
REMARK    3  A    between atoms: C_2  and  N_5
REMARK    4  A    between atoms: C_13  and  C_14
REMARK    5  A    between atoms: C_14  and  C_15
REMARK    6  A    between atoms: C_14  and  C_16
REMARK    7  A    between atoms: C_16  and  N_17
REMARK    8  A    between atoms: C_21  and  C_22
REMARK                            x       y       z     vdW  Elec       q    Type
REMARK                         _______ _______ _______ _____ _____    ______ ____
ROOT
ATOM      1  N   UNL     1      44.315   5.354  11.446  0.00  0.00    +0.000 NA
ATOM      2  C   UNL     1      45.300   6.388  11.014  0.00  0.00    +0.000 C 
ATOM      3  C   UNL     1      46.741   6.198  11.546  0.00  0.00    +0.000 C 
ATOM      4  N   UNL     1      46.717   6.000  12.991  0.00  0.00    +0.000 N 
ATOM      5  C   UNL     1      47.839   6.292  13.730  0.00  0.00    +0.000 A 
ATOM      6  N   UNL     1      48.776   7.105  13.230  0.00  0.00    +0.000 NA
ATOM      7  C   UNL     1      49.756   7.502  14.064  0.00  0.00    +0.000 A 
ATOM      8  C   UNL     1      49.853   7.107  15.376  0.00  0.00    +0.000 A 
ATOM      9  C   UNL     1      48.889   6.223  15.801  0.00  0.00    +0.000 A 
ATOM     10  N   UNL     1      47.900   5.818  14.981  0.00  0.00    +0.000 NA
ATOM     11  C   UNL     1      45.715   5.115  13.577  0.00  0.00    +0.000 C 
ATOM     12  C   UNL     1      44.333   5.353  12.930  0.00  0.00    +0.000 C 
ENDROOT
BRANCH   1  14
ATOM     13  C   UNL     1      43.596   2.954  11.321  0.00  0.00    +0.000 C 
ATOM     14  C   UNL     1      44.606   4.017  10.857  0.00  0.00    +0.000 C 
BRANCH  14  15
ATOM     15  C   UNL     1      44.572   4.025   9.365  0.00  0.00    +0.000 C 
ATOM     16  N   UNL     1      44.566   4.016   8.206  0.00  0.00    +0.000 NA
ENDBRANCH  14  15
ENDBRANCH   1  14
BRANCH   9  17
ATOM     17  C   UNL     1      48.937   5.579  17.173  0.00  0.00    +0.000 C 
ATOM     18  C   UNL     1      48.749   6.676  18.224  0.00  0.00    +0.000 C 
BRANCH  17  19
ATOM     19  C   UNL     1      50.275   4.838  17.383  0.00  0.00    +0.000 C 
BRANCH  19  20
ATOM     20  N   UNL     1      50.064   3.409  17.603  0.00  0.00    +0.000 N 
ATOM     21  C   UNL     1      51.243   2.690  17.751  0.00  0.00    +0.000 A 
ATOM     22  N   UNL     1      52.333   3.269  18.276  0.00  0.00    +0.000 NA
ATOM     23  C   UNL     1      53.464   2.540  18.321  0.00  0.00    +0.000 A 
ATOM     24  C   UNL     1      53.551   1.252  17.863  0.00  0.00    +0.000 A 
ATOM     25  C   UNL     1      52.376   0.732  17.377  0.00  0.00    +0.000 A 
ATOM     26  N   UNL     1      51.222   1.429  17.302  0.00  0.00    +0.000 NA
ATOM     27  H   UNL     1      49.527   2.921  16.895  0.00  0.00    +0.000 HD
BRANCH  24  28
ATOM     28  C   UNL     1      54.813   0.476  17.884  0.00  0.00    +0.000 C 
ATOM     29  F   UNL     1      55.763   0.968  17.040  0.00  0.00    +0.000 F 
ATOM     30  F   UNL     1      55.390   0.429  19.116  0.00  0.00    +0.000 F 
ATOM     31  F   UNL     1      54.624  -0.819  17.510  0.00  0.00    +0.000 F 
ENDBRANCH  24  28
ENDBRANCH  19  20
ENDBRANCH  17  19
ENDBRANCH   9  17
TORSDOF 6
ENDMDL
MODEL 7
REMARK VINA RESULT:    -6.308      3.541      5.303
REMARK INTER + INTRA:          -9.358
REMARK INTER:                  -8.590
REMARK INTRA:                  -0.768
REMARK UNBOUND:                -0.837
REMARK  Name = 
REMARK  8 active torsions:
REMARK  status: ('A' for Active; 'I' for Inactive)
REMARK    1  A    between atoms: C_1  and  C_2
REMARK    2  A    between atoms: C_2  and  C_3
REMARK    3  A    between atoms: C_2  and  N_5
REMARK    4  A    between atoms: C_13  and  C_14
REMARK    5  A    between atoms: C_14  and  C_15
REMARK    6  A    between atoms: C_14  and  C_16
REMARK    7  A    between atoms: C_16  and  N_17
REMARK    8  A    between atoms: C_21  and  C_22
REMARK                            x       y       z     vdW  Elec       q    Type
REMARK                         _______ _______ _______ _____ _____    ______ ____
ROOT
ATOM      1  N   UNL     1      49.953   4.832  18.022  0.00  0.00    +0.000 NA
ATOM      2  C   UNL     1      51.041   5.394  17.170  0.00  0.00    +0.000 C 
ATOM      3  C   UNL     1      50.663   6.653  16.351  0.00  0.00    +0.000 C 
ATOM      4  N   UNL     1      49.426   6.416  15.616  0.00  0.00    +0.000 N 
ATOM      5  C   UNL     1      49.160   7.155  14.489  0.00  0.00    +0.000 A 
ATOM      6  N   UNL     1      50.155   7.776  13.845  0.00  0.00    +0.000 NA
ATOM      7  C   UNL     1      49.868   8.328  12.651  0.00  0.00    +0.000 A 
ATOM      8  C   UNL     1      48.620   8.304  12.075  0.00  0.00    +0.000 A 
ATOM      9  C   UNL     1      47.635   7.703  12.823  0.00  0.00    +0.000 A 
ATOM     10  N   UNL     1      47.906   7.142  14.018  0.00  0.00    +0.000 NA
ATOM     11  C   UNL     1      48.312   5.748  16.283  0.00  0.00    +0.000 C 
ATOM     12  C   UNL     1      48.816   4.547  17.114  0.00  0.00    +0.000 C 
ENDROOT
BRANCH   1  14
ATOM     13  C   UNL     1      48.551   5.105  20.084  0.00  0.00    +0.000 C 
ATOM     14  C   UNL     1      49.591   5.741  19.146  0.00  0.00    +0.000 C 
BRANCH  14  15
ATOM     15  C   UNL     1      50.766   6.111  19.989  0.00  0.00    +0.000 C 
ATOM     16  N   UNL     1      51.677   6.374  20.655  0.00  0.00    +0.000 NA
ENDBRANCH  14  15
ENDBRANCH   1  14
BRANCH   9  17
ATOM     17  C   UNL     1      46.180   7.720  12.399  0.00  0.00    +0.000 C 
ATOM     18  C   UNL     1      45.660   9.154  12.529  0.00  0.00    +0.000 C 
BRANCH  17  19
ATOM     19  C   UNL     1      45.346   6.751  13.265  0.00  0.00    +0.000 C 
BRANCH  19  20
ATOM     20  N   UNL     1      44.129   6.331  12.574  0.00  0.00    +0.000 N 
ATOM     21  C   UNL     1      44.324   5.264  11.707  0.00  0.00    +0.000 A 
ATOM     22  N   UNL     1      45.272   4.349  11.954  0.00  0.00    +0.000 NA
ATOM     23  C   UNL     1      45.461   3.383  11.035  0.00  0.00    +0.000 A 
ATOM     24  C   UNL     1      44.735   3.292   9.877  0.00  0.00    +0.000 A 
ATOM     25  C   UNL     1      43.762   4.251   9.728  0.00  0.00    +0.000 A 
ATOM     26  N   UNL     1      43.546   5.243  10.617  0.00  0.00    +0.000 NA
ATOM     27  H   UNL     1      43.651   7.045  12.036  0.00  0.00    +0.000 HD
BRANCH  24  28
ATOM     28  C   UNL     1      44.980   2.245   8.856  0.00  0.00    +0.000 C 
ATOM     29  F   UNL     1      46.262   1.784   8.854  0.00  0.00    +0.000 F 
ATOM     30  F   UNL     1      44.185   1.152   9.013  0.00  0.00    +0.000 F 
ATOM     31  F   UNL     1      44.750   2.698   7.594  0.00  0.00    +0.000 F 
ENDBRANCH  24  28
ENDBRANCH  19  20
ENDBRANCH  17  19
ENDBRANCH   9  17
TORSDOF 6
ENDMDL
MODEL 8
REMARK VINA RESULT:    -6.246      4.147      7.799
REMARK INTER + INTRA:          -9.274
REMARK INTER:                  -7.447
REMARK INTRA:                  -1.827
REMARK UNBOUND:                -0.837
REMARK  Name = 
REMARK  8 active torsions:
REMARK  status: ('A' for Active; 'I' for Inactive)
REMARK    1  A    between atoms: C_1  and  C_2
REMARK    2  A    between atoms: C_2  and  C_3
REMARK    3  A    between atoms: C_2  and  N_5
REMARK    4  A    between atoms: C_13  and  C_14
REMARK    5  A    between atoms: C_14  and  C_15
REMARK    6  A    between atoms: C_14  and  C_16
REMARK    7  A    between atoms: C_16  and  N_17
REMARK    8  A    between atoms: C_21  and  C_22
REMARK                            x       y       z     vdW  Elec       q    Type
REMARK                         _______ _______ _______ _____ _____    ______ ____
ROOT
ATOM      1  N   UNL     1      46.129   5.845  11.913  0.00  0.00    +0.000 NA
ATOM      2  C   UNL     1      45.878   4.463  12.420  0.00  0.00    +0.000 C 
ATOM      3  C   UNL     1      45.878   4.309  13.961  0.00  0.00    +0.000 C 
ATOM      4  N   UNL     1      47.081   4.912  14.521  0.00  0.00    +0.000 N 
ATOM      5  C   UNL     1      47.537   4.492  15.747  0.00  0.00    +0.000 A 
ATOM      6  N   UNL     1      47.154   3.306  16.233  0.00  0.00    +0.000 NA
ATOM      7  C   UNL     1      47.773   2.864  17.345  0.00  0.00    +0.000 A 
ATOM      8  C   UNL     1      48.751   3.567  18.007  0.00  0.00    +0.000 A 
ATOM      9  C   UNL     1      49.048   4.804  17.485  0.00  0.00    +0.000 A 
ATOM     10  N   UNL     1      48.441   5.259  16.372  0.00  0.00    +0.000 NA
ATOM     11  C   UNL     1      47.531   6.210  14.025  0.00  0.00    +0.000 C 
ATOM     12  C   UNL     1      47.431   6.268  12.485  0.00  0.00    +0.000 C 
ENDROOT
BRANCH   1  14
ATOM     13  C   UNL     1      45.243   8.175  11.642  0.00  0.00    +0.000 C 
ATOM     14  C   UNL     1      45.014   6.777  12.242  0.00  0.00    +0.000 C 
BRANCH  14  15
ATOM     15  C   UNL     1      43.695   6.298  11.735  0.00  0.00    +0.000 C 
ATOM     16  N   UNL     1      42.661   5.926  11.366  0.00  0.00    +0.000 NA
ENDBRANCH  14  15
ENDBRANCH   1  14
BRANCH   9  17
ATOM     17  C   UNL     1      49.996   5.763  18.179  0.00  0.00    +0.000 C 
ATOM     18  C   UNL     1      49.706   5.721  19.681  0.00  0.00    +0.000 C 
BRANCH  17  19
ATOM     19  C   UNL     1      49.826   7.195  17.625  0.00  0.00    +0.000 C 
BRANCH  19  20
ATOM     20  N   UNL     1      50.836   7.498  16.614  0.00  0.00    +0.000 N 
ATOM     21  C   UNL     1      50.335   8.191  15.519  0.00  0.00    +0.000 A 
ATOM     22  N   UNL     1      49.292   9.022  15.658  0.00  0.00    +0.000 NA
ATOM     23  C   UNL     1      48.807   9.603  14.544  0.00  0.00    +0.000 A 
ATOM     24  C   UNL     1      49.325   9.388  13.294  0.00  0.00    +0.000 A 
ATOM     25  C   UNL     1      50.413   8.551  13.256  0.00  0.00    +0.000 A 
ATOM     26  N   UNL     1      50.925   7.938  14.345  0.00  0.00    +0.000 NA
ATOM     27  H   UNL     1      51.343   6.706  16.235  0.00  0.00    +0.000 HD
BRANCH  24  28
ATOM     28  C   UNL     1      48.755  10.005  12.072  0.00  0.00    +0.000 C 
ATOM     29  F   UNL     1      47.519  10.544  12.266  0.00  0.00    +0.000 F 
ATOM     30  F   UNL     1      49.529  11.006  11.571  0.00  0.00    +0.000 F 
ATOM     31  F   UNL     1      48.610   9.103  11.064  0.00  0.00    +0.000 F 
ENDBRANCH  24  28
ENDBRANCH  19  20
ENDBRANCH  17  19
ENDBRANCH   9  17
TORSDOF 6
ENDMDL
MODEL 9
REMARK VINA RESULT:    -6.161      3.530      5.328
REMARK INTER + INTRA:          -9.159
REMARK INTER:                  -7.849
REMARK INTRA:                  -1.310
REMARK UNBOUND:                -0.837
REMARK  Name = 
REMARK  8 active torsions:
REMARK  status: ('A' for Active; 'I' for Inactive)
REMARK    1  A    between atoms: C_1  and  C_2
REMARK    2  A    between atoms: C_2  and  C_3
REMARK    3  A    between atoms: C_2  and  N_5
REMARK    4  A    between atoms: C_13  and  C_14
REMARK    5  A    between atoms: C_14  and  C_15
REMARK    6  A    between atoms: C_14  and  C_16
REMARK    7  A    between atoms: C_16  and  N_17
REMARK    8  A    between atoms: C_21  and  C_22
REMARK                            x       y       z     vdW  Elec       q    Type
REMARK                         _______ _______ _______ _____ _____    ______ ____
ROOT
ATOM      1  N   UNL     1      50.119   9.076  12.674  0.00  0.00    +0.000 NA
ATOM      2  C   UNL     1      50.453   9.746  13.965  0.00  0.00    +0.000 C 
ATOM      3  C   UNL     1      50.896   8.802  15.110  0.00  0.00    +0.000 C 
ATOM      4  N   UNL     1      49.934   7.717  15.262  0.00  0.00    +0.000 N 
ATOM      5  C   UNL     1      49.839   7.064  16.467  0.00  0.00    +0.000 A 
ATOM      6  N   UNL     1      50.301   7.644  17.581  0.00  0.00    +0.000 NA
ATOM      7  C   UNL     1      50.016   7.046  18.753  0.00  0.00    +0.000 A 
ATOM      8  C   UNL     1      49.303   5.876  18.862  0.00  0.00    +0.000 A 
ATOM      9  C   UNL     1      48.915   5.306  17.672  0.00  0.00    +0.000 A 
ATOM     10  N   UNL     1      49.189   5.893  16.491  0.00  0.00    +0.000 NA
ATOM     11  C   UNL     1      49.411   7.051  14.072  0.00  0.00    +0.000 C 
ATOM     12  C   UNL     1      49.059   8.085  12.980  0.00  0.00    +0.000 C 
ENDROOT
BRANCH   1  14
ATOM     13  C   UNL     1      50.939   7.627  10.798  0.00  0.00    +0.000 C 
ATOM     14  C   UNL     1      51.318   8.471  12.027  0.00  0.00    +0.000 C 
BRANCH  14  15
ATOM     15  C   UNL     1      52.301   9.494  11.565  0.00  0.00    +0.000 C 
ATOM     16  N   UNL     1      53.050  10.307  11.219  0.00  0.00    +0.000 NA
ENDBRANCH  14  15
ENDBRANCH   1  14
BRANCH   9  17
ATOM     17  C   UNL     1      48.250   3.944  17.612  0.00  0.00    +0.000 C 
ATOM     18  C   UNL     1      49.292   2.921  17.151  0.00  0.00    +0.000 C 
BRANCH  17  19
ATOM     19  C   UNL     1      47.040   3.969  16.652  0.00  0.00    +0.000 C 
BRANCH  19  20
ATOM     20  N   UNL     1      47.355   3.319  15.381  0.00  0.00    +0.000 N 
ATOM     21  C   UNL     1      46.714   3.893  14.291  0.00  0.00    +0.000 A 
ATOM     22  N   UNL     1      46.411   5.199  14.289  0.00  0.00    +0.000 NA
ATOM     23  C   UNL     1      45.722   5.676  13.235  0.00  0.00    +0.000 A 
ATOM     24  C   UNL     1      45.325   4.900  12.178  0.00  0.00    +0.000 A 
ATOM     25  C   UNL     1      45.713   3.584  12.252  0.00  0.00    +0.000 A 
ATOM     26  N   UNL     1      46.394   3.060  13.293  0.00  0.00    +0.000 NA
ATOM     27  H   UNL     1      47.163   2.325  15.327  0.00  0.00    +0.000 HD
BRANCH  24  28
ATOM     28  C   UNL     1      44.534   5.431  11.043  0.00  0.00    +0.000 C 
ATOM     29  F   UNL     1      44.280   6.766  11.141  0.00  0.00    +0.000 F 
ATOM     30  F   UNL     1      45.141   5.249   9.839  0.00  0.00    +0.000 F 
ATOM     31  F   UNL     1      43.317   4.832  10.943  0.00  0.00    +0.000 F 
ENDBRANCH  24  28
ENDBRANCH  19  20
ENDBRANCH  17  19
ENDBRANCH   9  17
TORSDOF 6
ENDMDL
