MODEL 1
REMARK VINA RESULT:    -7.469      0.000      0.000
REMARK INTER + INTRA:         -11.668
REMARK INTER:                 -10.525
REMARK INTRA:                  -1.142
REMARK UNBOUND:                -1.142
REMARK  Name = 
REMARK  8 active torsions:
REMARK  status: ('A' for Active; 'I' for Inactive)
REMARK    1  A    between atoms: C_1  and  N_2
REMARK    2  A    between atoms: N_2  and  C_3
REMARK    3  A    between atoms: C_3  and  C_4
REMARK    4  A    between atoms: C_7  and  C_8
REMARK    5  A    between atoms: C_8  and  O_9
REMARK    6  A    between atoms: O_9  and  C_10
REMARK    7  A    between atoms: C_10  and  C_11
REMARK    8  A    between atoms: C_18  and  C_20
REMARK                            x       y       z     vdW  Elec       q    Type
REMARK                         _______ _______ _______ _____ _____    ______ ____
ROOT
ATOM      1  C   UNL     1      46.971   6.300  12.244  0.00  0.00    +0.000 C 
ENDROOT
BRANCH   1   2
ATOM      2  C   UNL     1      47.329   5.901  13.647  0.00  0.00    +0.000 A 
ATOM      3  C   UNL     1      46.763   4.751  14.220  0.00  0.00    +0.000 A 
ATOM      4  C   UNL     1      47.135   4.351  15.500  0.00  0.00    +0.000 A 
ATOM      5  C   UNL     1      48.075   5.090  16.227  0.00  0.00    +0.000 A 
ATOM      6  C   UNL     1      48.626   6.247  15.657  0.00  0.00    +0.000 A 
ATOM      7  C   UNL     1      48.253   6.652  14.379  0.00  0.00    +0.000 A 
BRANCH   5   8
ATOM      8  C   UNL     1      48.484   4.648  17.604  0.00  0.00    +0.000 C 
BRANCH   8   9
ATOM      9  O   UNL     1      49.791   4.085  17.521  0.00  0.00    +0.000 OA
BRANCH   9  10
ATOM     10  C   UNL     1      49.727   2.663  17.399  0.00  0.00    +0.000 C 
BRANCH  10  11
ATOM     11  C   UNL     1      51.095   2.128  17.628  0.00  0.00    +0.000 A 
ATOM     12  N   UNL     1      51.588   0.986  17.189  0.00  0.00    +0.000 NA
ATOM     13  C   UNL     1      52.878   0.937  17.650  0.00  0.00    +0.000 A 
ATOM     14  C   UNL     1      53.180   2.062  18.380  0.00  0.00    +0.000 A 
ATOM     15  N   UNL     1      52.038   2.809  18.361  0.00  0.00    +0.000 N 
ATOM     16  H   UNL     1      51.874   3.708  18.797  0.00  0.00    +0.000 HD
ENDBRANCH  10  11
ENDBRANCH   9  10
ENDBRANCH   8   9
ENDBRANCH   5   8
ENDBRANCH   1   2
BRANCH   1  18
ATOM     17  C   UNL     1      45.972   8.621  12.101  0.00  0.00    +0.000 C 
ATOM     18  N   UNL     1      45.813   7.173  12.051  0.00  0.00    +0.000 N 
ATOM     19  C   UNL     1      44.606   6.709  11.490  0.00  0.00    +0.000 C 
ATOM     20  O   UNL     1      43.745   7.498  11.103  0.00  0.00    +0.000 OA
BRANCH  19  21
ATOM     21  C   UNL     1      44.361   5.262  11.402  0.00  0.00    +0.000 A 
ATOM     22  C   UNL     1      43.607   4.536  12.309  0.00  0.00    +0.000 A 
ATOM     23  S   UNL     1      43.449   2.884  11.914  0.00  0.00    +0.000 S 
ATOM     24  C   UNL     1      44.262   3.115  10.438  0.00  0.00    +0.000 A 
ATOM     25  N   UNL     1      44.377   2.098   9.545  0.00  0.00    +0.000 NA
ATOM     26  C   UNL     1      44.962   2.433   8.442  0.00  0.00    +0.000 A 
ATOM     27  N   UNL     1      45.472   3.672   8.169  0.00  0.00    +0.000 N 
ATOM     28  C   UNL     1      45.505   4.695   9.100  0.00  0.00    +0.000 A 
ATOM     29  O   UNL     1      46.186   5.693   8.918  0.00  0.00    +0.000 OA
ATOM     30  C   UNL     1      44.738   4.407  10.304  0.00  0.00    +0.000 A 
ATOM     31  H   UNL     1      45.988   3.843   7.320  0.00  0.00    +0.000 HD
ENDBRANCH  19  21
ENDBRANCH   1  18
TORSDOF 7
ENDMDL
MODEL 2
REMARK VINA RESULT:    -6.904      2.691      3.658
REMARK INTER + INTRA:         -10.871
REMARK INTER:                  -9.547
REMARK INTRA:                  -1.325
REMARK UNBOUND:                -1.142
REMARK  Name = 
REMARK  8 active torsions:
REMARK  status: ('A' for Active; 'I' for Inactive)
REMARK    1  A    between atoms: C_1  and  N_2
REMARK    2  A    between atoms: N_2  and  C_3
REMARK    3  A    between atoms: C_3  and  C_4
REMARK    4  A    between atoms: C_7  and  C_8
REMARK    5  A    between atoms: C_8  and  O_9
REMARK    6  A    between atoms: O_9  and  C_10
REMARK    7  A    between atoms: C_10  and  C_11
REMARK    8  A    between atoms: C_18  and  C_20
REMARK                            x       y       z     vdW  Elec       q    Type
REMARK                         _______ _______ _______ _____ _____    ______ ____
ROOT
ATOM      1  C   UNL     1      47.303   6.395  12.436  0.00  0.00    +0.000 C 
ENDROOT
BRANCH   1   2
ATOM      2  C   UNL     1      47.552   5.939  13.845  0.00  0.00    +0.000 A 
ATOM      3  C   UNL     1      46.957   4.760  14.321  0.00  0.00    +0.000 A 
ATOM      4  C   UNL     1      47.230   4.309  15.610  0.00  0.00    +0.000 A 
ATOM      5  C   UNL     1      48.100   5.025  16.440  0.00  0.00    +0.000 A 
ATOM      6  C   UNL     1      48.680   6.210  15.966  0.00  0.00    +0.000 A 
ATOM      7  C   UNL     1      48.405   6.667  14.680  0.00  0.00    +0.000 A 
BRANCH   5   8
ATOM      8  C   UNL     1      48.403   4.528  17.826  0.00  0.00    +0.000 C 
BRANCH   8   9
ATOM      9  O   UNL     1      47.572   5.234  18.744  0.00  0.00    +0.000 OA
BRANCH   9  10
ATOM     10  C   UNL     1      48.354   5.855  19.766  0.00  0.00    +0.000 C 
BRANCH  10  11
ATOM     11  C   UNL     1      47.983   7.294  19.807  0.00  0.00    +0.000 A 
ATOM     12  N   UNL     1      48.240   8.156  20.772  0.00  0.00    +0.000 NA
ATOM     13  C   UNL     1      47.708   9.350  20.355  0.00  0.00    +0.000 A 
ATOM     14  C   UNL     1      47.120   9.218  19.121  0.00  0.00    +0.000 A 
ATOM     15  N   UNL     1      47.299   7.907  18.784  0.00  0.00    +0.000 N 
ATOM     16  H   UNL     1      46.995   7.432  17.943  0.00  0.00    +0.000 HD
ENDBRANCH  10  11
ENDBRANCH   9  10
ENDBRANCH   8   9
ENDBRANCH   5   8
ENDBRANCH   1   2
BRANCH   1  18
ATOM     17  C   UNL     1      46.555   8.799  12.182  0.00  0.00    +0.000 C 
ATOM     18  N   UNL     1      46.242   7.376  12.208  0.00  0.00    +0.000 N 
ATOM     19  C   UNL     1      44.985   7.017  11.681  0.00  0.00    +0.000 C 
ATOM     20  O   UNL     1      44.208   7.873  11.261  0.00  0.00    +0.000 OA
BRANCH  19  21
ATOM     21  C   UNL     1      44.586   5.603  11.669  0.00  0.00    +0.000 A 
ATOM     22  C   UNL     1      43.856   4.983  12.670  0.00  0.00    +0.000 A 
ATOM     23  S   UNL     1      43.491   3.348  12.353  0.00  0.00    +0.000 S 
ATOM     24  C   UNL     1      44.172   3.454  10.798  0.00  0.00    +0.000 A 
ATOM     25  N   UNL     1      44.093   2.407   9.935  0.00  0.00    +0.000 NA
ATOM     26  C   UNL     1      44.596   2.650   8.770  0.00  0.00    +0.000 A 
ATOM     27  N   UNL     1      45.200   3.820   8.404  0.00  0.00    +0.000 N 
ATOM     28  C   UNL     1      45.430   4.858   9.290  0.00  0.00    +0.000 A 
ATOM     29  O   UNL     1      46.188   5.774   9.007  0.00  0.00    +0.000 OA
ATOM     30  C   UNL     1      44.762   4.684  10.571  0.00  0.00    +0.000 A 
ATOM     31  H   UNL     1      45.643   3.914   7.504  0.00  0.00    +0.000 HD
ENDBRANCH  19  21
ENDBRANCH   1  18
TORSDOF 7
ENDMDL
MODEL 3
REMARK VINA RESULT:    -6.852      3.477      8.363
REMARK INTER + INTRA:         -10.799
REMARK INTER:                  -9.749
REMARK INTRA:                  -1.050
REMARK UNBOUND:                -1.142
REMARK  Name = 
REMARK  8 active torsions:
REMARK  status: ('A' for Active; 'I' for Inactive)
REMARK    1  A    between atoms: C_1  and  N_2
REMARK    2  A    between atoms: N_2  and  C_3
REMARK    3  A    between atoms: C_3  and  C_4
REMARK    4  A    between atoms: C_7  and  C_8
REMARK    5  A    between atoms: C_8  and  O_9
REMARK    6  A    between atoms: O_9  and  C_10
REMARK    7  A    between atoms: C_10  and  C_11
REMARK    8  A    between atoms: C_18  and  C_20
REMARK                            x       y       z     vdW  Elec       q    Type
REMARK                         _______ _______ _______ _____ _____    ______ ____
ROOT
ATOM      1  C   UNL     1      47.392   7.576  13.658  0.00  0.00    +0.000 C 
ENDROOT
BRANCH   1   2
ATOM      2  C   UNL     1      46.531   6.575  12.943  0.00  0.00    +0.000 A 
ATOM      3  C   UNL     1      46.449   5.253  13.410  0.00  0.00    +0.000 A 
ATOM      4  C   UNL     1      45.609   4.339  12.779  0.00  0.00    +0.000 A 
ATOM      5  C   UNL     1      44.839   4.729  11.677  0.00  0.00    +0.000 A 
ATOM      6  C   UNL     1      44.936   6.045  11.205  0.00  0.00    +0.000 A 
ATOM      7  C   UNL     1      45.778   6.961  11.830  0.00  0.00    +0.000 A 
BRANCH   5   8
ATOM      8  C   UNL     1      43.924   3.742  11.008  0.00  0.00    +0.000 C 
BRANCH   8   9
ATOM      9  O   UNL     1      44.723   2.840  10.247  0.00  0.00    +0.000 OA
BRANCH   9  10
ATOM     10  C   UNL     1      44.745   3.216   8.869  0.00  0.00    +0.000 C 
BRANCH  10  11
ATOM     11  C   UNL     1      45.812   2.424   8.202  0.00  0.00    +0.000 A 
ATOM     12  N   UNL     1      46.046   1.132   8.334  0.00  0.00    +0.000 NA
ATOM     13  C   UNL     1      47.121   0.865   7.525  0.00  0.00    +0.000 A 
ATOM     14  C   UNL     1      47.549   2.005   6.889  0.00  0.00    +0.000 A 
ATOM     15  N   UNL     1      46.712   2.989   7.330  0.00  0.00    +0.000 N 
ATOM     16  H   UNL     1      46.720   3.971   7.084  0.00  0.00    +0.000 HD
ENDBRANCH  10  11
ENDBRANCH   9  10
ENDBRANCH   8   9
ENDBRANCH   5   8
ENDBRANCH   1   2
BRANCH   1  18
ATOM     17  C   UNL     1      49.486   7.071  12.329  0.00  0.00    +0.000 C 
ATOM     18  N   UNL     1      48.844   7.404  13.595  0.00  0.00    +0.000 N 
ATOM     19  C   UNL     1      49.702   7.865  14.613  0.00  0.00    +0.000 C 
ATOM     20  O   UNL     1      50.916   7.942  14.429  0.00  0.00    +0.000 OA
BRANCH  19  21
ATOM     21  C   UNL     1      49.139   8.221  15.923  0.00  0.00    +0.000 A 
ATOM     22  C   UNL     1      48.828   9.510  16.322  0.00  0.00    +0.000 A 
ATOM     23  S   UNL     1      48.135   9.607  17.877  0.00  0.00    +0.000 S 
ATOM     24  C   UNL     1      48.092   7.913  18.010  0.00  0.00    +0.000 A 
ATOM     25  N   UNL     1      47.503   7.318  19.081  0.00  0.00    +0.000 NA
ATOM     26  C   UNL     1      47.487   6.027  19.020  0.00  0.00    +0.000 A 
ATOM     27  N   UNL     1      48.036   5.282  18.013  0.00  0.00    +0.000 N 
ATOM     28  C   UNL     1      48.768   5.838  16.978  0.00  0.00    +0.000 A 
ATOM     29  O   UNL     1      49.453   5.141  16.244  0.00  0.00    +0.000 OA
ATOM     30  C   UNL     1      48.696   7.291  16.933  0.00  0.00    +0.000 A 
ATOM     31  H   UNL     1      48.059   4.277  18.068  0.00  0.00    +0.000 HD
ENDBRANCH  19  21
ENDBRANCH   1  18
TORSDOF 7
ENDMDL
MODEL 4
REMARK VINA RESULT:    -6.725      2.252      8.278
REMARK INTER + INTRA:         -10.620
REMARK INTER:                  -9.519
REMARK INTRA:                  -1.101
REMARK UNBOUND:                -1.142
REMARK  Name = 
REMARK  8 active torsions:
REMARK  status: ('A' for Active; 'I' for Inactive)
REMARK    1  A    between atoms: C_1  and  N_2
REMARK    2  A    between atoms: N_2  and  C_3
REMARK    3  A    between atoms: C_3  and  C_4
REMARK    4  A    between atoms: C_7  and  C_8
REMARK    5  A    between atoms: C_8  and  O_9
REMARK    6  A    between atoms: O_9  and  C_10
REMARK    7  A    between atoms: C_10  and  C_11
REMARK    8  A    between atoms: C_18  and  C_20
REMARK                            x       y       z     vdW  Elec       q    Type
REMARK                         _______ _______ _______ _____ _____    ______ ____
ROOT
ATOM      1  C   UNL     1      49.317   6.864  15.121  0.00  0.00    +0.000 C 
ENDROOT
BRANCH   1   2
ATOM      2  C   UNL     1      48.122   6.801  14.215  0.00  0.00    +0.000 A 
ATOM      3  C   UNL     1      47.499   5.570  13.952  0.00  0.00    +0.000 A 
ATOM      4  C   UNL     1      46.359   5.518  13.154  0.00  0.00    +0.000 A 
ATOM      5  C   UNL     1      45.824   6.690  12.608  0.00  0.00    +0.000 A 
ATOM      6  C   UNL     1      46.458   7.915  12.860  0.00  0.00    +0.000 A 
ATOM      7  C   UNL     1      47.600   7.970  13.654  0.00  0.00    +0.000 A 
BRANCH   5   8
ATOM      8  C   UNL     1      44.586   6.631  11.758  0.00  0.00    +0.000 C 
BRANCH   8   9
ATOM      9  O   UNL     1      43.857   5.460  12.114  0.00  0.00    +0.000 OA
BRANCH   9  10
ATOM     10  C   UNL     1      43.017   5.034  11.040  0.00  0.00    +0.000 C 
BRANCH  10  11
ATOM     11  C   UNL     1      43.825   4.149  10.159  0.00  0.00    +0.000 A 
ATOM     12  N   UNL     1      44.355   2.983  10.472  0.00  0.00    +0.000 NA
ATOM     13  C   UNL     1      44.998   2.551   9.341  0.00  0.00    +0.000 A 
ATOM     14  C   UNL     1      44.860   3.463   8.322  0.00  0.00    +0.000 A 
ATOM     15  N   UNL     1      44.115   4.476   8.856  0.00  0.00    +0.000 N 
ATOM     16  H   UNL     1      43.812   5.330   8.406  0.00  0.00    +0.000 HD
ENDBRANCH  10  11
ENDBRANCH   9  10
ENDBRANCH   8   9
ENDBRANCH   5   8
ENDBRANCH   1   2
BRANCH   1  18
ATOM     17  C   UNL     1      49.227   8.965  16.529  0.00  0.00    +0.000 C 
ATOM     18  N   UNL     1      49.159   7.513  16.423  0.00  0.00    +0.000 N 
ATOM     19  C   UNL     1      48.614   6.844  17.537  0.00  0.00    +0.000 C 
ATOM     20  O   UNL     1      48.256   7.467  18.535  0.00  0.00    +0.000 OA
BRANCH  19  21
ATOM     21  C   UNL     1      48.510   5.378  17.517  0.00  0.00    +0.000 A 
ATOM     22  C   UNL     1      47.336   4.675  17.306  0.00  0.00    +0.000 A 
ATOM     23  S   UNL     1      47.535   2.982  17.279  0.00  0.00    +0.000 S 
ATOM     24  C   UNL     1      49.224   3.136  17.404  0.00  0.00    +0.000 A 
ATOM     25  N   UNL     1      50.026   2.042  17.327  0.00  0.00    +0.000 NA
ATOM     26  C   UNL     1      51.289   2.314  17.373  0.00  0.00    +0.000 A 
ATOM     27  N   UNL     1      51.817   3.566  17.526  0.00  0.00    +0.000 N 
ATOM     28  C   UNL     1      51.040   4.688  17.751  0.00  0.00    +0.000 A 
ATOM     29  O   UNL     1      51.540   5.736  18.134  0.00  0.00    +0.000 OA
ATOM     30  C   UNL     1      49.615   4.452  17.572  0.00  0.00    +0.000 A 
ATOM     31  H   UNL     1      52.810   3.698  17.635  0.00  0.00    +0.000 HD
ENDBRANCH  19  21
ENDBRANCH   1  18
TORSDOF 7
ENDMDL
MODEL 5
REMARK VINA RESULT:    -6.577      2.844      8.323
REMARK INTER + INTRA:         -10.411
REMARK INTER:                  -9.417
REMARK INTRA:                  -0.994
REMARK UNBOUND:                -1.142
REMARK  Name = 
REMARK  8 active torsions:
REMARK  status: ('A' for Active; 'I' for Inactive)
REMARK    1  A    between atoms: C_1  and  N_2
REMARK    2  A    between atoms: N_2  and  C_3
REMARK    3  A    between atoms: C_3  and  C_4
REMARK    4  A    between atoms: C_7  and  C_8
REMARK    5  A    between atoms: C_8  and  O_9
REMARK    6  A    between atoms: O_9  and  C_10
REMARK    7  A    between atoms: C_10  and  C_11
REMARK    8  A    between atoms: C_18  and  C_20
REMARK                            x       y       z     vdW  Elec       q    Type
REMARK                         _______ _______ _______ _____ _____    ______ ____
ROOT
ATOM      1  C   UNL     1      48.954   7.006  13.888  0.00  0.00    +0.000 C 
ENDROOT
BRANCH   1   2
ATOM      2  C   UNL     1      47.837   6.386  13.098  0.00  0.00    +0.000 A 
ATOM      3  C   UNL     1      47.111   5.308  13.628  0.00  0.00    +0.000 A 
ATOM      4  C   UNL     1      46.042   4.767  12.919  0.00  0.00    +0.000 A 
ATOM      5  C   UNL     1      45.680   5.295  11.674  0.00  0.00    +0.000 A 
ATOM      6  C   UNL     1      46.417   6.362  11.142  0.00  0.00    +0.000 A 
ATOM      7  C   UNL     1      47.490   6.901  11.846  0.00  0.00    +0.000 A 
BRANCH   5   8
ATOM      8  C   UNL     1      44.516   4.717  10.918  0.00  0.00    +0.000 C 
BRANCH   8   9
ATOM      9  O   UNL     1      44.993   4.248   9.659  0.00  0.00    +0.000 OA
BRANCH   9  10
ATOM     10  C   UNL     1      44.730   2.852   9.503  0.00  0.00    +0.000 C 
BRANCH  10  11
ATOM     11  C   UNL     1      45.718   2.313   8.531  0.00  0.00    +0.000 A 
ATOM     12  N   UNL     1      46.079   1.054   8.377  0.00  0.00    +0.000 NA
ATOM     13  C   UNL     1      47.003   1.053   7.364  0.00  0.00    +0.000 A 
ATOM     14  C   UNL     1      47.210   2.327   6.891  0.00  0.00    +0.000 A 
ATOM     15  N   UNL     1      46.390   3.119   7.643  0.00  0.00    +0.000 N 
ATOM     16  H   UNL     1      46.271   4.122   7.588  0.00  0.00    +0.000 HD
ENDBRANCH  10  11
ENDBRANCH   9  10
ENDBRANCH   8   9
ENDBRANCH   5   8
ENDBRANCH   1   2
BRANCH   1  18
ATOM     17  C   UNL     1      47.567   8.926  14.780  0.00  0.00    +0.000 C 
ATOM     18  N   UNL     1      48.603   7.919  14.976  0.00  0.00    +0.000 N 
ATOM     19  C   UNL     1      48.970   7.673  16.314  0.00  0.00    +0.000 C 
ATOM     20  O   UNL     1      48.457   8.304  17.237  0.00  0.00    +0.000 OA
BRANCH  19  21
ATOM     21  C   UNL     1      50.009   6.674  16.604  0.00  0.00    +0.000 A 
ATOM     22  C   UNL     1      51.367   6.944  16.658  0.00  0.00    +0.000 A 
ATOM     23  S   UNL     1      52.325   5.597  17.075  0.00  0.00    +0.000 S 
ATOM     24  C   UNL     1      50.944   4.642  17.340  0.00  0.00    +0.000 A 
ATOM     25  N   UNL     1      51.059   3.380  17.832  0.00  0.00    +0.000 NA
ATOM     26  C   UNL     1      49.927   2.795  18.043  0.00  0.00    +0.000 A 
ATOM     27  N   UNL     1      48.701   3.337  17.774  0.00  0.00    +0.000 N 
ATOM     28  C   UNL     1      48.540   4.558  17.143  0.00  0.00    +0.000 A 
ATOM     29  O   UNL     1      47.456   4.897  16.690  0.00  0.00    +0.000 OA
ATOM     30  C   UNL     1      49.779   5.309  17.011  0.00  0.00    +0.000 A 
ATOM     31  H   UNL     1      47.859   2.794  17.888  0.00  0.00    +0.000 HD
ENDBRANCH  19  21
ENDBRANCH   1  18
TORSDOF 7
ENDMDL
MODEL 6
REMARK VINA RESULT:    -5.980      2.674      3.264
REMARK INTER + INTRA:          -9.569
REMARK INTER:                  -8.581
REMARK INTRA:                  -0.988
REMARK UNBOUND:                -1.142
REMARK  Name = 
REMARK  8 active torsions:
REMARK  status: ('A' for Active; 'I' for Inactive)
REMARK    1  A    between atoms: C_1  and  N_2
REMARK    2  A    between atoms: N_2  and  C_3
REMARK    3  A    between atoms: C_3  and  C_4
REMARK    4  A    between atoms: C_7  and  C_8
REMARK    5  A    between atoms: C_8  and  O_9
REMARK    6  A    between atoms: O_9  and  C_10
REMARK    7  A    between atoms: C_10  and  C_11
REMARK    8  A    between atoms: C_18  and  C_20
REMARK                            x       y       z     vdW  Elec       q    Type
REMARK                         _______ _______ _______ _____ _____    ______ ____
ROOT
ATOM      1  C   UNL     1      47.054   6.312  12.120  0.00  0.00    +0.000 C 
ENDROOT
BRANCH   1   2
ATOM      2  C   UNL     1      48.063   6.630  13.186  0.00  0.00    +0.000 A 
ATOM      3  C   UNL     1      49.216   7.367  12.870  0.00  0.00    +0.000 A 
ATOM      4  C   UNL     1      50.126   7.708  13.867  0.00  0.00    +0.000 A 
ATOM      5  C   UNL     1      49.898   7.321  15.193  0.00  0.00    +0.000 A 
ATOM      6  C   UNL     1      48.754   6.572  15.502  0.00  0.00    +0.000 A 
ATOM      7  C   UNL     1      47.845   6.226  14.506  0.00  0.00    +0.000 A 
BRANCH   5   8
ATOM      8  C   UNL     1      50.876   7.702  16.270  0.00  0.00    +0.000 C 
BRANCH   8   9
ATOM      9  O   UNL     1      50.151   8.318  17.331  0.00  0.00    +0.000 OA
BRANCH   9  10
ATOM     10  C   UNL     1      50.513   7.752  18.592  0.00  0.00    +0.000 C 
BRANCH  10  11
ATOM     11  C   UNL     1      49.362   6.941  19.071  0.00  0.00    +0.000 A 
ATOM     12  N   UNL     1      48.082   7.245  18.980  0.00  0.00    +0.000 NA
ATOM     13  C   UNL     1      47.410   6.195  19.553  0.00  0.00    +0.000 A 
ATOM     14  C   UNL     1      48.290   5.237  19.998  0.00  0.00    +0.000 A 
ATOM     15  N   UNL     1      49.527   5.725  19.689  0.00  0.00    +0.000 N 
ATOM     16  H   UNL     1      50.427   5.298  19.867  0.00  0.00    +0.000 HD
ENDBRANCH  10  11
ENDBRANCH   9  10
ENDBRANCH   8   9
ENDBRANCH   5   8
ENDBRANCH   1   2
BRANCH   1  18
ATOM     17  C   UNL     1      46.024   8.623  12.062  0.00  0.00    +0.000 C 
ATOM     18  N   UNL     1      45.877   7.174  12.009  0.00  0.00    +0.000 N 
ATOM     19  C   UNL     1      44.643   6.702  11.520  0.00  0.00    +0.000 C 
ATOM     20  O   UNL     1      43.751   7.485  11.195  0.00  0.00    +0.000 OA
BRANCH  19  21
ATOM     21  C   UNL     1      44.407   5.254  11.434  0.00  0.00    +0.000 A 
ATOM     22  C   UNL     1      43.694   4.516  12.364  0.00  0.00    +0.000 A 
ATOM     23  S   UNL     1      43.537   2.865  11.968  0.00  0.00    +0.000 S 
ATOM     24  C   UNL     1      44.293   3.110  10.465  0.00  0.00    +0.000 A 
ATOM     25  N   UNL     1      44.384   2.098   9.563  0.00  0.00    +0.000 NA
ATOM     26  C   UNL     1      44.925   2.443   8.441  0.00  0.00    +0.000 A 
ATOM     27  N   UNL     1      45.414   3.687   8.155  0.00  0.00    +0.000 N 
ATOM     28  C   UNL     1      45.471   4.706   9.089  0.00  0.00    +0.000 A 
ATOM     29  O   UNL     1      46.136   5.712   8.887  0.00  0.00    +0.000 OA
ATOM     30  C   UNL     1      44.752   4.406  10.319  0.00  0.00    +0.000 A 
ATOM     31  H   UNL     1      45.896   3.867   7.289  0.00  0.00    +0.000 HD
ENDBRANCH  19  21
ENDBRANCH   1  18
TORSDOF 7
ENDMDL
MODEL 7
REMARK VINA RESULT:    -5.353      3.512      8.357
REMARK INTER + INTRA:          -8.686
REMARK INTER:                  -7.506
REMARK INTRA:                  -1.180
REMARK UNBOUND:                -1.142
REMARK  Name = 
REMARK  8 active torsions:
REMARK  status: ('A' for Active; 'I' for Inactive)
REMARK    1  A    between atoms: C_1  and  N_2
REMARK    2  A    between atoms: N_2  and  C_3
REMARK    3  A    between atoms: C_3  and  C_4
REMARK    4  A    between atoms: C_7  and  C_8
REMARK    5  A    between atoms: C_8  and  O_9
REMARK    6  A    between atoms: O_9  and  C_10
REMARK    7  A    between atoms: C_10  and  C_11
REMARK    8  A    between atoms: C_18  and  C_20
REMARK                            x       y       z     vdW  Elec       q    Type
REMARK                         _______ _______ _______ _____ _____    ______ ____
ROOT
ATOM      1  C   UNL     1      49.771   9.279  15.537  0.00  0.00    +0.000 C 
ENDROOT
BRANCH   1   2
ATOM      2  C   UNL     1      48.969   8.595  14.468  0.00  0.00    +0.000 A 
ATOM      3  C   UNL     1      49.227   7.254  14.141  0.00  0.00    +0.000 A 
ATOM      4  C   UNL     1      48.448   6.603  13.188  0.00  0.00    +0.000 A 
ATOM      5  C   UNL     1      47.402   7.278  12.549  0.00  0.00    +0.000 A 
ATOM      6  C   UNL     1      47.158   8.621  12.867  0.00  0.00    +0.000 A 
ATOM      7  C   UNL     1      47.937   9.277  13.816  0.00  0.00    +0.000 A 
BRANCH   5   8
ATOM      8  C   UNL     1      46.555   6.568  11.530  0.00  0.00    +0.000 C 
BRANCH   8   9
ATOM      9  O   UNL     1      45.186   6.829  11.830  0.00  0.00    +0.000 OA
BRANCH   9  10
ATOM     10  C   UNL     1      44.728   5.992  12.892  0.00  0.00    +0.000 C 
BRANCH  10  11
ATOM     11  C   UNL     1      44.249   4.719  12.289  0.00  0.00    +0.000 A 
ATOM     12  N   UNL     1      44.178   4.423  11.006  0.00  0.00    +0.000 NA
ATOM     13  C   UNL     1      43.682   3.145  10.947  0.00  0.00    +0.000 A 
ATOM     14  C   UNL     1      43.448   2.653  12.208  0.00  0.00    +0.000 A 
ATOM     15  N   UNL     1      43.809   3.664  13.052  0.00  0.00    +0.000 N 
ATOM     16  H   UNL     1      43.773   3.674  14.064  0.00  0.00    +0.000 HD
ENDBRANCH  10  11
ENDBRANCH   9  10
ENDBRANCH   8   9
ENDBRANCH   5   8
ENDBRANCH   1   2
BRANCH   1  18
ATOM     17  C   UNL     1      52.255   8.887  15.254  0.00  0.00    +0.000 C 
ATOM     18  N   UNL     1      51.013   8.644  15.977  0.00  0.00    +0.000 N 
ATOM     19  C   UNL     1      51.154   8.072  17.257  0.00  0.00    +0.000 C 
ATOM     20  O   UNL     1      52.263   7.776  17.699  0.00  0.00    +0.000 OA
BRANCH  19  21
ATOM     21  C   UNL     1      49.952   7.790  18.057  0.00  0.00    +0.000 A 
ATOM     22  C   UNL     1      49.346   8.696  18.911  0.00  0.00    +0.000 A 
ATOM     23  S   UNL     1      47.933   8.104  19.660  0.00  0.00    +0.000 S 
ATOM     24  C   UNL     1      48.003   6.667  18.754  0.00  0.00    +0.000 A 
ATOM     25  N   UNL     1      47.005   5.748  18.835  0.00  0.00    +0.000 NA
ATOM     26  C   UNL     1      47.159   4.737  18.045  0.00  0.00    +0.000 A 
ATOM     27  N   UNL     1      48.229   4.543  17.217  0.00  0.00    +0.000 N 
ATOM     28  C   UNL     1      49.333   5.378  17.206  0.00  0.00    +0.000 A 
ATOM     29  O   UNL     1      50.370   5.045  16.651  0.00  0.00    +0.000 OA
ATOM     30  C   UNL     1      49.144   6.598  17.976  0.00  0.00    +0.000 A 
ATOM     31  H   UNL     1      48.325   3.692  16.686  0.00  0.00    +0.000 HD
ENDBRANCH  19  21
ENDBRANCH   1  18
TORSDOF 7
ENDMDL
MODEL 8
REMARK VINA RESULT:    -5.223      4.772      8.351
REMARK INTER + INTRA:          -8.503
REMARK INTER:                  -8.847
REMARK INTRA:                   0.344
REMARK UNBOUND:                -1.142
REMARK  Name = 
REMARK  8 active torsions:
REMARK  status: ('A' for Active; 'I' for Inactive)
REMARK    1  A    between atoms: C_1  and  N_2
REMARK    2  A    between atoms: N_2  and  C_3
REMARK    3  A    between atoms: C_3  and  C_4
REMARK    4  A    between atoms: C_7  and  C_8
REMARK    5  A    between atoms: C_8  and  O_9
REMARK    6  A    between atoms: O_9  and  C_10
REMARK    7  A    between atoms: C_10  and  C_11
REMARK    8  A    between atoms: C_18  and  C_20
REMARK                            x       y       z     vdW  Elec       q    Type
REMARK                         _______ _______ _______ _____ _____    ______ ____
ROOT
ATOM      1  C   UNL     1      45.458   6.763  11.565  0.00  0.00    +0.000 C 
ENDROOT
BRANCH   1   2
ATOM      2  C   UNL     1      45.261   5.499  10.779  0.00  0.00    +0.000 A 
ATOM      3  C   UNL     1      45.768   5.394   9.473  0.00  0.00    +0.000 A 
ATOM      4  C   UNL     1      45.632   4.204   8.763  0.00  0.00    +0.000 A 
ATOM      5  C   UNL     1      44.991   3.103   9.344  0.00  0.00    +0.000 A 
ATOM      6  C   UNL     1      44.473   3.218  10.641  0.00  0.00    +0.000 A 
ATOM      7  C   UNL     1      44.603   4.408  11.352  0.00  0.00    +0.000 A 
BRANCH   5   8
ATOM      8  C   UNL     1      44.858   1.816   8.579  0.00  0.00    +0.000 C 
BRANCH   8   9
ATOM      9  O   UNL     1      46.020   1.029   8.828  0.00  0.00    +0.000 OA
BRANCH   9  10
ATOM     10  C   UNL     1      46.442   0.353   7.642  0.00  0.00    +0.000 C 
BRANCH  10  11
ATOM     11  C   UNL     1      47.033   1.368   6.730  0.00  0.00    +0.000 A 
ATOM     12  N   UNL     1      48.315   1.587   6.508  0.00  0.00    +0.000 NA
ATOM     13  C   UNL     1      48.363   2.610   5.595  0.00  0.00    +0.000 A 
ATOM     14  C   UNL     1      47.097   3.020   5.254  0.00  0.00    +0.000 A 
ATOM     15  N   UNL     1      46.261   2.225   5.984  0.00  0.00    +0.000 N 
ATOM     16  H   UNL     1      45.249   2.235   6.002  0.00  0.00    +0.000 HD
ENDBRANCH  10  11
ENDBRANCH   9  10
ENDBRANCH   8   9
ENDBRANCH   5   8
ENDBRANCH   1   2
BRANCH   1  18
ATOM     17  C   UNL     1      46.061   5.450  13.643  0.00  0.00    +0.000 C 
ATOM     18  N   UNL     1      46.148   6.672  12.853  0.00  0.00    +0.000 N 
ATOM     19  C   UNL     1      47.165   7.571  13.227  0.00  0.00    +0.000 C 
ATOM     20  O   UNL     1      47.900   7.332  14.184  0.00  0.00    +0.000 OA
BRANCH  19  21
ATOM     21  C   UNL     1      47.323   8.831  12.485  0.00  0.00    +0.000 A 
ATOM     22  C   UNL     1      46.372   9.836  12.431  0.00  0.00    +0.000 A 
ATOM     23  S   UNL     1      46.861  11.206  11.540  0.00  0.00    +0.000 S 
ATOM     24  C   UNL     1      48.418  10.560  11.319  0.00  0.00    +0.000 A 
ATOM     25  N   UNL     1      49.392  11.291  10.716  0.00  0.00    +0.000 NA
ATOM     26  C   UNL     1      50.540  10.700  10.673  0.00  0.00    +0.000 A 
ATOM     27  N   UNL     1      50.793   9.440  11.140  0.00  0.00    +0.000 N 
ATOM     28  C   UNL     1      49.803   8.607  11.632  0.00  0.00    +0.000 A 
ATOM     29  O   UNL     1      50.008   7.414  11.801  0.00  0.00    +0.000 OA
ATOM     30  C   UNL     1      48.525   9.276  11.824  0.00  0.00    +0.000 A 
ATOM     31  H   UNL     1      51.693   9.008  11.003  0.00  0.00    +0.000 HD
ENDBRANCH  19  21
ENDBRANCH   1  18
TORSDOF 7
ENDMDL
MODEL 9
REMARK VINA RESULT:    -4.683     10.017     12.440
REMARK INTER + INTRA:          -7.741
REMARK INTER:                  -6.298
REMARK INTRA:                  -1.443
REMARK UNBOUND:                -1.142
REMARK  Name = 
REMARK  8 active torsions:
REMARK  status: ('A' for Active; 'I' for Inactive)
REMARK    1  A    between atoms: C_1  and  N_2
REMARK    2  A    between atoms: N_2  and  C_3
REMARK    3  A    between atoms: C_3  and  C_4
REMARK    4  A    between atoms: C_7  and  C_8
REMARK    5  A    between atoms: C_8  and  O_9
REMARK    6  A    between atoms: O_9  and  C_10
REMARK    7  A    between atoms: C_10  and  C_11
REMARK    8  A    between atoms: C_18  and  C_20
REMARK                            x       y       z     vdW  Elec       q    Type
REMARK                         _______ _______ _______ _____ _____    ______ ____
ROOT
ATOM      1  C   UNL     1      39.957  -1.340  19.102  0.00  0.00    +0.000 C 
ENDROOT
BRANCH   1   2
ATOM      2  C   UNL     1      40.427  -2.197  17.962  0.00  0.00    +0.000 A 
ATOM      3  C   UNL     1      40.814  -3.527  18.190  0.00  0.00    +0.000 A 
ATOM      4  C   UNL     1      41.199  -4.338  17.125  0.00  0.00    +0.000 A 
ATOM      5  C   UNL     1      41.202  -3.834  15.819  0.00  0.00    +0.000 A 
ATOM      6  C   UNL     1      40.830  -2.501  15.597  0.00  0.00    +0.000 A 
ATOM      7  C   UNL     1      40.449  -1.687  16.660  0.00  0.00    +0.000 A 
BRANCH   5   8
ATOM      8  C   UNL     1      41.605  -4.716  14.671  0.00  0.00    +0.000 C 
BRANCH   8   9
ATOM      9  O   UNL     1      41.644  -3.919  13.490  0.00  0.00    +0.000 OA
BRANCH   9  10
ATOM     10  C   UNL     1      40.770  -4.445  12.490  0.00  0.00    +0.000 C 
BRANCH  10  11
ATOM     11  C   UNL     1      39.875  -3.343  12.047  0.00  0.00    +0.000 A 
ATOM     12  N   UNL     1      40.016  -2.585  10.977  0.00  0.00    +0.000 NA
ATOM     13  C   UNL     1      38.950  -1.721  10.991  0.00  0.00    +0.000 A 
ATOM     14  C   UNL     1      38.148  -1.954  12.082  0.00  0.00    +0.000 A 
ATOM     15  N   UNL     1      38.748  -2.985  12.747  0.00  0.00    +0.000 N 
ATOM     16  H   UNL     1      38.449  -3.431  13.604  0.00  0.00    +0.000 HD
ENDBRANCH  10  11
ENDBRANCH   9  10
ENDBRANCH   8   9
ENDBRANCH   5   8
ENDBRANCH   1   2
BRANCH   1  18
ATOM     17  C   UNL     1      38.414  -2.434  20.783  0.00  0.00    +0.000 C 
ATOM     18  N   UNL     1      38.610  -1.570  19.626  0.00  0.00    +0.000 N 
ATOM     19  C   UNL     1      37.520  -0.745  19.286  0.00  0.00    +0.000 C 
ATOM     20  O   UNL     1      36.468  -0.794  19.923  0.00  0.00    +0.000 OA
BRANCH  19  21
ATOM     21  C   UNL     1      37.630   0.156  18.130  0.00  0.00    +0.000 A 
ATOM     22  C   UNL     1      37.129  -0.117  16.868  0.00  0.00    +0.000 A 
ATOM     23  S   UNL     1      37.357   1.144  15.743  0.00  0.00    +0.000 S 
ATOM     24  C   UNL     1      38.005   2.157  16.945  0.00  0.00    +0.000 A 
ATOM     25  N   UNL     1      38.314   3.451  16.667  0.00  0.00    +0.000 NA
ATOM     26  C   UNL     1      38.736   4.120  17.688  0.00  0.00    +0.000 A 
ATOM     27  N   UNL     1      38.913   3.607  18.944  0.00  0.00    +0.000 N 
ATOM     28  C   UNL     1      38.747   2.266  19.240  0.00  0.00    +0.000 A 
ATOM     29  O   UNL     1      39.152   1.797  20.293  0.00  0.00    +0.000 OA
ATOM     30  C   UNL     1      38.143   1.504  18.156  0.00  0.00    +0.000 A 
ATOM     31  H   UNL     1      39.322   4.165  19.677  0.00  0.00    +0.000 HD
ENDBRANCH  19  21
ENDBRANCH   1  18
TORSDOF 7
ENDMDL
