MODEL 1
REMARK VINA RESULT:    -7.770      0.000      0.000
REMARK INTER + INTRA:         -12.236
REMARK INTER:                 -10.950
REMARK INTRA:                  -1.286
REMARK UNBOUND:                -1.286
REMARK  Name = 
REMARK  8 active torsions:
REMARK  status: ('A' for Active; 'I' for Inactive)
REMARK    1  A    between atoms: C_1  and  O_2
REMARK    2  A    between atoms: O_2  and  C_3
REMARK    3  A    between atoms: C_10  and  C_11
REMARK    4  A    between atoms: N_13  and  C_14
REMARK    5  A    between atoms: C_14  and  C_15
REMARK    6  A    between atoms: C_18  and  N_19
REMARK    7  A    between atoms: N_19  and  C_20
REMARK    8  A    between atoms: C_20  and  C_21
REMARK                            x       y       z     vdW  Elec       q    Type
REMARK                         _______ _______ _______ _____ _____    ______ ____
ROOT
ATOM      1  C   UNL     1      46.235   7.821  12.885  0.00  0.00    +0.000 C 
ENDROOT
BRANCH   1   2
ATOM      2  C   UNL     1      45.629   6.808  11.941  0.00  0.00    +0.000 A 
ATOM      3  C   UNL     1      46.291   6.459  10.761  0.00  0.00    +0.000 A 
ATOM      4  C   UNL     1      45.786   5.457   9.923  0.00  0.00    +0.000 A 
ATOM      5  C   UNL     1      44.589   4.787  10.204  0.00  0.00    +0.000 A 
ATOM      6  C   UNL     1      43.926   5.148  11.383  0.00  0.00    +0.000 A 
ATOM      7  C   UNL     1      44.412   6.170  12.220  0.00  0.00    +0.000 A 
BRANCH   5   8
ATOM      8  N   UNL     1      44.123   3.708   9.451  0.00  0.00    +0.000 N 
ATOM      9  H   UNL     1      43.639   3.952   8.588  0.00  0.00    +0.000 HD
BRANCH   8  10
ATOM     10  C   UNL     1      44.901   2.469   9.383  0.00  0.00    +0.000 C 
BRANCH  10  11
ATOM     11  C   UNL     1      45.487   2.228   7.982  0.00  0.00    +0.000 C 
ATOM     12  C   UNL     1      46.485   1.060   8.048  0.00  0.00    +0.000 C 
ATOM     13  O   UNL     1      47.055   0.801   6.758  0.00  0.00    +0.000 OA
ATOM     14  C   UNL     1      47.707   1.980   6.264  0.00  0.00    +0.000 C 
ATOM     15  C   UNL     1      46.719   3.144   6.194  0.00  0.00    +0.000 C 
ATOM     16  O   UNL     1      46.158   3.411   7.492  0.00  0.00    +0.000 OA
ENDBRANCH  10  11
ENDBRANCH   8  10
ENDBRANCH   5   8
ENDBRANCH   1   2
BRANCH   1  19
ATOM     17  C   UNL     1      48.239   7.067  14.132  0.00  0.00    +0.000 C 
ATOM     18  O   UNL     1      49.016   7.464  13.257  0.00  0.00    +0.000 OA
ATOM     19  N   UNL     1      46.885   7.202  14.003  0.00  0.00    +0.000 N 
ATOM     20  H   UNL     1      46.277   6.820  14.716  0.00  0.00    +0.000 HD
BRANCH  17  28
ATOM     21  C   UNL     1      47.225   4.290  15.846  0.00  0.00    +0.000 A 
ATOM     22  N   UNL     1      47.028   3.262  16.692  0.00  0.00    +0.000 NA
ATOM     23  C   UNL     1      47.854   3.137  17.722  0.00  0.00    +0.000 A 
ATOM     24  N   UNL     1      48.875   3.929  18.042  0.00  0.00    +0.000 NA
ATOM     25  C   UNL     1      49.027   4.955  17.186  0.00  0.00    +0.000 A 
ATOM     26  S   UNL     1      50.280   6.078  17.423  0.00  0.00    +0.000 S 
ATOM     27  C   UNL     1      49.820   6.958  16.038  0.00  0.00    +0.000 A 
ATOM     28  C   UNL     1      48.734   6.419  15.362  0.00  0.00    +0.000 A 
ATOM     29  C   UNL     1      48.257   5.224  16.058  0.00  0.00    +0.000 A 
BRANCH  21  31
ATOM     30  C   UNL     1      46.835   3.607  13.632  0.00  0.00    +0.000 C 
ATOM     31  O   UNL     1      46.411   4.384  14.747  0.00  0.00    +0.000 OA
ENDBRANCH  21  31
ENDBRANCH  17  28
ENDBRANCH   1  19
TORSDOF 7
ENDMDL
MODEL 2
REMARK VINA RESULT:    -7.512      1.198      1.594
REMARK INTER + INTRA:         -11.872
REMARK INTER:                 -10.566
REMARK INTRA:                  -1.306
REMARK UNBOUND:                -1.286
REMARK  Name = 
REMARK  8 active torsions:
REMARK  status: ('A' for Active; 'I' for Inactive)
REMARK    1  A    between atoms: C_1  and  O_2
REMARK    2  A    between atoms: O_2  and  C_3
REMARK    3  A    between atoms: C_10  and  C_11
REMARK    4  A    between atoms: N_13  and  C_14
REMARK    5  A    between atoms: C_14  and  C_15
REMARK    6  A    between atoms: C_18  and  N_19
REMARK    7  A    between atoms: N_19  and  C_20
REMARK    8  A    between atoms: C_20  and  C_21
REMARK                            x       y       z     vdW  Elec       q    Type
REMARK                         _______ _______ _______ _____ _____    ______ ____
ROOT
ATOM      1  C   UNL     1      47.600   8.538  13.862  0.00  0.00    +0.000 C 
ENDROOT
BRANCH   1   2
ATOM      2  C   UNL     1      46.707   7.878  12.835  0.00  0.00    +0.000 A 
ATOM      3  C   UNL     1      47.187   6.819  12.060  0.00  0.00    +0.000 A 
ATOM      4  C   UNL     1      46.344   6.140  11.171  0.00  0.00    +0.000 A 
ATOM      5  C   UNL     1      45.005   6.507  10.990  0.00  0.00    +0.000 A 
ATOM      6  C   UNL     1      44.533   7.574  11.764  0.00  0.00    +0.000 A 
ATOM      7  C   UNL     1      45.377   8.278  12.643  0.00  0.00    +0.000 A 
BRANCH   5   8
ATOM      8  N   UNL     1      44.113   5.779  10.200  0.00  0.00    +0.000 N 
ATOM      9  H   UNL     1      44.002   6.112   9.243  0.00  0.00    +0.000 HD
BRANCH   8  10
ATOM     10  C   UNL     1      44.015   4.326  10.353  0.00  0.00    +0.000 C 
BRANCH  10  11
ATOM     11  C   UNL     1      44.510   3.576   9.104  0.00  0.00    +0.000 C 
ATOM     12  C   UNL     1      45.134   2.239   9.535  0.00  0.00    +0.000 C 
ATOM     13  O   UNL     1      45.609   1.506   8.398  0.00  0.00    +0.000 OA
ATOM     14  C   UNL     1      46.570   2.289   7.676  0.00  0.00    +0.000 C 
ATOM     15  C   UNL     1      45.955   3.620   7.243  0.00  0.00    +0.000 C 
ATOM     16  O   UNL     1      45.491   4.359   8.388  0.00  0.00    +0.000 OA
ENDBRANCH  10  11
ENDBRANCH   8  10
ENDBRANCH   5   8
ENDBRANCH   1   2
BRANCH   1  19
ATOM     17  C   UNL     1      49.086   7.011  15.127  0.00  0.00    +0.000 C 
ATOM     18  O   UNL     1      50.001   7.110  14.304  0.00  0.00    +0.000 OA
ATOM     19  N   UNL     1      47.898   7.668  14.962  0.00  0.00    +0.000 N 
ATOM     20  H   UNL     1      47.152   7.523  15.630  0.00  0.00    +0.000 HD
BRANCH  17  28
ATOM     21  C   UNL     1      47.349   4.293  16.258  0.00  0.00    +0.000 A 
ATOM     22  N   UNL     1      46.836   3.236  16.915  0.00  0.00    +0.000 NA
ATOM     23  C   UNL     1      47.413   2.872  18.053  0.00  0.00    +0.000 A 
ATOM     24  N   UNL     1      48.457   3.442  18.650  0.00  0.00    +0.000 NA
ATOM     25  C   UNL     1      48.927   4.506  17.976  0.00  0.00    +0.000 A 
ATOM     26  S   UNL     1      50.261   5.370  18.577  0.00  0.00    +0.000 S 
ATOM     27  C   UNL     1      50.222   6.447  17.257  0.00  0.00    +0.000 A 
ATOM     28  C   UNL     1      49.224   6.170  16.332  0.00  0.00    +0.000 A 
ATOM     29  C   UNL     1      48.445   5.012  16.771  0.00  0.00    +0.000 A 
BRANCH  21  31
ATOM     30  C   UNL     1      47.036   3.696  14.008  0.00  0.00    +0.000 C 
ATOM     31  O   UNL     1      46.792   4.632  15.052  0.00  0.00    +0.000 OA
ENDBRANCH  21  31
ENDBRANCH  17  28
ENDBRANCH   1  19
TORSDOF 7
ENDMDL
MODEL 3
REMARK VINA RESULT:    -7.305      1.748      2.269
REMARK INTER + INTRA:         -11.580
REMARK INTER:                 -10.661
REMARK INTRA:                  -0.920
REMARK UNBOUND:                -1.286
REMARK  Name = 
REMARK  8 active torsions:
REMARK  status: ('A' for Active; 'I' for Inactive)
REMARK    1  A    between atoms: C_1  and  O_2
REMARK    2  A    between atoms: O_2  and  C_3
REMARK    3  A    between atoms: C_10  and  C_11
REMARK    4  A    between atoms: N_13  and  C_14
REMARK    5  A    between atoms: C_14  and  C_15
REMARK    6  A    between atoms: C_18  and  N_19
REMARK    7  A    between atoms: N_19  and  C_20
REMARK    8  A    between atoms: C_20  and  C_21
REMARK                            x       y       z     vdW  Elec       q    Type
REMARK                         _______ _______ _______ _____ _____    ______ ____
ROOT
ATOM      1  C   UNL     1      47.624   7.184  13.184  0.00  0.00    +0.000 C 
ENDROOT
BRANCH   1   2
ATOM      2  C   UNL     1      46.749   6.050  12.702  0.00  0.00    +0.000 A 
ATOM      3  C   UNL     1      45.978   6.198  11.545  0.00  0.00    +0.000 A 
ATOM      4  C   UNL     1      45.233   5.126  11.036  0.00  0.00    +0.000 A 
ATOM      5  C   UNL     1      45.197   3.879  11.672  0.00  0.00    +0.000 A 
ATOM      6  C   UNL     1      45.964   3.741  12.835  0.00  0.00    +0.000 A 
ATOM      7  C   UNL     1      46.697   4.818  13.367  0.00  0.00    +0.000 A 
BRANCH   5   8
ATOM      8  N   UNL     1      44.559   2.762  11.128  0.00  0.00    +0.000 N 
ATOM      9  H   UNL     1      43.792   2.382  11.682  0.00  0.00    +0.000 HD
BRANCH   8  10
ATOM     10  C   UNL     1      44.374   2.656   9.679  0.00  0.00    +0.000 C 
BRANCH  10  11
ATOM     11  C   UNL     1      45.695   2.377   8.944  0.00  0.00    +0.000 C 
ATOM     12  C   UNL     1      45.841   3.368   7.777  0.00  0.00    +0.000 C 
ATOM     13  O   UNL     1      47.065   3.141   7.064  0.00  0.00    +0.000 OA
ATOM     14  C   UNL     1      47.105   1.794   6.574  0.00  0.00    +0.000 C 
ATOM     15  C   UNL     1      46.963   0.803   7.730  0.00  0.00    +0.000 C 
ATOM     16  O   UNL     1      45.728   1.024   8.436  0.00  0.00    +0.000 OA
ENDBRANCH  10  11
ENDBRANCH   8  10
ENDBRANCH   5   8
ENDBRANCH   1   2
BRANCH   1  19
ATOM     17  C   UNL     1      48.859   7.063  15.330  0.00  0.00    +0.000 C 
ATOM     18  O   UNL     1      49.935   6.822  14.774  0.00  0.00    +0.000 OA
ATOM     19  N   UNL     1      47.706   7.236  14.615  0.00  0.00    +0.000 N 
ATOM     20  H   UNL     1      46.833   7.382  15.106  0.00  0.00    +0.000 HD
BRANCH  17  28
ATOM     21  C   UNL     1      48.868   4.724  17.821  0.00  0.00    +0.000 A 
ATOM     22  N   UNL     1      48.841   4.018  18.967  0.00  0.00    +0.000 NA
ATOM     23  C   UNL     1      48.741   4.688  20.108  0.00  0.00    +0.000 A 
ATOM     24  N   UNL     1      48.650   6.006  20.267  0.00  0.00    +0.000 NA
ATOM     25  C   UNL     1      48.659   6.675  19.101  0.00  0.00    +0.000 A 
ATOM     26  S   UNL     1      48.554   8.370  19.094  0.00  0.00    +0.000 S 
ATOM     27  C   UNL     1      48.633   8.419  17.393  0.00  0.00    +0.000 A 
ATOM     28  C   UNL     1      48.759   7.170  16.798  0.00  0.00    +0.000 A 
ATOM     29  C   UNL     1      48.765   6.128  17.825  0.00  0.00    +0.000 A 
BRANCH  21  31
ATOM     30  C   UNL     1      48.019   3.074  16.380  0.00  0.00    +0.000 C 
ATOM     31  O   UNL     1      49.033   4.037  16.646  0.00  0.00    +0.000 OA
ENDBRANCH  21  31
ENDBRANCH  17  28
ENDBRANCH   1  19
TORSDOF 7
ENDMDL
MODEL 4
REMARK VINA RESULT:    -7.005      2.348      3.179
REMARK INTER + INTRA:         -11.158
REMARK INTER:                 -10.113
REMARK INTRA:                  -1.044
REMARK UNBOUND:                -1.286
REMARK  Name = 
REMARK  8 active torsions:
REMARK  status: ('A' for Active; 'I' for Inactive)
REMARK    1  A    between atoms: C_1  and  O_2
REMARK    2  A    between atoms: O_2  and  C_3
REMARK    3  A    between atoms: C_10  and  C_11
REMARK    4  A    between atoms: N_13  and  C_14
REMARK    5  A    between atoms: C_14  and  C_15
REMARK    6  A    between atoms: C_18  and  N_19
REMARK    7  A    between atoms: N_19  and  C_20
REMARK    8  A    between atoms: C_20  and  C_21
REMARK                            x       y       z     vdW  Elec       q    Type
REMARK                         _______ _______ _______ _____ _____    ______ ____
ROOT
ATOM      1  C   UNL     1      48.577   7.244  14.927  0.00  0.00    +0.000 C 
ENDROOT
BRANCH   1   2
ATOM      2  C   UNL     1      47.699   6.419  14.014  0.00  0.00    +0.000 A 
ATOM      3  C   UNL     1      47.221   5.174  14.432  0.00  0.00    +0.000 A 
ATOM      4  C   UNL     1      46.334   4.440  13.635  0.00  0.00    +0.000 A 
ATOM      5  C   UNL     1      45.915   4.895  12.378  0.00  0.00    +0.000 A 
ATOM      6  C   UNL     1      46.405   6.139  11.961  0.00  0.00    +0.000 A 
ATOM      7  C   UNL     1      47.315   6.873  12.745  0.00  0.00    +0.000 A 
BRANCH   5   8
ATOM      8  N   UNL     1      44.945   4.243  11.614  0.00  0.00    +0.000 N 
ATOM      9  H   UNL     1      44.235   3.739  12.144  0.00  0.00    +0.000 HD
BRANCH   8  10
ATOM     10  C   UNL     1      44.460   4.849  10.372  0.00  0.00    +0.000 C 
BRANCH  10  11
ATOM     11  C   UNL     1      44.770   3.978   9.143  0.00  0.00    +0.000 C 
ATOM     12  C   UNL     1      45.083   2.546   9.607  0.00  0.00    +0.000 C 
ATOM     13  O   UNL     1      45.377   1.699   8.488  0.00  0.00    +0.000 OA
ATOM     14  C   UNL     1      46.485   2.230   7.747  0.00  0.00    +0.000 C 
ATOM     15  C   UNL     1      46.178   3.654   7.281  0.00  0.00    +0.000 C 
ATOM     16  O   UNL     1      45.897   4.505   8.407  0.00  0.00    +0.000 OA
ENDBRANCH  10  11
ENDBRANCH   8  10
ENDBRANCH   5   8
ENDBRANCH   1   2
BRANCH   1  19
ATOM     17  C   UNL     1      49.565   6.031  16.848  0.00  0.00    +0.000 C 
ATOM     18  O   UNL     1      48.626   6.317  17.598  0.00  0.00    +0.000 OA
ATOM     19  N   UNL     1      49.603   6.459  15.550  0.00  0.00    +0.000 N 
ATOM     20  H   UNL     1      50.411   6.249  14.980  0.00  0.00    +0.000 HD
BRANCH  17  28
ATOM     21  C   UNL     1      50.088   2.656  16.970  0.00  0.00    +0.000 A 
ATOM     22  N   UNL     1      50.532   1.395  17.130  0.00  0.00    +0.000 NA
ATOM     23  C   UNL     1      51.748   1.224  17.632  0.00  0.00    +0.000 A 
ATOM     24  N   UNL     1      52.605   2.166  18.019  0.00  0.00    +0.000 NA
ATOM     25  C   UNL     1      52.117   3.410  17.864  0.00  0.00    +0.000 A 
ATOM     26  S   UNL     1      53.062   4.752  18.301  0.00  0.00    +0.000 S 
ATOM     27  C   UNL     1      51.834   5.834  17.827  0.00  0.00    +0.000 A 
ATOM     28  C   UNL     1      50.702   5.214  17.317  0.00  0.00    +0.000 A 
ATOM     29  C   UNL     1      50.872   3.761  17.349  0.00  0.00    +0.000 A 
BRANCH  21  31
ATOM     30  C   UNL     1      47.772   2.854  17.318  0.00  0.00    +0.000 C 
ATOM     31  O   UNL     1      48.856   2.835  16.395  0.00  0.00    +0.000 OA
ENDBRANCH  21  31
ENDBRANCH  17  28
ENDBRANCH   1  19
TORSDOF 7
ENDMDL
MODEL 5
REMARK VINA RESULT:    -6.933      2.208      2.906
REMARK INTER + INTRA:         -11.057
REMARK INTER:                 -10.240
REMARK INTRA:                  -0.817
REMARK UNBOUND:                -1.286
REMARK  Name = 
REMARK  8 active torsions:
REMARK  status: ('A' for Active; 'I' for Inactive)
REMARK    1  A    between atoms: C_1  and  O_2
REMARK    2  A    between atoms: O_2  and  C_3
REMARK    3  A    between atoms: C_10  and  C_11
REMARK    4  A    between atoms: N_13  and  C_14
REMARK    5  A    between atoms: C_14  and  C_15
REMARK    6  A    between atoms: C_18  and  N_19
REMARK    7  A    between atoms: N_19  and  C_20
REMARK    8  A    between atoms: C_20  and  C_21
REMARK                            x       y       z     vdW  Elec       q    Type
REMARK                         _______ _______ _______ _____ _____    ______ ____
ROOT
ATOM      1  C   UNL     1      47.528   6.828  13.641  0.00  0.00    +0.000 C 
ENDROOT
BRANCH   1   2
ATOM      2  C   UNL     1      46.609   6.061  12.718  0.00  0.00    +0.000 A 
ATOM      3  C   UNL     1      46.345   6.536  11.431  0.00  0.00    +0.000 A 
ATOM      4  C   UNL     1      45.569   5.790  10.535  0.00  0.00    +0.000 A 
ATOM      5  C   UNL     1      44.998   4.562  10.890  0.00  0.00    +0.000 A 
ATOM      6  C   UNL     1      45.259   4.096  12.184  0.00  0.00    +0.000 A 
ATOM      7  C   UNL     1      46.018   4.849  13.100  0.00  0.00    +0.000 A 
BRANCH   5   8
ATOM      8  N   UNL     1      44.320   3.744   9.985  0.00  0.00    +0.000 N 
ATOM      9  H   UNL     1      43.420   3.388  10.305  0.00  0.00    +0.000 HD
BRANCH   8  10
ATOM     10  C   UNL     1      44.387   4.024   8.550  0.00  0.00    +0.000 C 
BRANCH  10  11
ATOM     11  C   UNL     1      45.114   2.913   7.774  0.00  0.00    +0.000 C 
ATOM     12  C   UNL     1      45.621   1.855   8.769  0.00  0.00    +0.000 C 
ATOM     13  O   UNL     1      46.307   0.797   8.085  0.00  0.00    +0.000 OA
ATOM     14  C   UNL     1      47.404   1.331   7.331  0.00  0.00    +0.000 C 
ATOM     15  C   UNL     1      46.906   2.382   6.339  0.00  0.00    +0.000 C 
ATOM     16  O   UNL     1      46.230   3.449   7.029  0.00  0.00    +0.000 OA
ENDBRANCH  10  11
ENDBRANCH   8  10
ENDBRANCH   5   8
ENDBRANCH   1   2
BRANCH   1  19
ATOM     17  C   UNL     1      48.729   6.201  15.716  0.00  0.00    +0.000 C 
ATOM     18  O   UNL     1      49.803   6.660  15.313  0.00  0.00    +0.000 OA
ATOM     19  N   UNL     1      47.598   6.243  14.948  0.00  0.00    +0.000 N 
ATOM     20  H   UNL     1      46.749   5.813  15.290  0.00  0.00    +0.000 HD
BRANCH  17  28
ATOM     21  C   UNL     1      48.018   7.471  18.808  0.00  0.00    +0.000 A 
ATOM     22  N   UNL     1      47.771   7.714  20.109  0.00  0.00    +0.000 NA
ATOM     23  C   UNL     1      47.780   6.685  20.946  0.00  0.00    +0.000 A 
ATOM     24  N   UNL     1      48.020   5.408  20.656  0.00  0.00    +0.000 NA
ATOM     25  C   UNL     1      48.283   5.209  19.353  0.00  0.00    +0.000 A 
ATOM     26  S   UNL     1      48.613   3.643  18.784  0.00  0.00    +0.000 S 
ATOM     27  C   UNL     1      48.808   4.209  17.188  0.00  0.00    +0.000 A 
ATOM     28  C   UNL     1      48.612   5.576  17.048  0.00  0.00    +0.000 A 
ATOM     29  C   UNL     1      48.306   6.172  18.348  0.00  0.00    +0.000 A 
BRANCH  21  31
ATOM     30  C   UNL     1      49.074   9.396  17.971  0.00  0.00    +0.000 C 
ATOM     31  O   UNL     1      47.949   8.525  17.933  0.00  0.00    +0.000 OA
ENDBRANCH  21  31
ENDBRANCH  17  28
ENDBRANCH   1  19
TORSDOF 7
ENDMDL
MODEL 6
REMARK VINA RESULT:    -6.862      2.139      3.615
REMARK INTER + INTRA:         -10.956
REMARK INTER:                  -9.830
REMARK INTRA:                  -1.126
REMARK UNBOUND:                -1.286
REMARK  Name = 
REMARK  8 active torsions:
REMARK  status: ('A' for Active; 'I' for Inactive)
REMARK    1  A    between atoms: C_1  and  O_2
REMARK    2  A    between atoms: O_2  and  C_3
REMARK    3  A    between atoms: C_10  and  C_11
REMARK    4  A    between atoms: N_13  and  C_14
REMARK    5  A    between atoms: C_14  and  C_15
REMARK    6  A    between atoms: C_18  and  N_19
REMARK    7  A    between atoms: N_19  and  C_20
REMARK    8  A    between atoms: C_20  and  C_21
REMARK                            x       y       z     vdW  Elec       q    Type
REMARK                         _______ _______ _______ _____ _____    ______ ____
ROOT
ATOM      1  C   UNL     1      47.061   4.338  15.028  0.00  0.00    +0.000 C 
ENDROOT
BRANCH   1   2
ATOM      2  C   UNL     1      46.449   4.587  13.668  0.00  0.00    +0.000 A 
ATOM      3  C   UNL     1      46.713   5.776  12.983  0.00  0.00    +0.000 A 
ATOM      4  C   UNL     1      46.227   5.981  11.686  0.00  0.00    +0.000 A 
ATOM      5  C   UNL     1      45.432   5.031  11.032  0.00  0.00    +0.000 A 
ATOM      6  C   UNL     1      45.164   3.846  11.727  0.00  0.00    +0.000 A 
ATOM      7  C   UNL     1      45.628   3.640  13.040  0.00  0.00    +0.000 A 
BRANCH   5   8
ATOM      8  N   UNL     1      45.031   5.157   9.700  0.00  0.00    +0.000 N 
ATOM      9  H   UNL     1      45.709   5.597   9.078  0.00  0.00    +0.000 HD
BRANCH   8  10
ATOM     10  C   UNL     1      44.223   4.108   9.075  0.00  0.00    +0.000 C 
BRANCH  10  11
ATOM     11  C   UNL     1      45.016   3.314   8.023  0.00  0.00    +0.000 C 
ATOM     12  C   UNL     1      45.636   2.076   8.691  0.00  0.00    +0.000 C 
ATOM     13  O   UNL     1      46.386   1.304   7.742  0.00  0.00    +0.000 OA
ATOM     14  C   UNL     1      47.413   2.114   7.154  0.00  0.00    +0.000 C 
ATOM     15  C   UNL     1      46.802   3.347   6.486  0.00  0.00    +0.000 C 
ATOM     16  O   UNL     1      46.062   4.126   7.443  0.00  0.00    +0.000 OA
ENDBRANCH  10  11
ENDBRANCH   8  10
ENDBRANCH   5   8
ENDBRANCH   1   2
BRANCH   1  19
ATOM     17  C   UNL     1      48.729   5.531  16.418  0.00  0.00    +0.000 C 
ATOM     18  O   UNL     1      49.285   4.485  16.768  0.00  0.00    +0.000 OA
ATOM     19  N   UNL     1      47.643   5.523  15.587  0.00  0.00    +0.000 N 
ATOM     20  H   UNL     1      47.182   6.394  15.361  0.00  0.00    +0.000 HD
BRANCH  17  28
ATOM     21  C   UNL     1      49.913   8.276  14.761  0.00  0.00    +0.000 A 
ATOM     22  N   UNL     1      50.406   9.462  14.359  0.00  0.00    +0.000 NA
ATOM     23  C   UNL     1      50.670  10.373  15.287  0.00  0.00    +0.000 A 
ATOM     24  N   UNL     1      50.516  10.255  16.604  0.00  0.00    +0.000 NA
ATOM     25  C   UNL     1      50.041   9.051  16.968  0.00  0.00    +0.000 A 
ATOM     26  S   UNL     1      49.773   8.707  18.610  0.00  0.00    +0.000 S 
ATOM     27  C   UNL     1      49.218   7.138  18.241  0.00  0.00    +0.000 A 
ATOM     28  C   UNL     1      49.205   6.848  16.884  0.00  0.00    +0.000 A 
ATOM     29  C   UNL     1      49.707   7.994  16.125  0.00  0.00    +0.000 A 
BRANCH  21  31
ATOM     30  C   UNL     1      49.898   7.757  12.470  0.00  0.00    +0.000 C 
ATOM     31  O   UNL     1      49.581   7.357  13.799  0.00  0.00    +0.000 OA
ENDBRANCH  21  31
ENDBRANCH  17  28
ENDBRANCH   1  19
TORSDOF 7
ENDMDL
MODEL 7
REMARK VINA RESULT:    -6.715      1.966      2.878
REMARK INTER + INTRA:         -10.749
REMARK INTER:                  -9.697
REMARK INTRA:                  -1.052
REMARK UNBOUND:                -1.286
REMARK  Name = 
REMARK  8 active torsions:
REMARK  status: ('A' for Active; 'I' for Inactive)
REMARK    1  A    between atoms: C_1  and  O_2
REMARK    2  A    between atoms: O_2  and  C_3
REMARK    3  A    between atoms: C_10  and  C_11
REMARK    4  A    between atoms: N_13  and  C_14
REMARK    5  A    between atoms: C_14  and  C_15
REMARK    6  A    between atoms: C_18  and  N_19
REMARK    7  A    between atoms: N_19  and  C_20
REMARK    8  A    between atoms: C_20  and  C_21
REMARK                            x       y       z     vdW  Elec       q    Type
REMARK                         _______ _______ _______ _____ _____    ______ ____
ROOT
ATOM      1  C   UNL     1      47.750   7.298  13.698  0.00  0.00    +0.000 C 
ENDROOT
BRANCH   1   2
ATOM      2  C   UNL     1      46.812   6.144  13.425  0.00  0.00    +0.000 A 
ATOM      3  C   UNL     1      45.531   6.381  12.919  0.00  0.00    +0.000 A 
ATOM      4  C   UNL     1      44.686   5.318  12.577  0.00  0.00    +0.000 A 
ATOM      5  C   UNL     1      45.063   3.981  12.755  0.00  0.00    +0.000 A 
ATOM      6  C   UNL     1      46.344   3.751  13.271  0.00  0.00    +0.000 A 
ATOM      7  C   UNL     1      47.193   4.812  13.640  0.00  0.00    +0.000 A 
BRANCH   5   8
ATOM      8  N   UNL     1      44.291   2.904  12.317  0.00  0.00    +0.000 N 
ATOM      9  H   UNL     1      43.653   2.512  13.009  0.00  0.00    +0.000 HD
BRANCH   8  10
ATOM     10  C   UNL     1      43.791   2.870  10.942  0.00  0.00    +0.000 C 
BRANCH  10  11
ATOM     11  C   UNL     1      44.922   3.019   9.910  0.00  0.00    +0.000 C 
ATOM     12  C   UNL     1      44.621   4.224   9.004  0.00  0.00    +0.000 C 
ATOM     13  O   UNL     1      45.655   4.399   8.025  0.00  0.00    +0.000 OA
ATOM     14  C   UNL     1      45.788   3.210   7.234  0.00  0.00    +0.000 C 
ATOM     15  C   UNL     1      46.090   2.007   8.130  0.00  0.00    +0.000 C 
ATOM     16  O   UNL     1      45.044   1.826   9.102  0.00  0.00    +0.000 OA
ENDBRANCH  10  11
ENDBRANCH   8  10
ENDBRANCH   5   8
ENDBRANCH   1   2
BRANCH   1  19
ATOM     17  C   UNL     1      49.252   7.451  15.662  0.00  0.00    +0.000 C 
ATOM     18  O   UNL     1      48.604   8.372  16.170  0.00  0.00    +0.000 OA
ATOM     19  N   UNL     1      48.894   6.899  14.464  0.00  0.00    +0.000 N 
ATOM     20  H   UNL     1      49.476   6.181  14.053  0.00  0.00    +0.000 HD
BRANCH  17  28
ATOM     21  C   UNL     1      49.914   4.422  17.099  0.00  0.00    +0.000 A 
ATOM     22  N   UNL     1      50.419   3.338  17.717  0.00  0.00    +0.000 NA
ATOM     23  C   UNL     1      51.676   3.391  18.137  0.00  0.00    +0.000 A 
ATOM     24  N   UNL     1      52.522   4.413  18.032  0.00  0.00    +0.000 NA
ATOM     25  C   UNL     1      51.975   5.483  17.429  0.00  0.00    +0.000 A 
ATOM     26  S   UNL     1      52.899   6.890  17.198  0.00  0.00    +0.000 S 
ATOM     27  C   UNL     1      51.596   7.680  16.435  0.00  0.00    +0.000 A 
ATOM     28  C   UNL     1      50.453   6.901  16.321  0.00  0.00    +0.000 A 
ATOM     29  C   UNL     1      50.682   5.589  16.925  0.00  0.00    +0.000 A 
BRANCH  21  31
ATOM     30  C   UNL     1      47.676   3.861  17.543  0.00  0.00    +0.000 C 
ATOM     31  O   UNL     1      48.635   4.346  16.610  0.00  0.00    +0.000 OA
ENDBRANCH  21  31
ENDBRANCH  17  28
ENDBRANCH   1  19
TORSDOF 7
ENDMDL
MODEL 8
REMARK VINA RESULT:    -6.700      2.796      3.515
REMARK INTER + INTRA:         -10.728
REMARK INTER:                  -9.568
REMARK INTRA:                  -1.159
REMARK UNBOUND:                -1.286
REMARK  Name = 
REMARK  8 active torsions:
REMARK  status: ('A' for Active; 'I' for Inactive)
REMARK    1  A    between atoms: C_1  and  O_2
REMARK    2  A    between atoms: O_2  and  C_3
REMARK    3  A    between atoms: C_10  and  C_11
REMARK    4  A    between atoms: N_13  and  C_14
REMARK    5  A    between atoms: C_14  and  C_15
REMARK    6  A    between atoms: C_18  and  N_19
REMARK    7  A    between atoms: N_19  and  C_20
REMARK    8  A    between atoms: C_20  and  C_21
REMARK                            x       y       z     vdW  Elec       q    Type
REMARK                         _______ _______ _______ _____ _____    ______ ____
ROOT
ATOM      1  C   UNL     1      47.800   5.080  14.790  0.00  0.00    +0.000 C 
ENDROOT
BRANCH   1   2
ATOM      2  C   UNL     1      46.961   5.182  13.538  0.00  0.00    +0.000 A 
ATOM      3  C   UNL     1      47.192   6.206  12.615  0.00  0.00    +0.000 A 
ATOM      4  C   UNL     1      46.484   6.259  11.408  0.00  0.00    +0.000 A 
ATOM      5  C   UNL     1      45.495   5.322  11.085  0.00  0.00    +0.000 A 
ATOM      6  C   UNL     1      45.262   4.304  12.018  0.00  0.00    +0.000 A 
ATOM      7  C   UNL     1      45.952   4.254  13.243  0.00  0.00    +0.000 A 
BRANCH   5   8
ATOM      8  N   UNL     1      44.856   5.282   9.844  0.00  0.00    +0.000 N 
ATOM      9  H   UNL     1      45.333   5.774   9.090  0.00  0.00    +0.000 HD
BRANCH   8  10
ATOM     10  C   UNL     1      44.140   4.076   9.426  0.00  0.00    +0.000 C 
BRANCH  10  11
ATOM     11  C   UNL     1      44.876   3.323   8.305  0.00  0.00    +0.000 C 
ATOM     12  C   UNL     1      45.545   2.071   8.895  0.00  0.00    +0.000 C 
ATOM     13  O   UNL     1      46.244   1.337   7.880  0.00  0.00    +0.000 OA
ATOM     14  C   UNL     1      47.228   2.176   7.258  0.00  0.00    +0.000 C 
ATOM     15  C   UNL     1      46.567   3.422   6.667  0.00  0.00    +0.000 C 
ATOM     16  O   UNL     1      45.878   4.163   7.691  0.00  0.00    +0.000 OA
ENDBRANCH  10  11
ENDBRANCH   8  10
ENDBRANCH   5   8
ENDBRANCH   1   2
BRANCH   1  19
ATOM     17  C   UNL     1      49.012   7.018  15.748  0.00  0.00    +0.000 C 
ATOM     18  O   UNL     1      50.112   6.602  15.370  0.00  0.00    +0.000 OA
ATOM     19  N   UNL     1      47.861   6.320  15.507  0.00  0.00    +0.000 N 
ATOM     20  H   UNL     1      46.984   6.664  15.875  0.00  0.00    +0.000 HD
BRANCH  17  28
ATOM     21  C   UNL     1      47.823   7.766  18.864  0.00  0.00    +0.000 A 
ATOM     22  N   UNL     1      47.413   8.317  20.021  0.00  0.00    +0.000 NA
ATOM     23  C   UNL     1      47.556   9.628  20.170  0.00  0.00    +0.000 A 
ATOM     24  N   UNL     1      48.055  10.493  19.291  0.00  0.00    +0.000 NA
ATOM     25  C   UNL     1      48.433   9.908  18.140  0.00  0.00    +0.000 A 
ATOM     26  S   UNL     1      49.099  10.847  16.891  0.00  0.00    +0.000 S 
ATOM     27  C   UNL     1      49.293   9.476  15.897  0.00  0.00    +0.000 A 
ATOM     28  C   UNL     1      48.882   8.289  16.487  0.00  0.00    +0.000 A 
ATOM     29  C   UNL     1      48.360   8.553  17.828  0.00  0.00    +0.000 A 
BRANCH  21  31
ATOM     30  C   UNL     1      48.840   5.687  19.269  0.00  0.00    +0.000 C 
ATOM     31  O   UNL     1      47.733   6.404  18.733  0.00  0.00    +0.000 OA
ENDBRANCH  21  31
ENDBRANCH  17  28
ENDBRANCH   1  19
TORSDOF 7
ENDMDL
MODEL 9
REMARK VINA RESULT:    -6.408      2.685      3.881
REMARK INTER + INTRA:         -10.316
REMARK INTER:                  -9.204
REMARK INTRA:                  -1.112
REMARK UNBOUND:                -1.286
REMARK  Name = 
REMARK  8 active torsions:
REMARK  status: ('A' for Active; 'I' for Inactive)
REMARK    1  A    between atoms: C_1  and  O_2
REMARK    2  A    between atoms: O_2  and  C_3
REMARK    3  A    between atoms: C_10  and  C_11
REMARK    4  A    between atoms: N_13  and  C_14
REMARK    5  A    between atoms: C_14  and  C_15
REMARK    6  A    between atoms: C_18  and  N_19
REMARK    7  A    between atoms: N_19  and  C_20
REMARK    8  A    between atoms: C_20  and  C_21
REMARK                            x       y       z     vdW  Elec       q    Type
REMARK                         _______ _______ _______ _____ _____    ______ ____
ROOT
ATOM      1  C   UNL     1      45.657   7.733  12.862  0.00  0.00    +0.000 C 
ENDROOT
BRANCH   1   2
ATOM      2  C   UNL     1      45.258   6.338  12.436  0.00  0.00    +0.000 A 
ATOM      3  C   UNL     1      44.266   6.154  11.468  0.00  0.00    +0.000 A 
ATOM      4  C   UNL     1      43.950   4.873  10.998  0.00  0.00    +0.000 A 
ATOM      5  C   UNL     1      44.579   3.724  11.493  0.00  0.00    +0.000 A 
ATOM      6  C   UNL     1      45.565   3.915  12.469  0.00  0.00    +0.000 A 
ATOM      7  C   UNL     1      45.873   5.196  12.965  0.00  0.00    +0.000 A 
BRANCH   5   8
ATOM      8  N   UNL     1      44.369   2.450  10.964  0.00  0.00    +0.000 N 
ATOM      9  H   UNL     1      43.765   1.840  11.515  0.00  0.00    +0.000 HD
BRANCH   8  10
ATOM     10  C   UNL     1      44.259   2.265   9.515  0.00  0.00    +0.000 C 
BRANCH  10  11
ATOM     11  C   UNL     1      45.634   2.254   8.826  0.00  0.00    +0.000 C 
ATOM     12  C   UNL     1      45.654   3.330   7.727  0.00  0.00    +0.000 C 
ATOM     13  O   UNL     1      46.923   3.354   7.058  0.00  0.00    +0.000 OA
ATOM     14  C   UNL     1      47.204   2.066   6.492  0.00  0.00    +0.000 C 
ATOM     15  C   UNL     1      47.187   0.992   7.581  0.00  0.00    +0.000 C 
ATOM     16  O   UNL     1      45.909   0.961   8.242  0.00  0.00    +0.000 OA
ENDBRANCH  10  11
ENDBRANCH   8  10
ENDBRANCH   5   8
ENDBRANCH   1   2
BRANCH   1  19
ATOM     17  C   UNL     1      47.655   9.156  12.512  0.00  0.00    +0.000 C 
ATOM     18  O   UNL     1      46.980  10.173  12.320  0.00  0.00    +0.000 OA
ATOM     19  N   UNL     1      47.072   7.946  12.767  0.00  0.00    +0.000 N 
ATOM     20  H   UNL     1      47.653   7.124  12.869  0.00  0.00    +0.000 HD
BRANCH  17  28
ATOM     21  C   UNL     1      50.055   8.074  14.691  0.00  0.00    +0.000 A 
ATOM     22  N   UNL     1      51.174   7.749  15.365  0.00  0.00    +0.000 NA
ATOM     23  C   UNL     1      52.342   8.025  14.800  0.00  0.00    +0.000 A 
ATOM     24  N   UNL     1      52.555   8.611  13.624  0.00  0.00    +0.000 NA
ATOM     25  C   UNL     1      51.415   8.939  12.991  0.00  0.00    +0.000 A 
ATOM     26  S   UNL     1      51.476   9.695  11.471  0.00  0.00    +0.000 S 
ATOM     27  C   UNL     1      49.776   9.753  11.376  0.00  0.00    +0.000 A 
ATOM     28  C   UNL     1      49.130   9.192  12.469  0.00  0.00    +0.000 A 
ATOM     29  C   UNL     1      50.116   8.714  13.438  0.00  0.00    +0.000 A 
BRANCH  21  31
ATOM     30  C   UNL     1      48.789   6.405  15.754  0.00  0.00    +0.000 C 
ATOM     31  O   UNL     1      48.848   7.733  15.245  0.00  0.00    +0.000 OA
ENDBRANCH  21  31
ENDBRANCH  17  28
ENDBRANCH   1  19
TORSDOF 7
ENDMDL
