MODEL 1
REMARK VINA RESULT:    -7.581      0.000      0.000
REMARK INTER + INTRA:         -10.001
REMARK INTER:                  -9.576
REMARK INTRA:                  -0.425
REMARK UNBOUND:                -0.425
REMARK  Name = 
REMARK  5 active torsions:
REMARK  status: ('A' for Active; 'I' for Inactive)
REMARK    1  A    between atoms: N_1  and  C_2
REMARK    2  A    between atoms: C_2  and  C_3
REMARK    3  A    between atoms: C_6  and  O_7
REMARK    4  A    between atoms: O_7  and  C_8
REMARK    5  A    between atoms: C_8  and  C_9
REMARK                            x       y       z     vdW  Elec       q    Type
REMARK                         _______ _______ _______ _____ _____    ______ ____
ROOT
ATOM      1  C   UNL     1      46.897   2.544   7.381  0.00  0.00    +0.000 A 
ATOM      2  C   UNL     1      46.462   3.859   7.619  0.00  0.00    +0.000 A 
ATOM      3  C   UNL     1      45.374   4.112   8.458  0.00  0.00    +0.000 A 
ATOM      4  C   UNL     1      44.713   3.063   9.093  0.00  0.00    +0.000 A 
ATOM      5  C   UNL     1      45.109   1.750   8.840  0.00  0.00    +0.000 A 
ATOM      6  C   UNL     1      46.200   1.495   8.000  0.00  0.00    +0.000 A 
ATOM      7 CL   UNL     1      46.664  -0.158   7.784  0.00  0.00    +0.000 Cl
ENDROOT
BRANCH   1   8
ATOM      8  C   UNL     1      48.114   2.324   6.519  0.00  0.00    +0.000 C 
BRANCH   8   9
ATOM      9  N   UNL     1      47.898   2.823   5.166  0.00  0.00    +0.000 NA
ATOM     10  H   UNL     1      47.732   3.827   5.204  0.00  0.00    +0.000 HD
ATOM     11  H   UNL     1      47.040   2.412   4.798  0.00  0.00    +0.000 HD
ENDBRANCH   8   9
ENDBRANCH   1   8
BRANCH   4  12
ATOM     12  O   UNL     1      43.698   3.435   9.932  0.00  0.00    +0.000 OA
BRANCH  12  13
ATOM     13  C   UNL     1      43.783   2.932  11.271  0.00  0.00    +0.000 C 
BRANCH  13  14
ATOM     14  C   UNL     1      44.733   3.779  12.092  0.00  0.00    +0.000 A 
ATOM     15  N   UNL     1      45.702   3.153  12.792  0.00  0.00    +0.000 NA
ATOM     16  C   UNL     1      46.545   3.944  13.486  0.00  0.00    +0.000 A 
ATOM     17  C   UNL     1      46.462   5.317  13.503  0.00  0.00    +0.000 A 
ATOM     18  C   UNL     1      45.443   5.857  12.757  0.00  0.00    +0.000 A 
ATOM     19  N   UNL     1      44.570   5.120  12.045  0.00  0.00    +0.000 NA
ENDBRANCH  13  14
ENDBRANCH  12  13
ENDBRANCH   4  12
TORSDOF 5
ENDMDL
MODEL 2
REMARK VINA RESULT:    -6.754      1.714      2.071
REMARK INTER + INTRA:          -8.956
REMARK INTER:                  -8.619
REMARK INTRA:                  -0.337
REMARK UNBOUND:                -0.425
REMARK  Name = 
REMARK  5 active torsions:
REMARK  status: ('A' for Active; 'I' for Inactive)
REMARK    1  A    between atoms: N_1  and  C_2
REMARK    2  A    between atoms: C_2  and  C_3
REMARK    3  A    between atoms: C_6  and  O_7
REMARK    4  A    between atoms: O_7  and  C_8
REMARK    5  A    between atoms: C_8  and  C_9
REMARK                            x       y       z     vdW  Elec       q    Type
REMARK                         _______ _______ _______ _____ _____    ______ ____
ROOT
ATOM      1  C   UNL     1      46.143   1.954   7.927  0.00  0.00    +0.000 A 
ATOM      2  C   UNL     1      45.290   1.510   8.952  0.00  0.00    +0.000 A 
ATOM      3  C   UNL     1      44.476   2.410   9.645  0.00  0.00    +0.000 A 
ATOM      4  C   UNL     1      44.477   3.763   9.314  0.00  0.00    +0.000 A 
ATOM      5  C   UNL     1      45.342   4.225   8.323  0.00  0.00    +0.000 A 
ATOM      6  C   UNL     1      46.159   3.325   7.628  0.00  0.00    +0.000 A 
ATOM      7 CL   UNL     1      47.161   3.971   6.373  0.00  0.00    +0.000 Cl
ENDROOT
BRANCH   1   8
ATOM      8  C   UNL     1      46.956   0.938   7.166  0.00  0.00    +0.000 C 
BRANCH   8   9
ATOM      9  N   UNL     1      46.809  -0.393   7.742  0.00  0.00    +0.000 NA
ATOM     10  H   UNL     1      47.643  -0.616   8.282  0.00  0.00    +0.000 HD
ATOM     11  H   UNL     1      46.775  -1.076   6.984  0.00  0.00    +0.000 HD
ENDBRANCH   8   9
ENDBRANCH   1   8
BRANCH   4  12
ATOM     12  O   UNL     1      43.599   4.538  10.023  0.00  0.00    +0.000 OA
BRANCH  12  13
ATOM     13  C   UNL     1      43.447   4.196  11.406  0.00  0.00    +0.000 C 
BRANCH  13  14
ATOM     14  C   UNL     1      44.631   4.694  12.205  0.00  0.00    +0.000 A 
ATOM     15  N   UNL     1      45.349   3.795  12.911  0.00  0.00    +0.000 NA
ATOM     16  C   UNL     1      46.412   4.275  13.586  0.00  0.00    +0.000 A 
ATOM     17  C   UNL     1      46.787   5.599  13.578  0.00  0.00    +0.000 A 
ATOM     18  C   UNL     1      45.994   6.432  12.829  0.00  0.00    +0.000 A 
ATOM     19  N   UNL     1      44.919   6.014  12.135  0.00  0.00    +0.000 NA
ENDBRANCH  13  14
ENDBRANCH  12  13
ENDBRANCH   4  12
TORSDOF 5
ENDMDL
MODEL 3
REMARK VINA RESULT:    -6.746      2.761      5.998
REMARK INTER + INTRA:          -8.946
REMARK INTER:                  -8.571
REMARK INTRA:                  -0.376
REMARK UNBOUND:                -0.425
REMARK  Name = 
REMARK  5 active torsions:
REMARK  status: ('A' for Active; 'I' for Inactive)
REMARK    1  A    between atoms: N_1  and  C_2
REMARK    2  A    between atoms: C_2  and  C_3
REMARK    3  A    between atoms: C_6  and  O_7
REMARK    4  A    between atoms: O_7  and  C_8
REMARK    5  A    between atoms: C_8  and  C_9
REMARK                            x       y       z     vdW  Elec       q    Type
REMARK                         _______ _______ _______ _____ _____    ______ ____
ROOT
ATOM      1  C   UNL     1      46.271   4.618  13.189  0.00  0.00    +0.000 A 
ATOM      2  C   UNL     1      45.579   3.464  12.785  0.00  0.00    +0.000 A 
ATOM      3  C   UNL     1      44.942   3.410  11.542  0.00  0.00    +0.000 A 
ATOM      4  C   UNL     1      45.002   4.495  10.670  0.00  0.00    +0.000 A 
ATOM      5  C   UNL     1      45.655   5.660  11.069  0.00  0.00    +0.000 A 
ATOM      6  C   UNL     1      46.294   5.716  12.314  0.00  0.00    +0.000 A 
ATOM      7 CL   UNL     1      47.131   7.177  12.710  0.00  0.00    +0.000 Cl
ENDROOT
BRANCH   1   8
ATOM      8  C   UNL     1      46.996   4.607  14.510  0.00  0.00    +0.000 C 
BRANCH   8   9
ATOM      9  N   UNL     1      47.556   3.290  14.793  0.00  0.00    +0.000 NA
ATOM     10  H   UNL     1      48.564   3.319  14.646  0.00  0.00    +0.000 HD
ATOM     11  H   UNL     1      47.193   2.627  14.108  0.00  0.00    +0.000 HD
ENDBRANCH   8   9
ENDBRANCH   1   8
BRANCH   4  12
ATOM     12  O   UNL     1      44.387   4.307   9.461  0.00  0.00    +0.000 OA
BRANCH  12  13
ATOM     13  C   UNL     1      44.369   2.958   8.978  0.00  0.00    +0.000 C 
BRANCH  13  14
ATOM     14  C   UNL     1      45.554   2.707   8.071  0.00  0.00    +0.000 A 
ATOM     15  N   UNL     1      46.201   1.527   8.178  0.00  0.00    +0.000 NA
ATOM     16  C   UNL     1      47.233   1.332   7.334  0.00  0.00    +0.000 A 
ATOM     17  C   UNL     1      47.635   2.253   6.394  0.00  0.00    +0.000 A 
ATOM     18  C   UNL     1      46.911   3.419   6.363  0.00  0.00    +0.000 A 
ATOM     19  N   UNL     1      45.873   3.674   7.181  0.00  0.00    +0.000 NA
ENDBRANCH  13  14
ENDBRANCH  12  13
ENDBRANCH   4  12
TORSDOF 5
ENDMDL
MODEL 4
REMARK VINA RESULT:    -6.448      2.943      5.868
REMARK INTER + INTRA:          -8.570
REMARK INTER:                  -8.282
REMARK INTRA:                  -0.288
REMARK UNBOUND:                -0.425
REMARK  Name = 
REMARK  5 active torsions:
REMARK  status: ('A' for Active; 'I' for Inactive)
REMARK    1  A    between atoms: N_1  and  C_2
REMARK    2  A    between atoms: C_2  and  C_3
REMARK    3  A    between atoms: C_6  and  O_7
REMARK    4  A    between atoms: O_7  and  C_8
REMARK    5  A    between atoms: C_8  and  C_9
REMARK                            x       y       z     vdW  Elec       q    Type
REMARK                         _______ _______ _______ _____ _____    ______ ____
ROOT
ATOM      1  C   UNL     1      47.035   6.178  12.937  0.00  0.00    +0.000 A 
ATOM      2  C   UNL     1      46.582   6.597  11.674  0.00  0.00    +0.000 A 
ATOM      3  C   UNL     1      45.679   5.821  10.944  0.00  0.00    +0.000 A 
ATOM      4  C   UNL     1      45.191   4.624  11.467  0.00  0.00    +0.000 A 
ATOM      5  C   UNL     1      45.657   4.177  12.702  0.00  0.00    +0.000 A 
ATOM      6  C   UNL     1      46.562   4.954  13.436  0.00  0.00    +0.000 A 
ATOM      7 CL   UNL     1      47.047   4.356  14.986  0.00  0.00    +0.000 Cl
ENDROOT
BRANCH   1   8
ATOM      8  C   UNL     1      47.960   7.079  13.715  0.00  0.00    +0.000 C 
BRANCH   8   9
ATOM      9  N   UNL     1      49.356   6.725  13.483  0.00  0.00    +0.000 NA
ATOM     10  H   UNL     1      49.870   7.561  13.212  0.00  0.00    +0.000 HD
ATOM     11  H   UNL     1      49.406   6.095  12.683  0.00  0.00    +0.000 HD
ENDBRANCH   8   9
ENDBRANCH   1   8
BRANCH   4  12
ATOM     12  O   UNL     1      44.272   3.978  10.686  0.00  0.00    +0.000 OA
BRANCH  12  13
ATOM     13  C   UNL     1      44.271   4.340   9.300  0.00  0.00    +0.000 C 
BRANCH  13  14
ATOM     14  C   UNL     1      45.245   3.475   8.530  0.00  0.00    +0.000 A 
ATOM     15  N   UNL     1      46.018   4.064   7.593  0.00  0.00    +0.000 NA
ATOM     16  C   UNL     1      46.893   3.266   6.949  0.00  0.00    +0.000 A 
ATOM     17  C   UNL     1      47.029   1.921   7.206  0.00  0.00    +0.000 A 
ATOM     18  C   UNL     1      46.199   1.418   8.178  0.00  0.00    +0.000 A 
ATOM     19  N   UNL     1      45.305   2.164   8.853  0.00  0.00    +0.000 NA
ENDBRANCH  13  14
ENDBRANCH  12  13
ENDBRANCH   4  12
TORSDOF 5
ENDMDL
MODEL 5
REMARK VINA RESULT:    -6.230      3.158      6.131
REMARK INTER + INTRA:          -8.294
REMARK INTER:                  -7.905
REMARK INTRA:                  -0.389
REMARK UNBOUND:                -0.425
REMARK  Name = 
REMARK  5 active torsions:
REMARK  status: ('A' for Active; 'I' for Inactive)
REMARK    1  A    between atoms: N_1  and  C_2
REMARK    2  A    between atoms: C_2  and  C_3
REMARK    3  A    between atoms: C_6  and  O_7
REMARK    4  A    between atoms: O_7  and  C_8
REMARK    5  A    between atoms: C_8  and  C_9
REMARK                            x       y       z     vdW  Elec       q    Type
REMARK                         _______ _______ _______ _____ _____    ______ ____
ROOT
ATOM      1  C   UNL     1      45.673   7.569  12.284  0.00  0.00    +0.000 A 
ATOM      2  C   UNL     1      44.573   7.275  11.460  0.00  0.00    +0.000 A 
ATOM      3  C   UNL     1      44.289   5.959  11.088  0.00  0.00    +0.000 A 
ATOM      4  C   UNL     1      45.080   4.908  11.547  0.00  0.00    +0.000 A 
ATOM      5  C   UNL     1      46.196   5.185  12.336  0.00  0.00    +0.000 A 
ATOM      6  C   UNL     1      46.482   6.503  12.711  0.00  0.00    +0.000 A 
ATOM      7 CL   UNL     1      47.850   6.756  13.740  0.00  0.00    +0.000 Cl
ENDROOT
BRANCH   1   8
ATOM      8  C   UNL     1      45.903   8.996  12.711  0.00  0.00    +0.000 C 
BRANCH   8   9
ATOM      9  N   UNL     1      44.660   9.759  12.688  0.00  0.00    +0.000 NA
ATOM     10  H   UNL     1      44.013   9.320  12.035  0.00  0.00    +0.000 HD
ATOM     11  H   UNL     1      44.852  10.686  12.310  0.00  0.00    +0.000 HD
ENDBRANCH   8   9
ENDBRANCH   1   8
BRANCH   4  12
ATOM     12  O   UNL     1      44.675   3.659  11.161  0.00  0.00    +0.000 OA
BRANCH  12  13
ATOM     13  C   UNL     1      44.128   3.565   9.840  0.00  0.00    +0.000 C 
BRANCH  13  14
ATOM     14  C   UNL     1      45.200   3.151   8.855  0.00  0.00    +0.000 A 
ATOM     15  N   UNL     1      45.569   1.853   8.822  0.00  0.00    +0.000 NA
ATOM     16  C   UNL     1      46.506   1.520   7.912  0.00  0.00    +0.000 A 
ATOM     17  C   UNL     1      47.075   2.419   7.039  0.00  0.00    +0.000 A 
ATOM     18  C   UNL     1      46.631   3.713   7.151  0.00  0.00    +0.000 A 
ATOM     19  N   UNL     1      45.701   4.108   8.041  0.00  0.00    +0.000 NA
ENDBRANCH  13  14
ENDBRANCH  12  13
ENDBRANCH   4  12
TORSDOF 5
ENDMDL
MODEL 6
REMARK VINA RESULT:    -5.851      4.744      6.443
REMARK INTER + INTRA:          -7.816
REMARK INTER:                  -7.548
REMARK INTRA:                  -0.267
REMARK UNBOUND:                -0.425
REMARK  Name = 
REMARK  5 active torsions:
REMARK  status: ('A' for Active; 'I' for Inactive)
REMARK    1  A    between atoms: N_1  and  C_2
REMARK    2  A    between atoms: C_2  and  C_3
REMARK    3  A    between atoms: C_6  and  O_7
REMARK    4  A    between atoms: O_7  and  C_8
REMARK    5  A    between atoms: C_8  and  C_9
REMARK                            x       y       z     vdW  Elec       q    Type
REMARK                         _______ _______ _______ _____ _____    ______ ____
ROOT
ATOM      1  C   UNL     1      44.587   5.132  11.879  0.00  0.00    +0.000 A 
ATOM      2  C   UNL     1      44.748   3.738  11.937  0.00  0.00    +0.000 A 
ATOM      3  C   UNL     1      45.720   3.163  12.760  0.00  0.00    +0.000 A 
ATOM      4  C   UNL     1      46.533   3.964  13.559  0.00  0.00    +0.000 A 
ATOM      5  C   UNL     1      46.410   5.351  13.488  0.00  0.00    +0.000 A 
ATOM      6  C   UNL     1      45.436   5.929  12.664  0.00  0.00    +0.000 A 
ATOM      7 CL   UNL     1      45.309   7.655  12.677  0.00  0.00    +0.000 Cl
ENDROOT
BRANCH   1   8
ATOM      8  C   UNL     1      43.484   5.704  11.026  0.00  0.00    +0.000 C 
BRANCH   8   9
ATOM      9  N   UNL     1      42.273   5.923  11.808  0.00  0.00    +0.000 NA
ATOM     10  H   UNL     1      41.560   5.259  11.511  0.00  0.00    +0.000 HD
ATOM     11  H   UNL     1      41.903   6.847  11.586  0.00  0.00    +0.000 HD
ENDBRANCH   8   9
ENDBRANCH   1   8
BRANCH   4  12
ATOM     12  O   UNL     1      47.410   3.288  14.363  0.00  0.00    +0.000 OA
BRANCH  12  13
ATOM     13  C   UNL     1      47.390   3.653  15.748  0.00  0.00    +0.000 C 
BRANCH  13  14
ATOM     14  C   UNL     1      48.703   3.290  16.407  0.00  0.00    +0.000 A 
ATOM     15  N   UNL     1      49.179   2.038  16.237  0.00  0.00    +0.000 NA
ATOM     16  C   UNL     1      50.364   1.763  16.816  0.00  0.00    +0.000 A 
ATOM     17  C   UNL     1      51.088   2.680  17.544  0.00  0.00    +0.000 A 
ATOM     18  C   UNL     1      50.520   3.925  17.657  0.00  0.00    +0.000 A 
ATOM     19  N   UNL     1      49.340   4.259  17.104  0.00  0.00    +0.000 NA
ENDBRANCH  13  14
ENDBRANCH  12  13
ENDBRANCH   4  12
TORSDOF 5
ENDMDL
MODEL 7
REMARK VINA RESULT:    -5.536      4.854      6.159
REMARK INTER + INTRA:          -7.418
REMARK INTER:                  -7.111
REMARK INTRA:                  -0.306
REMARK UNBOUND:                -0.425
REMARK  Name = 
REMARK  5 active torsions:
REMARK  status: ('A' for Active; 'I' for Inactive)
REMARK    1  A    between atoms: N_1  and  C_2
REMARK    2  A    between atoms: C_2  and  C_3
REMARK    3  A    between atoms: C_6  and  O_7
REMARK    4  A    between atoms: O_7  and  C_8
REMARK    5  A    between atoms: C_8  and  C_9
REMARK                            x       y       z     vdW  Elec       q    Type
REMARK                         _______ _______ _______ _____ _____    ______ ____
ROOT
ATOM      1  C   UNL     1      44.178   5.732  12.129  0.00  0.00    +0.000 A 
ATOM      2  C   UNL     1      45.015   6.846  12.307  0.00  0.00    +0.000 A 
ATOM      3  C   UNL     1      46.266   6.712  12.915  0.00  0.00    +0.000 A 
ATOM      4  C   UNL     1      46.717   5.462  13.335  0.00  0.00    +0.000 A 
ATOM      5  C   UNL     1      45.884   4.352  13.198  0.00  0.00    +0.000 A 
ATOM      6  C   UNL     1      44.631   4.485  12.588  0.00  0.00    +0.000 A 
ATOM      7 CL   UNL     1      43.683   3.049  12.403  0.00  0.00    +0.000 Cl
ENDROOT
BRANCH   1   8
ATOM      8  C   UNL     1      42.865   5.914  11.411  0.00  0.00    +0.000 C 
BRANCH   8   9
ATOM      9  N   UNL     1      42.620   7.321  11.112  0.00  0.00    +0.000 NA
ATOM     10  H   UNL     1      43.268   7.893  11.650  0.00  0.00    +0.000 HD
ATOM     11  H   UNL     1      41.687   7.568  11.444  0.00  0.00    +0.000 HD
ENDBRANCH   8   9
ENDBRANCH   1   8
BRANCH   4  12
ATOM     12  O   UNL     1      47.978   5.445  13.866  0.00  0.00    +0.000 OA
BRANCH  12  13
ATOM     13  C   UNL     1      48.115   6.050  15.158  0.00  0.00    +0.000 C 
BRANCH  13  14
ATOM     14  C   UNL     1      48.251   4.986  16.226  0.00  0.00    +0.000 A 
ATOM     15  N   UNL     1      47.163   4.251  16.536  0.00  0.00    +0.000 NA
ATOM     16  C   UNL     1      47.333   3.295  17.472  0.00  0.00    +0.000 A 
ATOM     17  C   UNL     1      48.533   3.044  18.096  0.00  0.00    +0.000 A 
ATOM     18  C   UNL     1      49.579   3.845  17.709  0.00  0.00    +0.000 A 
ATOM     19  N   UNL     1      49.472   4.816  16.784  0.00  0.00    +0.000 NA
ENDBRANCH  13  14
ENDBRANCH  12  13
ENDBRANCH   4  12
TORSDOF 5
ENDMDL
MODEL 8
REMARK VINA RESULT:    -5.524      5.094      8.549
REMARK INTER + INTRA:          -7.402
REMARK INTER:                  -7.074
REMARK INTRA:                  -0.328
REMARK UNBOUND:                -0.425
REMARK  Name = 
REMARK  5 active torsions:
REMARK  status: ('A' for Active; 'I' for Inactive)
REMARK    1  A    between atoms: N_1  and  C_2
REMARK    2  A    between atoms: C_2  and  C_3
REMARK    3  A    between atoms: C_6  and  O_7
REMARK    4  A    between atoms: O_7  and  C_8
REMARK    5  A    between atoms: C_8  and  C_9
REMARK                            x       y       z     vdW  Elec       q    Type
REMARK                         _______ _______ _______ _____ _____    ______ ____
ROOT
ATOM      1  C   UNL     1      48.768   4.213  18.400  0.00  0.00    +0.000 A 
ATOM      2  C   UNL     1      48.816   2.908  17.882  0.00  0.00    +0.000 A 
ATOM      3  C   UNL     1      48.303   2.622  16.614  0.00  0.00    +0.000 A 
ATOM      4  C   UNL     1      47.755   3.635  15.829  0.00  0.00    +0.000 A 
ATOM      5  C   UNL     1      47.668   4.928  16.341  0.00  0.00    +0.000 A 
ATOM      6  C   UNL     1      48.182   5.217  17.612  0.00  0.00    +0.000 A 
ATOM      7 CL   UNL     1      48.088   6.858  18.151  0.00  0.00    +0.000 Cl
ENDROOT
BRANCH   1   8
ATOM      8  C   UNL     1      49.390   4.486  19.746  0.00  0.00    +0.000 C 
BRANCH   8   9
ATOM      9  N   UNL     1      48.557   3.970  20.825  0.00  0.00    +0.000 NA
ATOM     10  H   UNL     1      47.589   3.932  20.509  0.00  0.00    +0.000 HD
ATOM     11  H   UNL     1      48.572   4.637  21.598  0.00  0.00    +0.000 HD
ENDBRANCH   8   9
ENDBRANCH   1   8
BRANCH   4  12
ATOM     12  O   UNL     1      47.335   3.246  14.585  0.00  0.00    +0.000 OA
BRANCH  12  13
ATOM     13  C   UNL     1      47.118   4.306  13.645  0.00  0.00    +0.000 C 
BRANCH  13  14
ATOM     14  C   UNL     1      45.682   4.298  13.167  0.00  0.00    +0.000 A 
ATOM     15  N   UNL     1      44.964   5.435  13.284  0.00  0.00    +0.000 NA
ATOM     16  C   UNL     1      43.699   5.396  12.820  0.00  0.00    +0.000 A 
ATOM     17  C   UNL     1      43.132   4.282  12.245  0.00  0.00    +0.000 A 
ATOM     18  C   UNL     1      43.945   3.178  12.170  0.00  0.00    +0.000 A 
ATOM     19  N   UNL     1      45.214   3.155  12.617  0.00  0.00    +0.000 NA
ENDBRANCH  13  14
ENDBRANCH  12  13
ENDBRANCH   4  12
TORSDOF 5
ENDMDL
MODEL 9
REMARK VINA RESULT:    -5.377      3.612      6.572
REMARK INTER + INTRA:          -7.217
REMARK INTER:                  -6.872
REMARK INTRA:                  -0.344
REMARK UNBOUND:                -0.425
REMARK  Name = 
REMARK  5 active torsions:
REMARK  status: ('A' for Active; 'I' for Inactive)
REMARK    1  A    between atoms: N_1  and  C_2
REMARK    2  A    between atoms: C_2  and  C_3
REMARK    3  A    between atoms: C_6  and  O_7
REMARK    4  A    between atoms: O_7  and  C_8
REMARK    5  A    between atoms: C_8  and  C_9
REMARK                            x       y       z     vdW  Elec       q    Type
REMARK                         _______ _______ _______ _____ _____    ______ ____
ROOT
ATOM      1  C   UNL     1      48.446   7.137  13.620  0.00  0.00    +0.000 A 
ATOM      2  C   UNL     1      47.853   6.034  14.258  0.00  0.00    +0.000 A 
ATOM      3  C   UNL     1      46.846   5.299  13.628  0.00  0.00    +0.000 A 
ATOM      4  C   UNL     1      46.427   5.633  12.342  0.00  0.00    +0.000 A 
ATOM      5  C   UNL     1      46.979   6.746  11.709  0.00  0.00    +0.000 A 
ATOM      6  C   UNL     1      47.989   7.484  12.339  0.00  0.00    +0.000 A 
ATOM      7 CL   UNL     1      48.663   8.814  11.462  0.00  0.00    +0.000 Cl
ENDROOT
BRANCH   1   8
ATOM      8  C   UNL     1      49.572   7.861  14.313  0.00  0.00    +0.000 C 
BRANCH   8   9
ATOM      9  N   UNL     1      50.539   6.921  14.868  0.00  0.00    +0.000 NA
ATOM     10  H   UNL     1      50.048   6.240  15.445  0.00  0.00    +0.000 HD
ATOM     11  H   UNL     1      51.161   7.426  15.500  0.00  0.00    +0.000 HD
ENDBRANCH   8   9
ENDBRANCH   1   8
BRANCH   4  12
ATOM     12  O   UNL     1      45.474   4.810  11.806  0.00  0.00    +0.000 OA
BRANCH  12  13
ATOM     13  C   UNL     1      44.958   5.207  10.529  0.00  0.00    +0.000 C 
BRANCH  13  14
ATOM     14  C   UNL     1      45.335   4.194   9.470  0.00  0.00    +0.000 A 
ATOM     15  N   UNL     1      45.925   4.640   8.342  0.00  0.00    +0.000 NA
ATOM     16  C   UNL     1      46.272   3.704   7.436  0.00  0.00    +0.000 A 
ATOM     17  C   UNL     1      46.061   2.355   7.614  0.00  0.00    +0.000 A 
ATOM     18  C   UNL     1      45.456   2.004   8.796  0.00  0.00    +0.000 A 
ATOM     19  N   UNL     1      45.086   2.892   9.737  0.00  0.00    +0.000 NA
ENDBRANCH  13  14
ENDBRANCH  12  13
ENDBRANCH   4  12
TORSDOF 5
ENDMDL
