MODEL 1
REMARK VINA RESULT:    -7.564      0.000      0.000
REMARK INTER + INTRA:         -11.649
REMARK INTER:                 -10.660
REMARK INTRA:                  -0.989
REMARK UNBOUND:                -0.989
REMARK  Name = 
REMARK  8 active torsions:
REMARK  status: ('A' for Active; 'I' for Inactive)
REMARK    1  A    between atoms: N_1  and  C_2
REMARK    2  A    between atoms: C_2  and  C_3
REMARK    3  A    between atoms: C_3  and  C_4
REMARK    4  A    between atoms: C_7  and  C_8
REMARK    5  A    between atoms: C_8  and  N_9
REMARK    6  A    between atoms: C_14  and  C_15
REMARK    7  A    between atoms: C_15  and  O_17
REMARK    8  A    between atoms: C_19  and  C_20
REMARK                            x       y       z     vdW  Elec       q    Type
REMARK                         _______ _______ _______ _____ _____    ______ ____
ROOT
ATOM      1  N   UNL     1      45.437   4.411  12.506  0.00  0.00    +0.000 N 
ATOM      2  C   UNL     1      45.904   3.211  12.983  0.00  0.00    +0.000 A 
ATOM      3  N   UNL     1      46.939   3.355  13.770  0.00  0.00    +0.000 NA
ATOM      4  C   UNL     1      47.161   4.700  13.817  0.00  0.00    +0.000 A 
ATOM      5  C   UNL     1      48.181   5.354  14.514  0.00  0.00    +0.000 A 
ATOM      6  C   UNL     1      48.280   6.739  14.407  0.00  0.00    +0.000 A 
ATOM      7  C   UNL     1      47.321   7.457  13.679  0.00  0.00    +0.000 A 
ATOM      8  C   UNL     1      46.255   6.829  12.984  0.00  0.00    +0.000 A 
ATOM      9  C   UNL     1      46.229   5.413  13.053  0.00  0.00    +0.000 A 
ENDROOT
BRANCH   8  10
ATOM     10  C   UNL     1      45.246   7.689  12.261  0.00  0.00    +0.000 C 
ATOM     11  F   UNL     1      45.425   7.738  10.913  0.00  0.00    +0.000 F 
ATOM     12  F   UNL     1      43.968   7.252  12.449  0.00  0.00    +0.000 F 
ATOM     13  F   UNL     1      45.265   8.980  12.687  0.00  0.00    +0.000 F 
ENDBRANCH   8  10
BRANCH   6  14
ATOM     14  C   UNL     1      49.365   7.487  15.084  0.00  0.00    +0.000 C 
ATOM     15  O   UNL     1      49.154   8.488  15.750  0.00  0.00    +0.000 OA
BRANCH  14  16
ATOM     16  O   UNL     1      50.603   7.005  14.853  0.00  0.00    +0.000 OA
ATOM     17  H   UNL     1      50.890   6.271  15.428  0.00  0.00    +0.000 HD
ENDBRANCH  14  16
ENDBRANCH   6  14
BRANCH   1  18
ATOM     18  C   UNL     1      44.382   4.556  11.499  0.00  0.00    +0.000 C 
BRANCH  18  22
ATOM     19  C   UNL     1      45.886   3.353   7.630  0.00  0.00    +0.000 A 
ATOM     20  C   UNL     1      46.124   4.651   8.105  0.00  0.00    +0.000 A 
ATOM     21  C   UNL     1      45.594   5.069   9.328  0.00  0.00    +0.000 A 
ATOM     22  C   UNL     1      44.826   4.190  10.106  0.00  0.00    +0.000 A 
ATOM     23  C   UNL     1      44.560   2.914   9.603  0.00  0.00    +0.000 A 
ATOM     24  F   UNL     1      43.816   2.060  10.320  0.00  0.00    +0.000 F 
ATOM     25  C   UNL     1      45.076   2.493   8.381  0.00  0.00    +0.000 A 
BRANCH  19  26
ATOM     26  C   UNL     1      46.478   2.894   6.320  0.00  0.00    +0.000 C 
BRANCH  26  27
ATOM     27  C   UNL     1      47.417   1.701   6.514  0.00  0.00    +0.000 C 
BRANCH  27  28
ATOM     28  N   UNL     1      48.599   1.813   5.662  0.00  0.00    +0.000 NA
ATOM     29  H   UNL     1      48.655   0.991   5.060  0.00  0.00    +0.000 HD
ATOM     30  H   UNL     1      49.439   1.800   6.237  0.00  0.00    +0.000 HD
ENDBRANCH  27  28
ENDBRANCH  26  27
ENDBRANCH  19  26
ENDBRANCH  18  22
ENDBRANCH   1  18
TORSDOF 8
ENDMDL
MODEL 2
REMARK VINA RESULT:    -7.489      1.937      2.675
REMARK INTER + INTRA:         -11.543
REMARK INTER:                 -10.488
REMARK INTRA:                  -1.055
REMARK UNBOUND:                -0.989
REMARK  Name = 
REMARK  8 active torsions:
REMARK  status: ('A' for Active; 'I' for Inactive)
REMARK    1  A    between atoms: N_1  and  C_2
REMARK    2  A    between atoms: C_2  and  C_3
REMARK    3  A    between atoms: C_3  and  C_4
REMARK    4  A    between atoms: C_7  and  C_8
REMARK    5  A    between atoms: C_8  and  N_9
REMARK    6  A    between atoms: C_14  and  C_15
REMARK    7  A    between atoms: C_15  and  O_17
REMARK    8  A    between atoms: C_19  and  C_20
REMARK                            x       y       z     vdW  Elec       q    Type
REMARK                         _______ _______ _______ _____ _____    ______ ____
ROOT
ATOM      1  N   UNL     1      44.926   6.495  11.744  0.00  0.00    +0.000 N 
ATOM      2  C   UNL     1      44.792   7.813  11.387  0.00  0.00    +0.000 A 
ATOM      3  N   UNL     1      45.655   8.586  11.994  0.00  0.00    +0.000 NA
ATOM      4  C   UNL     1      46.389   7.745  12.778  0.00  0.00    +0.000 A 
ATOM      5  C   UNL     1      47.428   8.103  13.642  0.00  0.00    +0.000 A 
ATOM      6  C   UNL     1      48.035   7.107  14.404  0.00  0.00    +0.000 A 
ATOM      7  C   UNL     1      47.660   5.768  14.234  0.00  0.00    +0.000 A 
ATOM      8  C   UNL     1      46.631   5.364  13.344  0.00  0.00    +0.000 A 
ATOM      9  C   UNL     1      45.984   6.412  12.642  0.00  0.00    +0.000 A 
ENDROOT
BRANCH   8  10
ATOM     10  C   UNL     1      46.325   3.893  13.198  0.00  0.00    +0.000 C 
ATOM     11  F   UNL     1      46.595   3.391  11.962  0.00  0.00    +0.000 F 
ATOM     12  F   UNL     1      47.040   3.129  14.072  0.00  0.00    +0.000 F 
ATOM     13  F   UNL     1      45.017   3.609  13.437  0.00  0.00    +0.000 F 
ENDBRANCH   8  10
BRANCH   6  14
ATOM     14  C   UNL     1      49.110   7.427  15.371  0.00  0.00    +0.000 C 
ATOM     15  O   UNL     1      48.972   8.261  16.252  0.00  0.00    +0.000 OA
BRANCH  14  16
ATOM     16  O   UNL     1      50.266   6.765  15.159  0.00  0.00    +0.000 OA
ATOM     17  H   UNL     1      50.947   6.862  15.851  0.00  0.00    +0.000 HD
ENDBRANCH  14  16
ENDBRANCH   6  14
BRANCH   1  18
ATOM     18  C   UNL     1      44.015   5.422  11.335  0.00  0.00    +0.000 C 
BRANCH  18  22
ATOM     19  C   UNL     1      45.729   2.922   8.254  0.00  0.00    +0.000 A 
ATOM     20  C   UNL     1      46.029   4.291   8.296  0.00  0.00    +0.000 A 
ATOM     21  C   UNL     1      45.436   5.120   9.252  0.00  0.00    +0.000 A 
ATOM     22  C   UNL     1      44.540   4.589  10.194  0.00  0.00    +0.000 A 
ATOM     23  C   UNL     1      44.219   3.233  10.115  0.00  0.00    +0.000 A 
ATOM     24  F   UNL     1      43.355   2.704  10.993  0.00  0.00    +0.000 F 
ATOM     25  C   UNL     1      44.797   2.403   9.160  0.00  0.00    +0.000 A 
BRANCH  19  26
ATOM     26  C   UNL     1      46.389   2.024   7.236  0.00  0.00    +0.000 C 
BRANCH  26  27
ATOM     27  C   UNL     1      47.799   2.508   6.889  0.00  0.00    +0.000 C 
BRANCH  27  28
ATOM     28  N   UNL     1      48.365   1.740   5.782  0.00  0.00    +0.000 NA
ATOM     29  H   UNL     1      49.317   1.461   6.022  0.00  0.00    +0.000 HD
ATOM     30  H   UNL     1      48.444   2.332   4.958  0.00  0.00    +0.000 HD
ENDBRANCH  27  28
ENDBRANCH  26  27
ENDBRANCH  19  26
ENDBRANCH  18  22
ENDBRANCH   1  18
TORSDOF 8
ENDMDL
MODEL 3
REMARK VINA RESULT:    -6.217      1.934      2.458
REMARK INTER + INTRA:          -9.750
REMARK INTER:                  -8.725
REMARK INTRA:                  -1.025
REMARK UNBOUND:                -0.989
REMARK  Name = 
REMARK  8 active torsions:
REMARK  status: ('A' for Active; 'I' for Inactive)
REMARK    1  A    between atoms: N_1  and  C_2
REMARK    2  A    between atoms: C_2  and  C_3
REMARK    3  A    between atoms: C_3  and  C_4
REMARK    4  A    between atoms: C_7  and  C_8
REMARK    5  A    between atoms: C_8  and  N_9
REMARK    6  A    between atoms: C_14  and  C_15
REMARK    7  A    between atoms: C_15  and  O_17
REMARK    8  A    between atoms: C_19  and  C_20
REMARK                            x       y       z     vdW  Elec       q    Type
REMARK                         _______ _______ _______ _____ _____    ______ ____
ROOT
ATOM      1  N   UNL     1      46.272   6.359  13.215  0.00  0.00    +0.000 N 
ATOM      2  C   UNL     1      47.003   5.358  13.804  0.00  0.00    +0.000 A 
ATOM      3  N   UNL     1      48.227   5.728  14.078  0.00  0.00    +0.000 NA
ATOM      4  C   UNL     1      48.306   7.022  13.658  0.00  0.00    +0.000 A 
ATOM      5  C   UNL     1      49.430   7.852  13.714  0.00  0.00    +0.000 A 
ATOM      6  C   UNL     1      49.336   9.139  13.190  0.00  0.00    +0.000 A 
ATOM      7  C   UNL     1      48.110   9.608  12.698  0.00  0.00    +0.000 A 
ATOM      8  C   UNL     1      46.941   8.804  12.653  0.00  0.00    +0.000 A 
ATOM      9  C   UNL     1      47.093   7.476  13.125  0.00  0.00    +0.000 A 
ENDROOT
BRANCH   8  10
ATOM     10  C   UNL     1      45.656   9.411  12.143  0.00  0.00    +0.000 C 
ATOM     11  F   UNL     1      45.777  10.702  11.731  0.00  0.00    +0.000 F 
ATOM     12  F   UNL     1      45.153   8.729  11.075  0.00  0.00    +0.000 F 
ATOM     13  F   UNL     1      44.673   9.410  13.083  0.00  0.00    +0.000 F 
ENDBRANCH   8  10
BRANCH   6  14
ATOM     14  C   UNL     1      50.503  10.051  13.178  0.00  0.00    +0.000 C 
ATOM     15  O   UNL     1      50.491  11.122  12.592  0.00  0.00    +0.000 OA
BRANCH  14  16
ATOM     16  O   UNL     1      51.591   9.573  13.815  0.00  0.00    +0.000 OA
ATOM     17  H   UNL     1      51.597   9.675  14.786  0.00  0.00    +0.000 HD
ENDBRANCH  14  16
ENDBRANCH   6  14
BRANCH   1  18
ATOM     18  C   UNL     1      44.920   6.198  12.673  0.00  0.00    +0.000 C 
BRANCH  18  22
ATOM     19  C   UNL     1      44.993   3.612   9.211  0.00  0.00    +0.000 A 
ATOM     20  C   UNL     1      45.640   4.855   9.173  0.00  0.00    +0.000 A 
ATOM     21  C   UNL     1      45.574   5.725  10.266  0.00  0.00    +0.000 A 
ATOM     22  C   UNL     1      44.870   5.358  11.423  0.00  0.00    +0.000 A 
ATOM     23  C   UNL     1      44.195   4.135  11.432  0.00  0.00    +0.000 A 
ATOM     24  F   UNL     1      43.502   3.768  12.519  0.00  0.00    +0.000 F 
ATOM     25  C   UNL     1      44.247   3.269  10.345  0.00  0.00    +0.000 A 
BRANCH  19  26
ATOM     26  C   UNL     1      45.084   2.664   8.039  0.00  0.00    +0.000 C 
BRANCH  26  27
ATOM     27  C   UNL     1      46.006   1.481   8.344  0.00  0.00    +0.000 C 
BRANCH  27  28
ATOM     28  N   UNL     1      47.072   1.372   7.351  0.00  0.00    +0.000 NA
ATOM     29  H   UNL     1      47.500   2.288   7.218  0.00  0.00    +0.000 HD
ATOM     30  H   UNL     1      46.676   1.113   6.449  0.00  0.00    +0.000 HD
ENDBRANCH  27  28
ENDBRANCH  26  27
ENDBRANCH  19  26
ENDBRANCH  18  22
ENDBRANCH   1  18
TORSDOF 8
ENDMDL
MODEL 4
REMARK VINA RESULT:    -6.032      1.956      2.650
REMARK INTER + INTRA:          -9.490
REMARK INTER:                  -8.801
REMARK INTRA:                  -0.689
REMARK UNBOUND:                -0.989
REMARK  Name = 
REMARK  8 active torsions:
REMARK  status: ('A' for Active; 'I' for Inactive)
REMARK    1  A    between atoms: N_1  and  C_2
REMARK    2  A    between atoms: C_2  and  C_3
REMARK    3  A    between atoms: C_3  and  C_4
REMARK    4  A    between atoms: C_7  and  C_8
REMARK    5  A    between atoms: C_8  and  N_9
REMARK    6  A    between atoms: C_14  and  C_15
REMARK    7  A    between atoms: C_15  and  O_17
REMARK    8  A    between atoms: C_19  and  C_20
REMARK                            x       y       z     vdW  Elec       q    Type
REMARK                         _______ _______ _______ _____ _____    ______ ____
ROOT
ATOM      1  N   UNL     1      45.594   4.867  12.426  0.00  0.00    +0.000 N 
ATOM      2  C   UNL     1      46.766   4.548  13.065  0.00  0.00    +0.000 A 
ATOM      3  N   UNL     1      47.469   5.605  13.380  0.00  0.00    +0.000 NA
ATOM      4  C   UNL     1      46.731   6.663  12.936  0.00  0.00    +0.000 A 
ATOM      5  C   UNL     1      47.075   8.015  13.019  0.00  0.00    +0.000 A 
ATOM      6  C   UNL     1      46.213   8.958  12.465  0.00  0.00    +0.000 A 
ATOM      7  C   UNL     1      44.990   8.552  11.914  0.00  0.00    +0.000 A 
ATOM      8  C   UNL     1      44.594   7.191  11.840  0.00  0.00    +0.000 A 
ATOM      9  C   UNL     1      45.530   6.253  12.345  0.00  0.00    +0.000 A 
ENDROOT
BRANCH   8  10
ATOM     10  C   UNL     1      43.238   6.854  11.266  0.00  0.00    +0.000 C 
ATOM     11  F   UNL     1      42.447   6.130  12.103  0.00  0.00    +0.000 F 
ATOM     12  F   UNL     1      42.520   7.969  10.951  0.00  0.00    +0.000 F 
ATOM     13  F   UNL     1      43.327   6.130  10.118  0.00  0.00    +0.000 F 
ENDBRANCH   8  10
BRANCH   6  14
ATOM     14  C   UNL     1      46.541  10.402  12.480  0.00  0.00    +0.000 C 
ATOM     15  O   UNL     1      47.664  10.817  12.718  0.00  0.00    +0.000 OA
BRANCH  14  16
ATOM     16  O   UNL     1      45.487  11.216  12.268  0.00  0.00    +0.000 OA
ATOM     17  H   UNL     1      44.768  10.850  11.719  0.00  0.00    +0.000 HD
ENDBRANCH  14  16
ENDBRANCH   6  14
BRANCH   1  18
ATOM     18  C   UNL     1      44.673   3.894  11.834  0.00  0.00    +0.000 C 
BRANCH  18  22
ATOM     19  C   UNL     1      45.682   2.925   7.744  0.00  0.00    +0.000 A 
ATOM     20  C   UNL     1      46.068   4.158   8.291  0.00  0.00    +0.000 A 
ATOM     21  C   UNL     1      45.698   4.506   9.593  0.00  0.00    +0.000 A 
ATOM     22  C   UNL     1      44.944   3.619  10.377  0.00  0.00    +0.000 A 
ATOM     23  C   UNL     1      44.530   2.413   9.807  0.00  0.00    +0.000 A 
ATOM     24  F   UNL     1      43.796   1.555  10.529  0.00  0.00    +0.000 F 
ATOM     25  C   UNL     1      44.886   2.064   8.508  0.00  0.00    +0.000 A 
BRANCH  19  26
ATOM     26  C   UNL     1      46.102   2.541   6.346  0.00  0.00    +0.000 C 
BRANCH  26  27
ATOM     27  C   UNL     1      47.571   2.884   6.087  0.00  0.00    +0.000 C 
BRANCH  27  28
ATOM     28  N   UNL     1      48.349   1.683   5.790  0.00  0.00    +0.000 NA
ATOM     29  H   UNL     1      47.732   0.872   5.810  0.00  0.00    +0.000 HD
ATOM     30  H   UNL     1      49.039   1.531   6.523  0.00  0.00    +0.000 HD
ENDBRANCH  27  28
ENDBRANCH  26  27
ENDBRANCH  19  26
ENDBRANCH  18  22
ENDBRANCH   1  18
TORSDOF 8
ENDMDL
MODEL 5
REMARK VINA RESULT:    -5.947      4.269      6.615
REMARK INTER + INTRA:          -9.370
REMARK INTER:                  -8.608
REMARK INTRA:                  -0.762
REMARK UNBOUND:                -0.989
REMARK  Name = 
REMARK  8 active torsions:
REMARK  status: ('A' for Active; 'I' for Inactive)
REMARK    1  A    between atoms: N_1  and  C_2
REMARK    2  A    between atoms: C_2  and  C_3
REMARK    3  A    between atoms: C_3  and  C_4
REMARK    4  A    between atoms: C_7  and  C_8
REMARK    5  A    between atoms: C_8  and  N_9
REMARK    6  A    between atoms: C_14  and  C_15
REMARK    7  A    between atoms: C_15  and  O_17
REMARK    8  A    between atoms: C_19  and  C_20
REMARK                            x       y       z     vdW  Elec       q    Type
REMARK                         _______ _______ _______ _____ _____    ______ ____
ROOT
ATOM      1  N   UNL     1      46.045   7.500  12.956  0.00  0.00    +0.000 N 
ATOM      2  C   UNL     1      45.273   8.345  12.199  0.00  0.00    +0.000 A 
ATOM      3  N   UNL     1      44.430   7.701  11.434  0.00  0.00    +0.000 NA
ATOM      4  C   UNL     1      44.652   6.382  11.698  0.00  0.00    +0.000 A 
ATOM      5  C   UNL     1      44.008   5.292  11.106  0.00  0.00    +0.000 A 
ATOM      6  C   UNL     1      44.403   4.006  11.470  0.00  0.00    +0.000 A 
ATOM      7  C   UNL     1      45.366   3.825  12.471  0.00  0.00    +0.000 A 
ATOM      8  C   UNL     1      46.019   4.908  13.115  0.00  0.00    +0.000 A 
ATOM      9  C   UNL     1      45.647   6.201  12.666  0.00  0.00    +0.000 A 
ENDROOT
BRANCH   8  10
ATOM     10  C   UNL     1      47.014   4.615  14.212  0.00  0.00    +0.000 C 
ATOM     11  F   UNL     1      47.246   3.289  14.409  0.00  0.00    +0.000 F 
ATOM     12  F   UNL     1      48.234   5.171  13.963  0.00  0.00    +0.000 F 
ATOM     13  F   UNL     1      46.618   5.107  15.417  0.00  0.00    +0.000 F 
ENDBRANCH   8  10
BRANCH   6  14
ATOM     14  C   UNL     1      43.792   2.809  10.846  0.00  0.00    +0.000 C 
ATOM     15  O   UNL     1      44.008   2.492   9.688  0.00  0.00    +0.000 OA
BRANCH  14  16
ATOM     16  O   UNL     1      42.937   2.139  11.646  0.00  0.00    +0.000 OA
ATOM     17  H   UNL     1      43.204   1.234  11.893  0.00  0.00    +0.000 HD
ENDBRANCH  14  16
ENDBRANCH   6  14
BRANCH   1  18
ATOM     18  C   UNL     1      47.166   7.924  13.800  0.00  0.00    +0.000 C 
BRANCH  18  22
ATOM     19  C   UNL     1      50.959   8.146  11.739  0.00  0.00    +0.000 A 
ATOM     20  C   UNL     1      49.811   7.720  11.055  0.00  0.00    +0.000 A 
ATOM     21  C   UNL     1      48.591   7.589  11.725  0.00  0.00    +0.000 A 
ATOM     22  C   UNL     1      48.496   7.896  13.091  0.00  0.00    +0.000 A 
ATOM     23  C   UNL     1      49.655   8.279  13.770  0.00  0.00    +0.000 A 
ATOM     24  F   UNL     1      49.594   8.564  15.078  0.00  0.00    +0.000 F 
ATOM     25  C   UNL     1      50.875   8.402  13.112  0.00  0.00    +0.000 A 
BRANCH  19  26
ATOM     26  C   UNL     1      52.269   8.310  11.008  0.00  0.00    +0.000 C 
BRANCH  26  27
ATOM     27  C   UNL     1      52.405   7.301   9.864  0.00  0.00    +0.000 C 
BRANCH  27  28
ATOM     28  N   UNL     1      53.100   6.094  10.303  0.00  0.00    +0.000 NA
ATOM     29  H   UNL     1      52.609   5.699  11.105  0.00  0.00    +0.000 HD
ATOM     30  H   UNL     1      54.033   6.335  10.634  0.00  0.00    +0.000 HD
ENDBRANCH  27  28
ENDBRANCH  26  27
ENDBRANCH  19  26
ENDBRANCH  18  22
ENDBRANCH   1  18
TORSDOF 8
ENDMDL
MODEL 6
REMARK VINA RESULT:    -5.720      3.866      7.174
REMARK INTER + INTRA:          -9.051
REMARK INTER:                  -8.061
REMARK INTRA:                  -0.990
REMARK UNBOUND:                -0.989
REMARK  Name = 
REMARK  8 active torsions:
REMARK  status: ('A' for Active; 'I' for Inactive)
REMARK    1  A    between atoms: N_1  and  C_2
REMARK    2  A    between atoms: C_2  and  C_3
REMARK    3  A    between atoms: C_3  and  C_4
REMARK    4  A    between atoms: C_7  and  C_8
REMARK    5  A    between atoms: C_8  and  N_9
REMARK    6  A    between atoms: C_14  and  C_15
REMARK    7  A    between atoms: C_15  and  O_17
REMARK    8  A    between atoms: C_19  and  C_20
REMARK                            x       y       z     vdW  Elec       q    Type
REMARK                         _______ _______ _______ _____ _____    ______ ____
ROOT
ATOM      1  N   UNL     1      47.451   5.591  14.451  0.00  0.00    +0.000 N 
ATOM      2  C   UNL     1      47.693   4.331  14.937  0.00  0.00    +0.000 A 
ATOM      3  N   UNL     1      47.084   3.403  14.246  0.00  0.00    +0.000 NA
ATOM      4  C   UNL     1      46.416   4.075  13.265  0.00  0.00    +0.000 A 
ATOM      5  C   UNL     1      45.595   3.519  12.281  0.00  0.00    +0.000 A 
ATOM      6  C   UNL     1      44.954   4.372  11.386  0.00  0.00    +0.000 A 
ATOM      7  C   UNL     1      45.204   5.750  11.429  0.00  0.00    +0.000 A 
ATOM      8  C   UNL     1      46.056   6.347  12.395  0.00  0.00    +0.000 A 
ATOM      9  C   UNL     1      46.631   5.457  13.337  0.00  0.00    +0.000 A 
ENDROOT
BRANCH   8  10
ATOM     10  C   UNL     1      46.297   7.837  12.337  0.00  0.00    +0.000 C 
ATOM     11  F   UNL     1      46.078   8.479  13.516  0.00  0.00    +0.000 F 
ATOM     12  F   UNL     1      47.579   8.138  11.985  0.00  0.00    +0.000 F 
ATOM     13  F   UNL     1      45.503   8.455  11.423  0.00  0.00    +0.000 F 
ENDBRANCH   8  10
BRANCH   6  14
ATOM     14  C   UNL     1      44.035   3.849  10.349  0.00  0.00    +0.000 C 
ATOM     15  O   UNL     1      43.799   2.658  10.223  0.00  0.00    +0.000 OA
BRANCH  14  16
ATOM     16  O   UNL     1      43.531   4.790   9.524  0.00  0.00    +0.000 OA
ATOM     17  H   UNL     1      42.599   5.035   9.674  0.00  0.00    +0.000 HD
ENDBRANCH  14  16
ENDBRANCH   6  14
BRANCH   1  18
ATOM     18  C   UNL     1      47.883   6.834  15.097  0.00  0.00    +0.000 C 
BRANCH  18  22
ATOM     19  C   UNL     1      52.119   7.692  15.138  0.00  0.00    +0.000 A 
ATOM     20  C   UNL     1      51.333   8.080  14.043  0.00  0.00    +0.000 A 
ATOM     21  C   UNL     1      49.975   7.757  13.992  0.00  0.00    +0.000 A 
ATOM     22  C   UNL     1      49.374   7.051  15.046  0.00  0.00    +0.000 A 
ATOM     23  C   UNL     1      50.176   6.634  16.111  0.00  0.00    +0.000 A 
ATOM     24  F   UNL     1      49.630   5.945  17.122  0.00  0.00    +0.000 F 
ATOM     25  C   UNL     1      51.532   6.943  16.163  0.00  0.00    +0.000 A 
BRANCH  19  26
ATOM     26  C   UNL     1      53.581   8.062  15.202  0.00  0.00    +0.000 C 
BRANCH  26  27
ATOM     27  C   UNL     1      54.480   6.838  15.008  0.00  0.00    +0.000 C 
BRANCH  27  28
ATOM     28  N   UNL     1      54.652   6.527  13.591  0.00  0.00    +0.000 NA
ATOM     29  H   UNL     1      55.165   5.650  13.501  0.00  0.00    +0.000 HD
ATOM     30  H   UNL     1      55.232   7.239  13.151  0.00  0.00    +0.000 HD
ENDBRANCH  27  28
ENDBRANCH  26  27
ENDBRANCH  19  26
ENDBRANCH  18  22
ENDBRANCH   1  18
TORSDOF 8
ENDMDL
MODEL 7
REMARK VINA RESULT:    -5.618      1.587      2.145
REMARK INTER + INTRA:          -8.906
REMARK INTER:                  -8.524
REMARK INTRA:                  -0.382
REMARK UNBOUND:                -0.989
REMARK  Name = 
REMARK  8 active torsions:
REMARK  status: ('A' for Active; 'I' for Inactive)
REMARK    1  A    between atoms: N_1  and  C_2
REMARK    2  A    between atoms: C_2  and  C_3
REMARK    3  A    between atoms: C_3  and  C_4
REMARK    4  A    between atoms: C_7  and  C_8
REMARK    5  A    between atoms: C_8  and  N_9
REMARK    6  A    between atoms: C_14  and  C_15
REMARK    7  A    between atoms: C_15  and  O_17
REMARK    8  A    between atoms: C_19  and  C_20
REMARK                            x       y       z     vdW  Elec       q    Type
REMARK                         _______ _______ _______ _____ _____    ______ ____
ROOT
ATOM      1  N   UNL     1      44.935   4.860  12.149  0.00  0.00    +0.000 N 
ATOM      2  C   UNL     1      44.329   3.844  12.844  0.00  0.00    +0.000 A 
ATOM      3  N   UNL     1      44.899   3.621  14.001  0.00  0.00    +0.000 NA
ATOM      4  C   UNL     1      45.916   4.526  14.073  0.00  0.00    +0.000 A 
ATOM      5  C   UNL     1      46.835   4.669  15.116  0.00  0.00    +0.000 A 
ATOM      6  C   UNL     1      47.841   5.624  14.993  0.00  0.00    +0.000 A 
ATOM      7  C   UNL     1      47.868   6.474  13.879  0.00  0.00    +0.000 A 
ATOM      8  C   UNL     1      46.934   6.378  12.816  0.00  0.00    +0.000 A 
ATOM      9  C   UNL     1      45.970   5.346  12.939  0.00  0.00    +0.000 A 
ENDROOT
BRANCH   8  10
ATOM     10  C   UNL     1      47.018   7.366  11.676  0.00  0.00    +0.000 C 
ATOM     11  F   UNL     1      47.633   8.536  12.002  0.00  0.00    +0.000 F 
ATOM     12  F   UNL     1      47.711   6.869  10.613  0.00  0.00    +0.000 F 
ATOM     13  F   UNL     1      45.793   7.710  11.197  0.00  0.00    +0.000 F 
ENDBRANCH   8  10
BRANCH   6  14
ATOM     14  C   UNL     1      48.873   5.794  16.042  0.00  0.00    +0.000 C 
ATOM     15  O   UNL     1      49.938   6.351  15.830  0.00  0.00    +0.000 OA
BRANCH  14  16
ATOM     16  O   UNL     1      48.560   5.231  17.228  0.00  0.00    +0.000 OA
ATOM     17  H   UNL     1      49.126   5.481  17.982  0.00  0.00    +0.000 HD
ENDBRANCH  14  16
ENDBRANCH   6  14
BRANCH   1  18
ATOM     18  C   UNL     1      44.608   5.241  10.772  0.00  0.00    +0.000 C 
BRANCH  18  22
ATOM     19  C   UNL     1      46.056   2.670   7.614  0.00  0.00    +0.000 A 
ATOM     20  C   UNL     1      45.306   2.133   8.669  0.00  0.00    +0.000 A 
ATOM     21  C   UNL     1      44.881   2.944   9.725  0.00  0.00    +0.000 A 
ATOM     22  C   UNL     1      45.190   4.313   9.737  0.00  0.00    +0.000 A 
ATOM     23  C   UNL     1      45.973   4.827   8.701  0.00  0.00    +0.000 A 
ATOM     24  F   UNL     1      46.295   6.129   8.697  0.00  0.00    +0.000 F 
ATOM     25  C   UNL     1      46.408   4.024   7.651  0.00  0.00    +0.000 A 
BRANCH  19  26
ATOM     26  C   UNL     1      46.494   1.798   6.462  0.00  0.00    +0.000 C 
BRANCH  26  27
ATOM     27  C   UNL     1      47.594   2.468   5.635  0.00  0.00    +0.000 C 
BRANCH  27  28
ATOM     28  N   UNL     1      48.888   2.385   6.310  0.00  0.00    +0.000 NA
ATOM     29  H   UNL     1      49.019   1.437   6.664  0.00  0.00    +0.000 HD
ATOM     30  H   UNL     1      48.889   2.993   7.126  0.00  0.00    +0.000 HD
ENDBRANCH  27  28
ENDBRANCH  26  27
ENDBRANCH  19  26
ENDBRANCH  18  22
ENDBRANCH   1  18
TORSDOF 8
ENDMDL
MODEL 8
REMARK VINA RESULT:    -5.592      3.985      6.410
REMARK INTER + INTRA:          -8.870
REMARK INTER:                  -7.928
REMARK INTRA:                  -0.942
REMARK UNBOUND:                -0.989
REMARK  Name = 
REMARK  8 active torsions:
REMARK  status: ('A' for Active; 'I' for Inactive)
REMARK    1  A    between atoms: N_1  and  C_2
REMARK    2  A    between atoms: C_2  and  C_3
REMARK    3  A    between atoms: C_3  and  C_4
REMARK    4  A    between atoms: C_7  and  C_8
REMARK    5  A    between atoms: C_8  and  N_9
REMARK    6  A    between atoms: C_14  and  C_15
REMARK    7  A    between atoms: C_15  and  O_17
REMARK    8  A    between atoms: C_19  and  C_20
REMARK                            x       y       z     vdW  Elec       q    Type
REMARK                         _______ _______ _______ _____ _____    ______ ____
ROOT
ATOM      1  N   UNL     1      47.368   5.895  14.201  0.00  0.00    +0.000 N 
ATOM      2  C   UNL     1      47.863   4.797  14.861  0.00  0.00    +0.000 A 
ATOM      3  N   UNL     1      47.329   3.679  14.440  0.00  0.00    +0.000 NA
ATOM      4  C   UNL     1      46.452   4.053  13.465  0.00  0.00    +0.000 A 
ATOM      5  C   UNL     1      45.616   3.211  12.726  0.00  0.00    +0.000 A 
ATOM      6  C   UNL     1      44.747   3.780  11.799  0.00  0.00    +0.000 A 
ATOM      7  C   UNL     1      44.781   5.161  11.562  0.00  0.00    +0.000 A 
ATOM      8  C   UNL     1      45.637   6.042  12.271  0.00  0.00    +0.000 A 
ATOM      9  C   UNL     1      46.453   5.438  13.260  0.00  0.00    +0.000 A 
ENDROOT
BRANCH   8  10
ATOM     10  C   UNL     1      45.632   7.510  11.917  0.00  0.00    +0.000 C 
ATOM     11  F   UNL     1      45.420   8.335  12.979  0.00  0.00    +0.000 F 
ATOM     12  F   UNL     1      46.812   7.912  11.367  0.00  0.00    +0.000 F 
ATOM     13  F   UNL     1      44.670   7.821  11.007  0.00  0.00    +0.000 F 
ENDBRANCH   8  10
BRANCH   6  14
ATOM     14  C   UNL     1      43.804   2.947  11.016  0.00  0.00    +0.000 C 
ATOM     15  O   UNL     1      43.766   2.971   9.797  0.00  0.00    +0.000 OA
BRANCH  14  16
ATOM     16  O   UNL     1      42.958   2.210  11.765  0.00  0.00    +0.000 OA
ATOM     17  H   UNL     1      43.357   1.735  12.518  0.00  0.00    +0.000 HD
ENDBRANCH  14  16
ENDBRANCH   6  14
BRANCH   1  18
ATOM     18  C   UNL     1      47.674   7.286  14.548  0.00  0.00    +0.000 C 
BRANCH  18  22
ATOM     19  C   UNL     1      50.432   9.177  11.810  0.00  0.00    +0.000 A 
ATOM     20  C   UNL     1      50.253   7.787  11.779  0.00  0.00    +0.000 A 
ATOM     21  C   UNL     1      49.408   7.158  12.697  0.00  0.00    +0.000 A 
ATOM     22  C   UNL     1      48.715   7.913  13.656  0.00  0.00    +0.000 A 
ATOM     23  C   UNL     1      48.934   9.291  13.703  0.00  0.00    +0.000 A 
ATOM     24  F   UNL     1      48.296  10.033  14.620  0.00  0.00    +0.000 F 
ATOM     25  C   UNL     1      49.782   9.924  12.800  0.00  0.00    +0.000 A 
BRANCH  19  26
ATOM     26  C   UNL     1      51.327   9.858  10.803  0.00  0.00    +0.000 C 
BRANCH  26  27
ATOM     27  C   UNL     1      52.650   9.108  10.629  0.00  0.00    +0.000 C 
BRANCH  27  28
ATOM     28  N   UNL     1      52.805   8.618   9.262  0.00  0.00    +0.000 NA
ATOM     29  H   UNL     1      52.251   9.200   8.634  0.00  0.00    +0.000 HD
ATOM     30  H   UNL     1      52.420   7.678   9.188  0.00  0.00    +0.000 HD
ENDBRANCH  27  28
ENDBRANCH  26  27
ENDBRANCH  19  26
ENDBRANCH  18  22
ENDBRANCH   1  18
TORSDOF 8
ENDMDL
MODEL 9
REMARK VINA RESULT:    -5.494      3.980      7.869
REMARK INTER + INTRA:          -8.732
REMARK INTER:                  -8.316
REMARK INTRA:                  -0.415
REMARK UNBOUND:                -0.989
REMARK  Name = 
REMARK  8 active torsions:
REMARK  status: ('A' for Active; 'I' for Inactive)
REMARK    1  A    between atoms: N_1  and  C_2
REMARK    2  A    between atoms: C_2  and  C_3
REMARK    3  A    between atoms: C_3  and  C_4
REMARK    4  A    between atoms: C_7  and  C_8
REMARK    5  A    between atoms: C_8  and  N_9
REMARK    6  A    between atoms: C_14  and  C_15
REMARK    7  A    between atoms: C_15  and  O_17
REMARK    8  A    between atoms: C_19  and  C_20
REMARK                            x       y       z     vdW  Elec       q    Type
REMARK                         _______ _______ _______ _____ _____    ______ ____
ROOT
ATOM      1  N   UNL     1      47.672   5.437  14.542  0.00  0.00    +0.000 N 
ATOM      2  C   UNL     1      47.857   4.153  14.992  0.00  0.00    +0.000 A 
ATOM      3  N   UNL     1      47.129   3.284  14.339  0.00  0.00    +0.000 NA
ATOM      4  C   UNL     1      46.441   4.021  13.421  0.00  0.00    +0.000 A 
ATOM      5  C   UNL     1      45.508   3.543  12.497  0.00  0.00    +0.000 A 
ATOM      6  C   UNL     1      44.866   4.457  11.664  0.00  0.00    +0.000 A 
ATOM      7  C   UNL     1      45.220   5.812  11.705  0.00  0.00    +0.000 A 
ATOM      8  C   UNL     1      46.184   6.328  12.609  0.00  0.00    +0.000 A 
ATOM      9  C   UNL     1      46.762   5.382  13.493  0.00  0.00    +0.000 A 
ENDROOT
BRANCH   8  10
ATOM     10  C   UNL     1      46.529   7.797  12.551  0.00  0.00    +0.000 C 
ATOM     11  F   UNL     1      46.281   8.471  13.707  0.00  0.00    +0.000 F 
ATOM     12  F   UNL     1      47.849   8.006  12.278  0.00  0.00    +0.000 F 
ATOM     13  F   UNL     1      45.838   8.455  11.582  0.00  0.00    +0.000 F 
ENDBRANCH   8  10
BRANCH   6  14
ATOM     14  C   UNL     1      43.834   4.021  10.695  0.00  0.00    +0.000 C 
ATOM     15  O   UNL     1      43.925   4.241   9.497  0.00  0.00    +0.000 OA
BRANCH  14  16
ATOM     16  O   UNL     1      42.766   3.415  11.252  0.00  0.00    +0.000 OA
ATOM     17  H   UNL     1      41.892   3.744  10.969  0.00  0.00    +0.000 HD
ENDBRANCH  14  16
ENDBRANCH   6  14
BRANCH   1  18
ATOM     18  C   UNL     1      48.243   6.632  15.168  0.00  0.00    +0.000 C 
BRANCH  18  22
ATOM     19  C   UNL     1      50.830   5.497  18.439  0.00  0.00    +0.000 A 
ATOM     20  C   UNL     1      49.439   5.368  18.565  0.00  0.00    +0.000 A 
ATOM     21  C   UNL     1      48.590   5.785  17.537  0.00  0.00    +0.000 A 
ATOM     22  C   UNL     1      49.120   6.329  16.356  0.00  0.00    +0.000 A 
ATOM     23  C   UNL     1      50.503   6.491  16.260  0.00  0.00    +0.000 A 
ATOM     24  F   UNL     1      51.033   7.022  15.149  0.00  0.00    +0.000 F 
ATOM     25  C   UNL     1      51.355   6.087  17.284  0.00  0.00    +0.000 A 
BRANCH  19  26
ATOM     26  C   UNL     1      51.746   5.025  19.541  0.00  0.00    +0.000 C 
BRANCH  26  27
ATOM     27  C   UNL     1      52.763   4.002  19.027  0.00  0.00    +0.000 C 
BRANCH  27  28
ATOM     28  N   UNL     1      52.099   2.799  18.531  0.00  0.00    +0.000 NA
ATOM     29  H   UNL     1      51.936   2.897  17.529  0.00  0.00    +0.000 HD
ATOM     30  H   UNL     1      51.179   2.713  18.960  0.00  0.00    +0.000 HD
ENDBRANCH  27  28
ENDBRANCH  26  27
ENDBRANCH  19  26
ENDBRANCH  18  22
ENDBRANCH   1  18
TORSDOF 8
ENDMDL
