MODEL 1
REMARK VINA RESULT:    -9.385      0.000      0.000
REMARK INTER + INTRA:         -11.678
REMARK INTER:                 -11.579
REMARK INTRA:                  -0.099
REMARK UNBOUND:                -0.099
REMARK  Name = 
REMARK  4 active torsions:
REMARK  status: ('A' for Active; 'I' for Inactive)
REMARK    1  A    between atoms: C_2  and  C_4
REMARK    2  A    between atoms: N_8  and  C_9
REMARK    3  A    between atoms: C_9  and  C_10
REMARK    4  A    between atoms: C_12  and  C_13
REMARK                            x       y       z     vdW  Elec       q    Type
REMARK                         _______ _______ _______ _____ _____    ______ ____
ROOT
ATOM      1  C   UNL     1      43.990   4.437  11.450  0.00  0.00    +0.000 C 
ATOM      2  C   UNL     1      42.632   4.834  12.007  0.00  0.00    +0.000 C 
ATOM      3  C   UNL     1      43.230   5.642  10.904  0.00  0.00    +0.000 C 
ENDROOT
BRANCH   1   8
ATOM      4  C   UNL     1      46.601   2.666   7.369  0.00  0.00    +0.000 A 
ATOM      5  C   UNL     1      46.235   3.967   7.701  0.00  0.00    +0.000 A 
ATOM      6  C   UNL     1      45.377   4.178   8.785  0.00  0.00    +0.000 A 
ATOM      7  C   UNL     1      44.916   3.088   9.522  0.00  0.00    +0.000 A 
ATOM      8  N   UNL     1      44.075   3.215  10.630  0.00  0.00    +0.000 N 
ATOM      9  N   UNL     1      45.242   1.822   9.188  0.00  0.00    +0.000 NA
ATOM     10  C   UNL     1      46.062   1.634   8.120  0.00  0.00    +0.000 A 
ATOM     11  H   UNL     1      43.977   2.304  11.064  0.00  0.00    +0.000 HD
BRANCH   4  13
ATOM     12  N   UNL     1      47.400   3.092   5.115  0.00  0.00    +0.000 N 
ATOM     13  C   UNL     1      47.510   2.339   6.251  0.00  0.00    +0.000 C 
ATOM     14  O   UNL     1      48.356   1.461   6.350  0.00  0.00    +0.000 OA
ATOM     15  H   UNL     1      48.094   2.929   4.396  0.00  0.00    +0.000 HD
ATOM     16  H   UNL     1      46.905   3.974   5.093  0.00  0.00    +0.000 HD
ENDBRANCH   4  13
ENDBRANCH   1   8
BRANCH   1  17
ATOM     17  C   UNL     1      45.275   4.802  12.209  0.00  0.00    +0.000 A 
ATOM     18  C   UNL     1      46.018   5.932  11.833  0.00  0.00    +0.000 A 
ATOM     19  C   UNL     1      47.147   6.336  12.559  0.00  0.00    +0.000 A 
ATOM     20  C   UNL     1      47.484   5.558  13.670  0.00  0.00    +0.000 A 
ATOM     21  C   UNL     1      46.714   4.453  13.990  0.00  0.00    +0.000 A 
ATOM     22  N   UNL     1      45.637   4.057  13.285  0.00  0.00    +0.000 NA
BRANCH  19  23
ATOM     23  C   UNL     1      47.942   7.530  12.180  0.00  0.00    +0.000 A 
ATOM     24  C   UNL     1      47.357   8.810  12.129  0.00  0.00    +0.000 A 
ATOM     25  C   UNL     1      48.105   9.949  11.816  0.00  0.00    +0.000 A 
ATOM     26  C   UNL     1      49.462   9.833  11.525  0.00  0.00    +0.000 A 
ATOM     27  C   UNL     1      50.063   8.580  11.547  0.00  0.00    +0.000 A 
ATOM     28  C   UNL     1      49.313   7.443  11.872  0.00  0.00    +0.000 A 
ENDBRANCH  19  23
ENDBRANCH   1  17
TORSDOF 4
ENDMDL
MODEL 2
REMARK VINA RESULT:    -9.008      1.647      3.422
REMARK INTER + INTRA:         -11.214
REMARK INTER:                 -11.197
REMARK INTRA:                  -0.016
REMARK UNBOUND:                -0.099
REMARK  Name = 
REMARK  4 active torsions:
REMARK  status: ('A' for Active; 'I' for Inactive)
REMARK    1  A    between atoms: C_2  and  C_4
REMARK    2  A    between atoms: N_8  and  C_9
REMARK    3  A    between atoms: C_9  and  C_10
REMARK    4  A    between atoms: C_12  and  C_13
REMARK                            x       y       z     vdW  Elec       q    Type
REMARK                         _______ _______ _______ _____ _____    ______ ____
ROOT
ATOM      1  C   UNL     1      43.948   4.828  11.567  0.00  0.00    +0.000 C 
ATOM      2  C   UNL     1      42.642   5.174  12.266  0.00  0.00    +0.000 C 
ATOM      3  C   UNL     1      43.023   5.914  11.027  0.00  0.00    +0.000 C 
ENDROOT
BRANCH   1   8
ATOM      4  C   UNL     1      46.436   2.775   7.541  0.00  0.00    +0.000 A 
ATOM      5  C   UNL     1      46.047   4.091   7.777  0.00  0.00    +0.000 A 
ATOM      6  C   UNL     1      45.229   4.373   8.876  0.00  0.00    +0.000 A 
ATOM      7  C   UNL     1      44.832   3.340   9.723  0.00  0.00    +0.000 A 
ATOM      8  N   UNL     1      44.034   3.541  10.852  0.00  0.00    +0.000 N 
ATOM      9  N   UNL     1      45.179   2.059   9.485  0.00  0.00    +0.000 NA
ATOM     10  C   UNL     1      45.960   1.800   8.402  0.00  0.00    +0.000 A 
ATOM     11  H   UNL     1      43.981   2.669  11.367  0.00  0.00    +0.000 HD
BRANCH   4  13
ATOM     12  N   UNL     1      47.305   3.179   5.309  0.00  0.00    +0.000 N 
ATOM     13  C   UNL     1      47.306   2.376   6.416  0.00  0.00    +0.000 C 
ATOM     14  O   UNL     1      48.031   1.393   6.486  0.00  0.00    +0.000 OA
ATOM     15  H   UNL     1      47.980   2.954   4.588  0.00  0.00    +0.000 HD
ATOM     16  H   UNL     1      46.929   4.117   5.319  0.00  0.00    +0.000 HD
ENDBRANCH   4  13
ENDBRANCH   1   8
BRANCH   1  17
ATOM     17  C   UNL     1      45.282   5.360  12.113  0.00  0.00    +0.000 A 
ATOM     18  C   UNL     1      45.758   4.922  13.359  0.00  0.00    +0.000 A 
ATOM     19  C   UNL     1      47.010   5.327  13.842  0.00  0.00    +0.000 A 
ATOM     20  C   UNL     1      47.750   6.180  13.019  0.00  0.00    +0.000 A 
ATOM     21  C   UNL     1      47.226   6.580  11.802  0.00  0.00    +0.000 A 
ATOM     22  N   UNL     1      46.018   6.203  11.343  0.00  0.00    +0.000 NA
BRANCH  19  23
ATOM     23  C   UNL     1      47.533   4.870  15.153  0.00  0.00    +0.000 A 
ATOM     24  C   UNL     1      47.301   3.561  15.617  0.00  0.00    +0.000 A 
ATOM     25  C   UNL     1      47.824   3.105  16.830  0.00  0.00    +0.000 A 
ATOM     26  C   UNL     1      48.584   3.959  17.625  0.00  0.00    +0.000 A 
ATOM     27  C   UNL     1      48.814   5.264  17.204  0.00  0.00    +0.000 A 
ATOM     28  C   UNL     1      48.297   5.713  15.983  0.00  0.00    +0.000 A 
ENDBRANCH  19  23
ENDBRANCH   1  17
TORSDOF 4
ENDMDL
MODEL 3
REMARK VINA RESULT:    -7.805      3.845      7.569
REMARK INTER + INTRA:          -9.729
REMARK INTER:                  -9.302
REMARK INTRA:                  -0.427
REMARK UNBOUND:                -0.099
REMARK  Name = 
REMARK  4 active torsions:
REMARK  status: ('A' for Active; 'I' for Inactive)
REMARK    1  A    between atoms: C_2  and  C_4
REMARK    2  A    between atoms: N_8  and  C_9
REMARK    3  A    between atoms: C_9  and  C_10
REMARK    4  A    between atoms: C_12  and  C_13
REMARK                            x       y       z     vdW  Elec       q    Type
REMARK                         _______ _______ _______ _____ _____    ______ ____
ROOT
ATOM      1  C   UNL     1      48.478   7.753  12.778  0.00  0.00    +0.000 C 
ATOM      2  C   UNL     1      49.705   7.377  11.963  0.00  0.00    +0.000 C 
ATOM      3  C   UNL     1      49.272   8.805  12.010  0.00  0.00    +0.000 C 
ENDROOT
BRANCH   1   8
ATOM      4  C   UNL     1      47.900   4.368  16.628  0.00  0.00    +0.000 A 
ATOM      5  C   UNL     1      47.278   4.423  15.385  0.00  0.00    +0.000 A 
ATOM      6  C   UNL     1      47.480   5.543  14.571  0.00  0.00    +0.000 A 
ATOM      7  C   UNL     1      48.310   6.573  15.009  0.00  0.00    +0.000 A 
ATOM      8  N   UNL     1      48.580   7.713  14.249  0.00  0.00    +0.000 N 
ATOM      9  N   UNL     1      48.893   6.540  16.225  0.00  0.00    +0.000 NA
ATOM     10  C   UNL     1      48.672   5.453  17.010  0.00  0.00    +0.000 A 
ATOM     11  H   UNL     1      49.295   8.254  14.723  0.00  0.00    +0.000 HD
BRANCH   4  13
ATOM     12  N   UNL     1      48.845   2.910  18.326  0.00  0.00    +0.000 N 
ATOM     13  C   UNL     1      47.760   3.226  17.555  0.00  0.00    +0.000 C 
ATOM     14  O   UNL     1      46.707   2.613  17.661  0.00  0.00    +0.000 OA
ATOM     15  H   UNL     1      48.705   2.194  19.029  0.00  0.00    +0.000 HD
ATOM     16  H   UNL     1      49.624   3.542  18.452  0.00  0.00    +0.000 HD
ENDBRANCH   4  13
ENDBRANCH   1   8
BRANCH   1  17
ATOM     17  C   UNL     1      47.070   7.503  12.217  0.00  0.00    +0.000 A 
ATOM     18  C   UNL     1      46.817   6.367  11.430  0.00  0.00    +0.000 A 
ATOM     19  C   UNL     1      45.525   6.071  10.975  0.00  0.00    +0.000 A 
ATOM     20  C   UNL     1      44.513   6.960  11.348  0.00  0.00    +0.000 A 
ATOM     21  C   UNL     1      44.825   8.064  12.122  0.00  0.00    +0.000 A 
ATOM     22  N   UNL     1      46.068   8.357  12.549  0.00  0.00    +0.000 NA
BRANCH  19  23
ATOM     23  C   UNL     1      45.237   4.873  10.148  0.00  0.00    +0.000 A 
ATOM     24  C   UNL     1      45.625   4.807   8.797  0.00  0.00    +0.000 A 
ATOM     25  C   UNL     1      45.398   3.667   8.020  0.00  0.00    +0.000 A 
ATOM     26  C   UNL     1      44.755   2.563   8.574  0.00  0.00    +0.000 A 
ATOM     27  C   UNL     1      44.341   2.606   9.900  0.00  0.00    +0.000 A 
ATOM     28  C   UNL     1      44.580   3.745  10.678  0.00  0.00    +0.000 A 
ENDBRANCH  19  23
ENDBRANCH   1  17
TORSDOF 4
ENDMDL
MODEL 4
REMARK VINA RESULT:    -7.680      3.114      6.898
REMARK INTER + INTRA:          -9.575
REMARK INTER:                  -9.289
REMARK INTRA:                  -0.286
REMARK UNBOUND:                -0.099
REMARK  Name = 
REMARK  4 active torsions:
REMARK  status: ('A' for Active; 'I' for Inactive)
REMARK    1  A    between atoms: C_2  and  C_4
REMARK    2  A    between atoms: N_8  and  C_9
REMARK    3  A    between atoms: C_9  and  C_10
REMARK    4  A    between atoms: C_12  and  C_13
REMARK                            x       y       z     vdW  Elec       q    Type
REMARK                         _______ _______ _______ _____ _____    ______ ____
ROOT
ATOM      1  C   UNL     1      45.074   6.286  12.091  0.00  0.00    +0.000 C 
ATOM      2  C   UNL     1      45.045   7.587  11.306  0.00  0.00    +0.000 C 
ATOM      3  C   UNL     1      43.917   7.270  12.232  0.00  0.00    +0.000 C 
ENDROOT
BRANCH   1   8
ATOM      4  C   UNL     1      49.863   7.812  13.252  0.00  0.00    +0.000 A 
ATOM      5  C   UNL     1      49.284   7.547  12.015  0.00  0.00    +0.000 A 
ATOM      6  C   UNL     1      48.006   6.980  11.968  0.00  0.00    +0.000 A 
ATOM      7  C   UNL     1      47.330   6.706  13.155  0.00  0.00    +0.000 A 
ATOM      8  N   UNL     1      46.045   6.161  13.195  0.00  0.00    +0.000 N 
ATOM      9  N   UNL     1      47.896   6.933  14.358  0.00  0.00    +0.000 NA
ATOM     10  C   UNL     1      49.146   7.467  14.386  0.00  0.00    +0.000 A 
ATOM     11  H   UNL     1      45.723   6.166  14.157  0.00  0.00    +0.000 HD
BRANCH   4  13
ATOM     12  N   UNL     1      52.121   7.727  14.146  0.00  0.00    +0.000 N 
ATOM     13  C   UNL     1      51.202   8.420  13.408  0.00  0.00    +0.000 C 
ATOM     14  O   UNL     1      51.491   9.477  12.865  0.00  0.00    +0.000 OA
ATOM     15  H   UNL     1      53.062   8.101  14.160  0.00  0.00    +0.000 HD
ATOM     16  H   UNL     1      52.003   6.751  14.383  0.00  0.00    +0.000 HD
ENDBRANCH   4  13
ENDBRANCH   1   8
BRANCH   1  17
ATOM     17  C   UNL     1      44.688   4.963  11.412  0.00  0.00    +0.000 A 
ATOM     18  C   UNL     1      45.353   4.549  10.247  0.00  0.00    +0.000 A 
ATOM     19  C   UNL     1      45.078   3.308   9.654  0.00  0.00    +0.000 A 
ATOM     20  C   UNL     1      44.117   2.515  10.286  0.00  0.00    +0.000 A 
ATOM     21  C   UNL     1      43.493   2.979  11.431  0.00  0.00    +0.000 A 
ATOM     22  N   UNL     1      43.746   4.176  11.994  0.00  0.00    +0.000 NA
BRANCH  19  23
ATOM     23  C   UNL     1      45.775   2.851   8.427  0.00  0.00    +0.000 A 
ATOM     24  C   UNL     1      46.030   3.733   7.359  0.00  0.00    +0.000 A 
ATOM     25  C   UNL     1      46.723   3.325   6.216  0.00  0.00    +0.000 A 
ATOM     26  C   UNL     1      47.166   2.010   6.102  0.00  0.00    +0.000 A 
ATOM     27  C   UNL     1      46.911   1.110   7.131  0.00  0.00    +0.000 A 
ATOM     28  C   UNL     1      46.226   1.526   8.279  0.00  0.00    +0.000 A 
ENDBRANCH  19  23
ENDBRANCH   1  17
TORSDOF 4
ENDMDL
MODEL 5
REMARK VINA RESULT:    -7.121      5.742      8.775
REMARK INTER + INTRA:          -8.885
REMARK INTER:                  -8.525
REMARK INTRA:                  -0.360
REMARK UNBOUND:                -0.099
REMARK  Name = 
REMARK  4 active torsions:
REMARK  status: ('A' for Active; 'I' for Inactive)
REMARK    1  A    between atoms: C_2  and  C_4
REMARK    2  A    between atoms: N_8  and  C_9
REMARK    3  A    between atoms: C_9  and  C_10
REMARK    4  A    between atoms: C_12  and  C_13
REMARK                            x       y       z     vdW  Elec       q    Type
REMARK                         _______ _______ _______ _____ _____    ______ ____
ROOT
ATOM      1  C   UNL     1      48.229   3.420  16.943  0.00  0.00    +0.000 C 
ATOM      2  C   UNL     1      48.040   3.850  18.389  0.00  0.00    +0.000 C 
ATOM      3  C   UNL     1      46.946   3.099  17.705  0.00  0.00    +0.000 C 
ENDROOT
BRANCH   1   8
ATOM      4  C   UNL     1      53.038   2.038  18.199  0.00  0.00    +0.000 A 
ATOM      5  C   UNL     1      52.467   3.303  18.102  0.00  0.00    +0.000 A 
ATOM      6  C   UNL     1      51.177   3.431  17.577  0.00  0.00    +0.000 A 
ATOM      7  C   UNL     1      50.481   2.292  17.175  0.00  0.00    +0.000 A 
ATOM      8  N   UNL     1      49.183   2.332  16.660  0.00  0.00    +0.000 N 
ATOM      9  N   UNL     1      51.038   1.066  17.237  0.00  0.00    +0.000 NA
ATOM     10  C   UNL     1      52.300   0.962  17.734  0.00  0.00    +0.000 A 
ATOM     11  H   UNL     1      48.851   1.379  16.554  0.00  0.00    +0.000 HD
BRANCH   4  13
ATOM     12  N   UNL     1      55.404   2.584  18.282  0.00  0.00    +0.000 N 
ATOM     13  C   UNL     1      54.388   1.797  18.750  0.00  0.00    +0.000 C 
ATOM     14  O   UNL     1      54.583   0.959  19.619  0.00  0.00    +0.000 OA
ATOM     15  H   UNL     1      56.301   2.480  18.739  0.00  0.00    +0.000 HD
ATOM     16  H   UNL     1      55.237   3.440  17.770  0.00  0.00    +0.000 HD
ENDBRANCH   4  13
ENDBRANCH   1   8
BRANCH   1  17
ATOM     17  C   UNL     1      48.039   4.432  15.803  0.00  0.00    +0.000 A 
ATOM     18  C   UNL     1      47.160   4.146  14.747  0.00  0.00    +0.000 A 
ATOM     19  C   UNL     1      46.905   5.085  13.738  0.00  0.00    +0.000 A 
ATOM     20  C   UNL     1      47.568   6.311  13.845  0.00  0.00    +0.000 A 
ATOM     21  C   UNL     1      48.425   6.533  14.909  0.00  0.00    +0.000 A 
ATOM     22  N   UNL     1      48.681   5.627  15.871  0.00  0.00    +0.000 NA
BRANCH  19  23
ATOM     23  C   UNL     1      45.975   4.804  12.617  0.00  0.00    +0.000 A 
ATOM     24  C   UNL     1      45.311   3.567  12.511  0.00  0.00    +0.000 A 
ATOM     25  C   UNL     1      44.400   3.305  11.484  0.00  0.00    +0.000 A 
ATOM     26  C   UNL     1      44.141   4.275  10.519  0.00  0.00    +0.000 A 
ATOM     27  C   UNL     1      44.797   5.499  10.584  0.00  0.00    +0.000 A 
ATOM     28  C   UNL     1      45.701   5.761  11.621  0.00  0.00    +0.000 A 
ENDBRANCH  19  23
ENDBRANCH   1  17
TORSDOF 4
ENDMDL
MODEL 6
REMARK VINA RESULT:    -6.916      4.155      6.549
REMARK INTER + INTRA:          -8.632
REMARK INTER:                  -8.139
REMARK INTRA:                  -0.493
REMARK UNBOUND:                -0.099
REMARK  Name = 
REMARK  4 active torsions:
REMARK  status: ('A' for Active; 'I' for Inactive)
REMARK    1  A    between atoms: C_2  and  C_4
REMARK    2  A    between atoms: N_8  and  C_9
REMARK    3  A    between atoms: C_9  and  C_10
REMARK    4  A    between atoms: C_12  and  C_13
REMARK                            x       y       z     vdW  Elec       q    Type
REMARK                         _______ _______ _______ _____ _____    ______ ____
ROOT
ATOM      1  C   UNL     1      45.789   4.707  12.890  0.00  0.00    +0.000 C 
ATOM      2  C   UNL     1      44.349   4.275  13.114  0.00  0.00    +0.000 C 
ATOM      3  C   UNL     1      44.942   4.152  11.749  0.00  0.00    +0.000 C 
ENDROOT
BRANCH   1   8
ATOM      4  C   UNL     1      48.156   3.946  17.410  0.00  0.00    +0.000 A 
ATOM      5  C   UNL     1      47.556   5.091  16.896  0.00  0.00    +0.000 A 
ATOM      6  C   UNL     1      47.124   5.096  15.566  0.00  0.00    +0.000 A 
ATOM      7  C   UNL     1      47.286   3.954  14.784  0.00  0.00    +0.000 A 
ATOM      8  N   UNL     1      46.864   3.870  13.455  0.00  0.00    +0.000 N 
ATOM      9  N   UNL     1      47.893   2.850  15.265  0.00  0.00    +0.000 NA
ATOM     10  C   UNL     1      48.324   2.869  16.555  0.00  0.00    +0.000 A 
ATOM     11  H   UNL     1      46.981   2.913  13.140  0.00  0.00    +0.000 HD
BRANCH   4  13
ATOM     12  N   UNL     1      48.195   2.766  19.533  0.00  0.00    +0.000 N 
ATOM     13  C   UNL     1      48.634   3.836  18.803  0.00  0.00    +0.000 C 
ATOM     14  O   UNL     1      49.424   4.643  19.274  0.00  0.00    +0.000 OA
ATOM     15  H   UNL     1      48.609   2.645  20.450  0.00  0.00    +0.000 HD
ATOM     16  H   UNL     1      47.763   1.958  19.106  0.00  0.00    +0.000 HD
ENDBRANCH   4  13
ENDBRANCH   1   8
BRANCH   1  17
ATOM     17  C   UNL     1      46.136   6.197  12.740  0.00  0.00    +0.000 A 
ATOM     18  C   UNL     1      47.423   6.583  12.333  0.00  0.00    +0.000 A 
ATOM     19  C   UNL     1      47.742   7.929  12.108  0.00  0.00    +0.000 A 
ATOM     20  C   UNL     1      46.714   8.855  12.307  0.00  0.00    +0.000 A 
ATOM     21  C   UNL     1      45.465   8.414  12.711  0.00  0.00    +0.000 A 
ATOM     22  N   UNL     1      45.162   7.122  12.940  0.00  0.00    +0.000 NA
BRANCH  19  23
ATOM     23  C   UNL     1      49.094   8.356  11.673  0.00  0.00    +0.000 A 
ATOM     24  C   UNL     1      50.089   7.413  11.348  0.00  0.00    +0.000 A 
ATOM     25  C   UNL     1      51.353   7.803  10.896  0.00  0.00    +0.000 A 
ATOM     26  C   UNL     1      51.663   9.154  10.772  0.00  0.00    +0.000 A 
ATOM     27  C   UNL     1      50.709  10.109  11.105  0.00  0.00    +0.000 A 
ATOM     28  C   UNL     1      49.440   9.715  11.548  0.00  0.00    +0.000 A 
ENDBRANCH  19  23
ENDBRANCH   1  17
TORSDOF 4
ENDMDL
MODEL 7
REMARK VINA RESULT:    -6.580      3.256      6.909
REMARK INTER + INTRA:          -8.218
REMARK INTER:                  -8.969
REMARK INTRA:                   0.750
REMARK UNBOUND:                -0.099
REMARK  Name = 
REMARK  4 active torsions:
REMARK  status: ('A' for Active; 'I' for Inactive)
REMARK    1  A    between atoms: C_2  and  C_4
REMARK    2  A    between atoms: N_8  and  C_9
REMARK    3  A    between atoms: C_9  and  C_10
REMARK    4  A    between atoms: C_12  and  C_13
REMARK                            x       y       z     vdW  Elec       q    Type
REMARK                         _______ _______ _______ _____ _____    ______ ____
ROOT
ATOM      1  C   UNL     1      45.801   4.960  13.333  0.00  0.00    +0.000 C 
ATOM      2  C   UNL     1      46.331   4.316  14.603  0.00  0.00    +0.000 C 
ATOM      3  C   UNL     1      47.280   4.622  13.492  0.00  0.00    +0.000 C 
ENDROOT
BRANCH   1   8
ATOM      4  C   UNL     1      47.626   9.619  12.079  0.00  0.00    +0.000 A 
ATOM      5  C   UNL     1      48.305   8.465  12.456  0.00  0.00    +0.000 A 
ATOM      6  C   UNL     1      47.574   7.363  12.913  0.00  0.00    +0.000 A 
ATOM      7  C   UNL     1      46.183   7.433  12.968  0.00  0.00    +0.000 A 
ATOM      8  N   UNL     1      45.380   6.372  13.392  0.00  0.00    +0.000 N 
ATOM      9  N   UNL     1      45.520   8.559  12.633  0.00  0.00    +0.000 NA
ATOM     10  C   UNL     1      46.247   9.627  12.209  0.00  0.00    +0.000 A 
ATOM     11  H   UNL     1      44.409   6.620  13.232  0.00  0.00    +0.000 HD
BRANCH   4  13
ATOM     12  N   UNL     1      48.069  11.182  10.273  0.00  0.00    +0.000 N 
ATOM     13  C   UNL     1      48.305  10.830  11.573  0.00  0.00    +0.000 C 
ATOM     14  O   UNL     1      49.015  11.516  12.297  0.00  0.00    +0.000 OA
ATOM     15  H   UNL     1      48.456  12.067   9.968  0.00  0.00    +0.000 HD
ATOM     16  H   UNL     1      47.302  10.798   9.737  0.00  0.00    +0.000 HD
ENDBRANCH   4  13
ENDBRANCH   1   8
BRANCH   1  17
ATOM     17  C   UNL     1      45.077   4.109  12.277  0.00  0.00    +0.000 A 
ATOM     18  C   UNL     1      45.673   3.883  11.026  0.00  0.00    +0.000 A 
ATOM     19  C   UNL     1      45.074   3.044  10.076  0.00  0.00    +0.000 A 
ATOM     20  C   UNL     1      43.864   2.449  10.444  0.00  0.00    +0.000 A 
ATOM     21  C   UNL     1      43.325   2.712  11.692  0.00  0.00    +0.000 A 
ATOM     22  N   UNL     1      43.893   3.529  12.600  0.00  0.00    +0.000 NA
BRANCH  19  23
ATOM     23  C   UNL     1      45.691   2.789   8.751  0.00  0.00    +0.000 A 
ATOM     24  C   UNL     1      45.895   3.831   7.827  0.00  0.00    +0.000 A 
ATOM     25  C   UNL     1      46.514   3.611   6.593  0.00  0.00    +0.000 A 
ATOM     26  C   UNL     1      46.931   2.330   6.242  0.00  0.00    +0.000 A 
ATOM     27  C   UNL     1      46.725   1.276   7.125  0.00  0.00    +0.000 A 
ATOM     28  C   UNL     1      46.114   1.503   8.364  0.00  0.00    +0.000 A 
ENDBRANCH  19  23
ENDBRANCH   1  17
TORSDOF 4
ENDMDL
MODEL 8
REMARK VINA RESULT:    -6.579      3.053      5.611
REMARK INTER + INTRA:          -8.216
REMARK INTER:                  -7.802
REMARK INTRA:                  -0.414
REMARK UNBOUND:                -0.099
REMARK  Name = 
REMARK  4 active torsions:
REMARK  status: ('A' for Active; 'I' for Inactive)
REMARK    1  A    between atoms: C_2  and  C_4
REMARK    2  A    between atoms: N_8  and  C_9
REMARK    3  A    between atoms: C_9  and  C_10
REMARK    4  A    between atoms: C_12  and  C_13
REMARK                            x       y       z     vdW  Elec       q    Type
REMARK                         _______ _______ _______ _____ _____    ______ ____
ROOT
ATOM      1  C   UNL     1      47.082   8.221  12.616  0.00  0.00    +0.000 C 
ATOM      2  C   UNL     1      45.783   8.863  13.077  0.00  0.00    +0.000 C 
ATOM      3  C   UNL     1      46.849   9.723  12.482  0.00  0.00    +0.000 C 
ENDROOT
BRANCH   1   8
ATOM      4  C   UNL     1      44.857   3.879  10.942  0.00  0.00    +0.000 A 
ATOM      5  C   UNL     1      45.216   4.260  12.231  0.00  0.00    +0.000 A 
ATOM      6  C   UNL     1      45.965   5.428  12.412  0.00  0.00    +0.000 A 
ATOM      7  C   UNL     1      46.325   6.195  11.306  0.00  0.00    +0.000 A 
ATOM      8  N   UNL     1      47.053   7.383  11.403  0.00  0.00    +0.000 N 
ATOM      9  N   UNL     1      46.006   5.816  10.051  0.00  0.00    +0.000 NA
ATOM     10  C   UNL     1      45.293   4.669   9.892  0.00  0.00    +0.000 A 
ATOM     11  H   UNL     1      47.086   7.815  10.486  0.00  0.00    +0.000 HD
BRANCH   4  13
ATOM     12  N   UNL     1      43.320   2.144  11.671  0.00  0.00    +0.000 N 
ATOM     13  C   UNL     1      44.058   2.671  10.647  0.00  0.00    +0.000 C 
ATOM     14  O   UNL     1      44.021   2.187   9.524  0.00  0.00    +0.000 OA
ATOM     15  H   UNL     1      42.699   1.380  11.432  0.00  0.00    +0.000 HD
ATOM     16  H   UNL     1      43.125   2.656  12.520  0.00  0.00    +0.000 HD
ENDBRANCH   4  13
ENDBRANCH   1   8
BRANCH   1  17
ATOM     17  C   UNL     1      48.167   7.848  13.638  0.00  0.00    +0.000 A 
ATOM     18  C   UNL     1      47.939   6.813  14.560  0.00  0.00    +0.000 A 
ATOM     19  C   UNL     1      48.940   6.397  15.448  0.00  0.00    +0.000 A 
ATOM     20  C   UNL     1      50.166   7.062  15.362  0.00  0.00    +0.000 A 
ATOM     21  C   UNL     1      50.330   8.076  14.434  0.00  0.00    +0.000 A 
ATOM     22  N   UNL     1      49.365   8.486  13.590  0.00  0.00    +0.000 NA
BRANCH  19  23
ATOM     23  C   UNL     1      48.720   5.302  16.425  0.00  0.00    +0.000 A 
ATOM     24  C   UNL     1      49.537   5.164  17.564  0.00  0.00    +0.000 A 
ATOM     25  C   UNL     1      49.313   4.162  18.513  0.00  0.00    +0.000 A 
ATOM     26  C   UNL     1      48.271   3.256  18.338  0.00  0.00    +0.000 A 
ATOM     27  C   UNL     1      47.460   3.354  17.213  0.00  0.00    +0.000 A 
ATOM     28  C   UNL     1      47.681   4.365  16.270  0.00  0.00    +0.000 A 
ENDBRANCH  19  23
ENDBRANCH   1  17
TORSDOF 4
ENDMDL
