MODEL 1
REMARK VINA RESULT:    -8.555      0.000      0.000
REMARK INTER + INTRA:         -14.122
REMARK INTER:                 -12.556
REMARK INTRA:                  -1.566
REMARK UNBOUND:                -1.566
REMARK  Name = 
REMARK  10 active torsions:
REMARK  status: ('A' for Active; 'I' for Inactive)
REMARK    1  A    between atoms: C_1  and  O_2
REMARK    2  A    between atoms: O_2  and  C_3
REMARK    3  A    between atoms: C_10  and  C_11
REMARK    4  A    between atoms: N_13  and  C_14
REMARK    5  A    between atoms: C_14  and  C_15
REMARK    6  A    between atoms: C_18  and  C_19
REMARK    7  A    between atoms: C_19  and  N_20
REMARK    8  A    between atoms: N_20  and  C_21
REMARK    9  A    between atoms: C_21  and  C_22
REMARK   10  A    between atoms: C_21  and  C_23
REMARK                            x       y       z     vdW  Elec       q    Type
REMARK                         _______ _______ _______ _____ _____    ______ ____
ROOT
ATOM      1  C   UNL     1      46.276   7.245  12.540  0.00  0.00    +0.000 A 
ATOM      2  C   UNL     1      46.748   6.658  11.357  0.00  0.00    +0.000 A 
ATOM      3  C   UNL     1      45.901   5.881  10.557  0.00  0.00    +0.000 A 
ATOM      4  C   UNL     1      44.565   5.669  10.927  0.00  0.00    +0.000 A 
ATOM      5  C   UNL     1      44.086   6.303  12.084  0.00  0.00    +0.000 A 
ATOM      6  C   UNL     1      44.928   7.082  12.881  0.00  0.00    +0.000 A 
ENDROOT
BRANCH   1   7
ATOM      7  C   UNL     1      47.181   8.084  13.404  0.00  0.00    +0.000 C 
BRANCH   7  10
ATOM      8  C   UNL     1      48.839   6.832  14.721  0.00  0.00    +0.000 C 
ATOM      9  O   UNL     1      49.687   6.948  13.836  0.00  0.00    +0.000 OA
ATOM     10  N   UNL     1      47.582   7.361  14.578  0.00  0.00    +0.000 N 
ATOM     11  H   UNL     1      46.878   7.191  15.283  0.00  0.00    +0.000 HD
BRANCH   8  19
ATOM     12  C   UNL     1      47.315   4.237  16.403  0.00  0.00    +0.000 A 
ATOM     13  N   UNL     1      46.917   3.288  17.268  0.00  0.00    +0.000 NA
ATOM     14  C   UNL     1      47.624   3.116  18.389  0.00  0.00    +0.000 A 
ATOM     15  N   UNL     1      48.706   3.795  18.762  0.00  0.00    +0.000 NA
ATOM     16  C   UNL     1      49.072   4.731  17.871  0.00  0.00    +0.000 A 
ATOM     17  S   UNL     1      50.436   5.692  18.183  0.00  0.00    +0.000 S 
ATOM     18  C   UNL     1      50.229   6.548  16.730  0.00  0.00    +0.000 A 
ATOM     19  C   UNL     1      49.132   6.132  15.982  0.00  0.00    +0.000 A 
ATOM     20  C   UNL     1      48.446   5.034  16.665  0.00  0.00    +0.000 A 
BRANCH  12  22
ATOM     21  C   UNL     1      47.117   3.549  14.175  0.00  0.00    +0.000 C 
ATOM     22  O   UNL     1      46.614   4.372  15.226  0.00  0.00    +0.000 OA
ENDBRANCH  12  22
ENDBRANCH   8  19
ENDBRANCH   7  10
ENDBRANCH   1   7
BRANCH   4  23
ATOM     23  C   UNL     1      43.590   4.879  10.078  0.00  0.00    +0.000 C 
BRANCH  23  24
ATOM     24  N   UNL     1      44.147   4.441   8.797  0.00  0.00    +0.000 NA
ATOM     25  H   UNL     1      45.001   4.968   8.623  0.00  0.00    +0.000 HD
BRANCH  24  26
ATOM     26  C   UNL     1      44.450   2.993   8.741  0.00  0.00    +0.000 C 
ATOM     27  C   UNL     1      44.455   2.408  10.164  0.00  0.00    +0.000 C 
BRANCH  26  28
ATOM     28  C   UNL     1      45.674   2.653   7.889  0.00  0.00    +0.000 A 
ATOM     29  C   UNL     1      46.244   3.567   6.988  0.00  0.00    +0.000 A 
ATOM     30  C   UNL     1      47.356   3.223   6.211  0.00  0.00    +0.000 A 
ATOM     31  C   UNL     1      47.917   1.955   6.317  0.00  0.00    +0.000 A 
ATOM     32  C   UNL     1      47.387   1.040   7.220  0.00  0.00    +0.000 A 
ATOM     33  C   UNL     1      46.286   1.390   8.010  0.00  0.00    +0.000 A 
ENDBRANCH  26  28
ENDBRANCH  24  26
ENDBRANCH  23  24
ENDBRANCH   4  23
TORSDOF 8
ENDMDL
MODEL 2
REMARK VINA RESULT:    -7.620      1.389      1.734
REMARK INTER + INTRA:         -12.750
REMARK INTER:                 -11.380
REMARK INTRA:                  -1.370
REMARK UNBOUND:                -1.566
REMARK  Name = 
REMARK  10 active torsions:
REMARK  status: ('A' for Active; 'I' for Inactive)
REMARK    1  A    between atoms: C_1  and  O_2
REMARK    2  A    between atoms: O_2  and  C_3
REMARK    3  A    between atoms: C_10  and  C_11
REMARK    4  A    between atoms: N_13  and  C_14
REMARK    5  A    between atoms: C_14  and  C_15
REMARK    6  A    between atoms: C_18  and  C_19
REMARK    7  A    between atoms: C_19  and  N_20
REMARK    8  A    between atoms: N_20  and  C_21
REMARK    9  A    between atoms: C_21  and  C_22
REMARK   10  A    between atoms: C_21  and  C_23
REMARK                            x       y       z     vdW  Elec       q    Type
REMARK                         _______ _______ _______ _____ _____    ______ ____
ROOT
ATOM      1  C   UNL     1      47.073   8.003  13.070  0.00  0.00    +0.000 A 
ATOM      2  C   UNL     1      45.809   8.477  12.692  0.00  0.00    +0.000 A 
ATOM      3  C   UNL     1      44.945   7.678  11.934  0.00  0.00    +0.000 A 
ATOM      4  C   UNL     1      45.328   6.391  11.532  0.00  0.00    +0.000 A 
ATOM      5  C   UNL     1      46.573   5.904  11.959  0.00  0.00    +0.000 A 
ATOM      6  C   UNL     1      47.436   6.698  12.719  0.00  0.00    +0.000 A 
ENDROOT
BRANCH   1   7
ATOM      7  C   UNL     1      48.009   8.857  13.887  0.00  0.00    +0.000 C 
BRANCH   7  10
ATOM      8  C   UNL     1      48.911   8.284  16.103  0.00  0.00    +0.000 C 
ATOM      9  O   UNL     1      48.313   9.223  16.631  0.00  0.00    +0.000 OA
ATOM     10  N   UNL     1      48.813   8.044  14.757  0.00  0.00    +0.000 N 
ATOM     11  H   UNL     1      49.370   7.316  14.330  0.00  0.00    +0.000 HD
BRANCH   8  19
ATOM     12  C   UNL     1      48.896   4.868  16.566  0.00  0.00    +0.000 A 
ATOM     13  N   UNL     1      49.099   3.594  16.945  0.00  0.00    +0.000 NA
ATOM     14  C   UNL     1      50.087   3.340  17.808  0.00  0.00    +0.000 A 
ATOM     15  N   UNL     1      50.917   4.225  18.355  0.00  0.00    +0.000 NA
ATOM     16  C   UNL     1      50.683   5.484  17.949  0.00  0.00    +0.000 A 
ATOM     17  S   UNL     1      51.651   6.745  18.544  0.00  0.00    +0.000 S 
ATOM     18  C   UNL     1      50.784   7.901  17.650  0.00  0.00    +0.000 A 
ATOM     19  C   UNL     1      49.750   7.365  16.888  0.00  0.00    +0.000 A 
ATOM     20  C   UNL     1      49.700   5.912  17.062  0.00  0.00    +0.000 A 
BRANCH  12  22
ATOM     21  C   UNL     1      47.171   3.950  15.279  0.00  0.00    +0.000 C 
ATOM     22  O   UNL     1      47.912   5.115  15.636  0.00  0.00    +0.000 OA
ENDBRANCH  12  22
ENDBRANCH   8  19
ENDBRANCH   7  10
ENDBRANCH   1   7
BRANCH   4  23
ATOM     23  C   UNL     1      44.417   5.464  10.754  0.00  0.00    +0.000 C 
BRANCH  23  24
ATOM     24  N   UNL     1      44.977   5.026   9.474  0.00  0.00    +0.000 NA
ATOM     25  H   UNL     1      45.992   5.057   9.543  0.00  0.00    +0.000 HD
BRANCH  24  26
ATOM     26  C   UNL     1      44.559   3.664   9.074  0.00  0.00    +0.000 C 
ATOM     27  C   UNL     1      44.114   2.871  10.315  0.00  0.00    +0.000 C 
BRANCH  26  28
ATOM     28  C   UNL     1      45.565   2.953   8.168  0.00  0.00    +0.000 A 
ATOM     29  C   UNL     1      46.162   3.581   7.063  0.00  0.00    +0.000 A 
ATOM     30  C   UNL     1      47.070   2.901   6.244  0.00  0.00    +0.000 A 
ATOM     31  C   UNL     1      47.396   1.576   6.512  0.00  0.00    +0.000 A 
ATOM     32  C   UNL     1      46.839   0.939   7.616  0.00  0.00    +0.000 A 
ATOM     33  C   UNL     1      45.945   1.625   8.445  0.00  0.00    +0.000 A 
ENDBRANCH  26  28
ENDBRANCH  24  26
ENDBRANCH  23  24
ENDBRANCH   4  23
TORSDOF 8
ENDMDL
MODEL 3
REMARK VINA RESULT:    -7.326      2.740      3.706
REMARK INTER + INTRA:         -12.318
REMARK INTER:                 -11.245
REMARK INTRA:                  -1.073
REMARK UNBOUND:                -1.566
REMARK  Name = 
REMARK  10 active torsions:
REMARK  status: ('A' for Active; 'I' for Inactive)
REMARK    1  A    between atoms: C_1  and  O_2
REMARK    2  A    between atoms: O_2  and  C_3
REMARK    3  A    between atoms: C_10  and  C_11
REMARK    4  A    between atoms: N_13  and  C_14
REMARK    5  A    between atoms: C_14  and  C_15
REMARK    6  A    between atoms: C_18  and  C_19
REMARK    7  A    between atoms: C_19  and  N_20
REMARK    8  A    between atoms: N_20  and  C_21
REMARK    9  A    between atoms: C_21  and  C_22
REMARK   10  A    between atoms: C_21  and  C_23
REMARK                            x       y       z     vdW  Elec       q    Type
REMARK                         _______ _______ _______ _____ _____    ______ ____
ROOT
ATOM      1  C   UNL     1      48.429   6.357  15.234  0.00  0.00    +0.000 A 
ATOM      2  C   UNL     1      47.754   5.189  15.618  0.00  0.00    +0.000 A 
ATOM      3  C   UNL     1      46.827   4.585  14.759  0.00  0.00    +0.000 A 
ATOM      4  C   UNL     1      46.550   5.139  13.502  0.00  0.00    +0.000 A 
ATOM      5  C   UNL     1      47.269   6.278  13.103  0.00  0.00    +0.000 A 
ATOM      6  C   UNL     1      48.197   6.879  13.957  0.00  0.00    +0.000 A 
ENDROOT
BRANCH   1   7
ATOM      7  C   UNL     1      49.429   7.011  16.151  0.00  0.00    +0.000 C 
BRANCH   7  10
ATOM      8  C   UNL     1      50.661   5.815  17.913  0.00  0.00    +0.000 C 
ATOM      9  O   UNL     1      50.041   6.404  18.799  0.00  0.00    +0.000 OA
ATOM     10  N   UNL     1      50.419   6.065  16.587  0.00  0.00    +0.000 N 
ATOM     11  H   UNL     1      50.989   5.628  15.876  0.00  0.00    +0.000 HD
BRANCH   8  19
ATOM     12  C   UNL     1      50.916   2.429  17.320  0.00  0.00    +0.000 A 
ATOM     13  N   UNL     1      51.255   1.130  17.255  0.00  0.00    +0.000 NA
ATOM     14  C   UNL     1      52.405   0.747  17.819  0.00  0.00    +0.000 A 
ATOM     15  N   UNL     1      53.279   1.523  18.456  0.00  0.00    +0.000 NA
ATOM     16  C   UNL     1      52.905   2.813  18.495  0.00  0.00    +0.000 A 
ATOM     17  S   UNL     1      53.903   3.948  19.268  0.00  0.00    +0.000 S 
ATOM     18  C   UNL     1      52.819   5.210  18.926  0.00  0.00    +0.000 A 
ATOM     19  C   UNL     1      51.685   4.806  18.228  0.00  0.00    +0.000 A 
ATOM     20  C   UNL     1      51.745   3.368  17.961  0.00  0.00    +0.000 A 
BRANCH  12  22
ATOM     21  C   UNL     1      48.595   2.670  17.504  0.00  0.00    +0.000 C 
ATOM     22  O   UNL     1      49.757   2.824  16.691  0.00  0.00    +0.000 OA
ENDBRANCH  12  22
ENDBRANCH   8  19
ENDBRANCH   7  10
ENDBRANCH   1   7
BRANCH   4  23
ATOM     23  C   UNL     1      45.595   4.504  12.513  0.00  0.00    +0.000 C 
BRANCH  23  24
ATOM     24  N   UNL     1      45.383   5.302  11.303  0.00  0.00    +0.000 NA
ATOM     25  H   UNL     1      46.288   5.462  10.864  0.00  0.00    +0.000 HD
BRANCH  24  26
ATOM     26  C   UNL     1      44.472   4.669  10.323  0.00  0.00    +0.000 C 
ATOM     27  C   UNL     1      43.301   3.996  11.059  0.00  0.00    +0.000 C 
BRANCH  26  28
ATOM     28  C   UNL     1      45.189   3.794   9.294  0.00  0.00    +0.000 A 
ATOM     29  C   UNL     1      45.180   2.391   9.358  0.00  0.00    +0.000 A 
ATOM     30  C   UNL     1      45.857   1.616   8.409  0.00  0.00    +0.000 A 
ATOM     31  C   UNL     1      46.559   2.231   7.378  0.00  0.00    +0.000 A 
ATOM     32  C   UNL     1      46.561   3.617   7.276  0.00  0.00    +0.000 A 
ATOM     33  C   UNL     1      45.870   4.392   8.215  0.00  0.00    +0.000 A 
ENDBRANCH  26  28
ENDBRANCH  24  26
ENDBRANCH  23  24
ENDBRANCH   4  23
TORSDOF 8
ENDMDL
MODEL 4
REMARK VINA RESULT:    -7.291      2.313      2.723
REMARK INTER + INTRA:         -12.267
REMARK INTER:                 -11.135
REMARK INTRA:                  -1.132
REMARK UNBOUND:                -1.566
REMARK  Name = 
REMARK  10 active torsions:
REMARK  status: ('A' for Active; 'I' for Inactive)
REMARK    1  A    between atoms: C_1  and  O_2
REMARK    2  A    between atoms: O_2  and  C_3
REMARK    3  A    between atoms: C_10  and  C_11
REMARK    4  A    between atoms: N_13  and  C_14
REMARK    5  A    between atoms: C_14  and  C_15
REMARK    6  A    between atoms: C_18  and  C_19
REMARK    7  A    between atoms: C_19  and  N_20
REMARK    8  A    between atoms: N_20  and  C_21
REMARK    9  A    between atoms: C_21  and  C_22
REMARK   10  A    between atoms: C_21  and  C_23
REMARK                            x       y       z     vdW  Elec       q    Type
REMARK                         _______ _______ _______ _____ _____    ______ ____
ROOT
ATOM      1  C   UNL     1      47.252   7.754  13.142  0.00  0.00    +0.000 A 
ATOM      2  C   UNL     1      46.032   8.331  12.762  0.00  0.00    +0.000 A 
ATOM      3  C   UNL     1      45.094   7.598  12.025  0.00  0.00    +0.000 A 
ATOM      4  C   UNL     1      45.358   6.274  11.646  0.00  0.00    +0.000 A 
ATOM      5  C   UNL     1      46.558   5.686  12.075  0.00  0.00    +0.000 A 
ATOM      6  C   UNL     1      47.494   6.415  12.815  0.00  0.00    +0.000 A 
ENDROOT
BRANCH   1   7
ATOM      7  C   UNL     1      48.265   8.535  13.937  0.00  0.00    +0.000 C 
BRANCH   7  10
ATOM      8  C   UNL     1      48.858   8.556  16.324  0.00  0.00    +0.000 C 
ATOM      9  O   UNL     1      50.062   8.526  16.065  0.00  0.00    +0.000 OA
ATOM     10  N   UNL     1      47.915   8.558  15.330  0.00  0.00    +0.000 N 
ATOM     11  H   UNL     1      46.933   8.508  15.564  0.00  0.00    +0.000 HD
BRANCH   8  19
ATOM     12  C   UNL     1      48.298   6.147  18.725  0.00  0.00    +0.000 A 
ATOM     13  N   UNL     1      47.965   5.431  19.813  0.00  0.00    +0.000 NA
ATOM     14  C   UNL     1      47.477   6.081  20.874  0.00  0.00    +0.000 A 
ATOM     15  N   UNL     1      47.274   7.392  20.983  0.00  0.00    +0.000 NA
ATOM     16  C   UNL     1      47.621   8.071  19.877  0.00  0.00    +0.000 A 
ATOM     17  S   UNL     1      47.432   9.757  19.840  0.00  0.00    +0.000 S 
ATOM     18  C   UNL     1      48.021   9.839  18.248  0.00  0.00    +0.000 A 
ATOM     19  C   UNL     1      48.370   8.604  17.712  0.00  0.00    +0.000 A 
ATOM     20  C   UNL     1      48.139   7.546  18.696  0.00  0.00    +0.000 A 
BRANCH  12  22
ATOM     21  C   UNL     1      50.267   5.343  17.749  0.00  0.00    +0.000 C 
ATOM     22  O   UNL     1      48.850   5.477  17.657  0.00  0.00    +0.000 OA
ENDBRANCH  12  22
ENDBRANCH   8  19
ENDBRANCH   7  10
ENDBRANCH   1   7
BRANCH   4  23
ATOM     23  C   UNL     1      44.363   5.418  10.891  0.00  0.00    +0.000 C 
BRANCH  23  24
ATOM     24  N   UNL     1      44.810   5.038   9.550  0.00  0.00    +0.000 NA
ATOM     25  H   UNL     1      45.817   5.184   9.496  0.00  0.00    +0.000 HD
BRANCH  24  26
ATOM     26  C   UNL     1      44.503   3.635   9.193  0.00  0.00    +0.000 C 
ATOM     27  C   UNL     1      44.067   2.862  10.449  0.00  0.00    +0.000 C 
BRANCH  26  28
ATOM     28  C   UNL     1      45.590   2.962   8.354  0.00  0.00    +0.000 A 
ATOM     29  C   UNL     1      46.400   3.675   7.455  0.00  0.00    +0.000 A 
ATOM     30  C   UNL     1      47.378   3.029   6.690  0.00  0.00    +0.000 A 
ATOM     31  C   UNL     1      47.563   1.656   6.807  0.00  0.00    +0.000 A 
ATOM     32  C   UNL     1      46.792   0.931   7.709  0.00  0.00    +0.000 A 
ATOM     33  C   UNL     1      45.826   1.579   8.487  0.00  0.00    +0.000 A 
ENDBRANCH  26  28
ENDBRANCH  24  26
ENDBRANCH  23  24
ENDBRANCH   4  23
TORSDOF 8
ENDMDL
MODEL 5
REMARK VINA RESULT:    -6.831      3.280      7.949
REMARK INTER + INTRA:         -11.592
REMARK INTER:                  -9.562
REMARK INTRA:                  -2.030
REMARK UNBOUND:                -1.566
REMARK  Name = 
REMARK  10 active torsions:
REMARK  status: ('A' for Active; 'I' for Inactive)
REMARK    1  A    between atoms: C_1  and  O_2
REMARK    2  A    between atoms: O_2  and  C_3
REMARK    3  A    between atoms: C_10  and  C_11
REMARK    4  A    between atoms: N_13  and  C_14
REMARK    5  A    between atoms: C_14  and  C_15
REMARK    6  A    between atoms: C_18  and  C_19
REMARK    7  A    between atoms: C_19  and  N_20
REMARK    8  A    between atoms: N_20  and  C_21
REMARK    9  A    between atoms: C_21  and  C_22
REMARK   10  A    between atoms: C_21  and  C_23
REMARK                            x       y       z     vdW  Elec       q    Type
REMARK                         _______ _______ _______ _____ _____    ______ ____
ROOT
ATOM      1  C   UNL     1      48.526   7.896  13.374  0.00  0.00    +0.000 A 
ATOM      2  C   UNL     1      47.912   8.905  14.130  0.00  0.00    +0.000 A 
ATOM      3  C   UNL     1      47.975   8.889  15.528  0.00  0.00    +0.000 A 
ATOM      4  C   UNL     1      48.647   7.859  16.202  0.00  0.00    +0.000 A 
ATOM      5  C   UNL     1      49.304   6.882  15.438  0.00  0.00    +0.000 A 
ATOM      6  C   UNL     1      49.246   6.899  14.042  0.00  0.00    +0.000 A 
ENDROOT
BRANCH   1   7
ATOM      7  C   UNL     1      48.464   7.908  11.868  0.00  0.00    +0.000 C 
BRANCH   7  10
ATOM      8  C   UNL     1      46.310   6.900  11.243  0.00  0.00    +0.000 C 
ATOM      9  O   UNL     1      45.699   7.926  11.543  0.00  0.00    +0.000 OA
ATOM     10  N   UNL     1      47.671   6.815  11.380  0.00  0.00    +0.000 N 
ATOM     11  H   UNL     1      48.145   5.941  11.199  0.00  0.00    +0.000 HD
BRANCH   8  19
ATOM     12  C   UNL     1      44.490   4.362  12.702  0.00  0.00    +0.000 A 
ATOM     13  N   UNL     1      43.782   3.259  13.000  0.00  0.00    +0.000 NA
ATOM     14  C   UNL     1      43.432   2.442  12.002  0.00  0.00    +0.000 A 
ATOM     15  N   UNL     1      43.711   2.595  10.710  0.00  0.00    +0.000 NA
ATOM     16  C   UNL     1      44.417   3.709  10.454  0.00  0.00    +0.000 A 
ATOM     17  S   UNL     1      44.860   4.066   8.855  0.00  0.00    +0.000 S 
ATOM     18  C   UNL     1      45.661   5.484   9.339  0.00  0.00    +0.000 A 
ATOM     19  C   UNL     1      45.615   5.717  10.710  0.00  0.00    +0.000 A 
ATOM     20  C   UNL     1      44.857   4.655  11.375  0.00  0.00    +0.000 A 
BRANCH  12  22
ATOM     21  C   UNL     1      46.121   5.043  14.236  0.00  0.00    +0.000 C 
ATOM     22  O   UNL     1      44.801   5.226  13.728  0.00  0.00    +0.000 OA
ENDBRANCH  12  22
ENDBRANCH   8  19
ENDBRANCH   7  10
ENDBRANCH   1   7
BRANCH   4  23
ATOM     23  C   UNL     1      48.790   7.816  17.709  0.00  0.00    +0.000 C 
BRANCH  23  24
ATOM     24  N   UNL     1      47.731   7.057  18.378  0.00  0.00    +0.000 NA
ATOM     25  H   UNL     1      47.077   6.729  17.670  0.00  0.00    +0.000 HD
BRANCH  24  26
ATOM     26  C   UNL     1      48.228   5.898  19.155  0.00  0.00    +0.000 C 
ATOM     27  C   UNL     1      49.383   6.341  20.069  0.00  0.00    +0.000 C 
BRANCH  26  28
ATOM     28  C   UNL     1      48.505   4.660  18.302  0.00  0.00    +0.000 A 
ATOM     29  C   UNL     1      47.517   4.050  17.511  0.00  0.00    +0.000 A 
ATOM     30  C   UNL     1      47.797   2.910  16.751  0.00  0.00    +0.000 A 
ATOM     31  C   UNL     1      49.071   2.352  16.770  0.00  0.00    +0.000 A 
ATOM     32  C   UNL     1      50.074   2.952  17.524  0.00  0.00    +0.000 A 
ATOM     33  C   UNL     1      49.799   4.103  18.270  0.00  0.00    +0.000 A 
ENDBRANCH  26  28
ENDBRANCH  24  26
ENDBRANCH  23  24
ENDBRANCH   4  23
TORSDOF 8
ENDMDL
MODEL 6
REMARK VINA RESULT:    -6.710      3.062      5.563
REMARK INTER + INTRA:         -11.414
REMARK INTER:                  -9.655
REMARK INTRA:                  -1.760
REMARK UNBOUND:                -1.566
REMARK  Name = 
REMARK  10 active torsions:
REMARK  status: ('A' for Active; 'I' for Inactive)
REMARK    1  A    between atoms: C_1  and  O_2
REMARK    2  A    between atoms: O_2  and  C_3
REMARK    3  A    between atoms: C_10  and  C_11
REMARK    4  A    between atoms: N_13  and  C_14
REMARK    5  A    between atoms: C_14  and  C_15
REMARK    6  A    between atoms: C_18  and  C_19
REMARK    7  A    between atoms: C_19  and  N_20
REMARK    8  A    between atoms: N_20  and  C_21
REMARK    9  A    between atoms: C_21  and  C_22
REMARK   10  A    between atoms: C_21  and  C_23
REMARK                            x       y       z     vdW  Elec       q    Type
REMARK                         _______ _______ _______ _____ _____    ______ ____
ROOT
ATOM      1  C   UNL     1      47.662   4.138  16.001  0.00  0.00    +0.000 A 
ATOM      2  C   UNL     1      48.137   5.456  16.023  0.00  0.00    +0.000 A 
ATOM      3  C   UNL     1      48.085   6.253  14.874  0.00  0.00    +0.000 A 
ATOM      4  C   UNL     1      47.563   5.747  13.675  0.00  0.00    +0.000 A 
ATOM      5  C   UNL     1      47.042   4.443  13.675  0.00  0.00    +0.000 A 
ATOM      6  C   UNL     1      47.088   3.648  14.823  0.00  0.00    +0.000 A 
ENDROOT
BRANCH   1   7
ATOM      7  C   UNL     1      47.712   3.274  17.236  0.00  0.00    +0.000 C 
BRANCH   7  10
ATOM      8  C   UNL     1      49.942   2.263  17.005  0.00  0.00    +0.000 C 
ATOM      9  O   UNL     1      49.599   1.641  15.999  0.00  0.00    +0.000 OA
ATOM     10  N   UNL     1      49.067   3.082  17.671  0.00  0.00    +0.000 N 
ATOM     11  H   UNL     1      49.346   3.525  18.536  0.00  0.00    +0.000 HD
BRANCH   8  19
ATOM     12  C   UNL     1      52.148   4.576  18.297  0.00  0.00    +0.000 A 
ATOM     13  N   UNL     1      53.196   5.252  18.800  0.00  0.00    +0.000 NA
ATOM     14  C   UNL     1      54.311   4.573  19.084  0.00  0.00    +0.000 A 
ATOM     15  N   UNL     1      54.514   3.267  18.921  0.00  0.00    +0.000 NA
ATOM     16  C   UNL     1      53.443   2.629  18.419  0.00  0.00    +0.000 A 
ATOM     17  S   UNL     1      53.522   0.955  18.148  0.00  0.00    +0.000 S 
ATOM     18  C   UNL     1      51.933   0.925  17.550  0.00  0.00    +0.000 A 
ATOM     19  C   UNL     1      51.310   2.169  17.539  0.00  0.00    +0.000 A 
ATOM     20  C   UNL     1      52.217   3.188  18.072  0.00  0.00    +0.000 A 
BRANCH  12  22
ATOM     21  C   UNL     1      51.196   6.485  17.335  0.00  0.00    +0.000 C 
ATOM     22  O   UNL     1      50.986   5.273  18.057  0.00  0.00    +0.000 OA
ENDBRANCH  12  22
ENDBRANCH   8  19
ENDBRANCH   7  10
ENDBRANCH   1   7
BRANCH   4  23
ATOM     23  C   UNL     1      47.437   6.577  12.414  0.00  0.00    +0.000 C 
BRANCH  23  24
ATOM     24  N   UNL     1      46.322   7.524  12.443  0.00  0.00    +0.000 NA
ATOM     25  H   UNL     1      46.693   8.459  12.285  0.00  0.00    +0.000 HD
BRANCH  24  26
ATOM     26  C   UNL     1      45.273   7.242  11.437  0.00  0.00    +0.000 C 
ATOM     27  C   UNL     1      44.341   8.458  11.301  0.00  0.00    +0.000 C 
BRANCH  26  28
ATOM     28  C   UNL     1      44.571   5.899  11.642  0.00  0.00    +0.000 A 
ATOM     29  C   UNL     1      43.822   5.605  12.793  0.00  0.00    +0.000 A 
ATOM     30  C   UNL     1      43.202   4.362  12.959  0.00  0.00    +0.000 A 
ATOM     31  C   UNL     1      43.321   3.385  11.976  0.00  0.00    +0.000 A 
ATOM     32  C   UNL     1      44.035   3.660  10.815  0.00  0.00    +0.000 A 
ATOM     33  C   UNL     1      44.641   4.909  10.641  0.00  0.00    +0.000 A 
ENDBRANCH  26  28
ENDBRANCH  24  26
ENDBRANCH  23  24
ENDBRANCH   4  23
TORSDOF 8
ENDMDL
MODEL 7
REMARK VINA RESULT:    -6.222      3.659      8.448
REMARK INTER + INTRA:         -10.698
REMARK INTER:                  -8.453
REMARK INTRA:                  -2.244
REMARK UNBOUND:                -1.566
REMARK  Name = 
REMARK  10 active torsions:
REMARK  status: ('A' for Active; 'I' for Inactive)
REMARK    1  A    between atoms: C_1  and  O_2
REMARK    2  A    between atoms: O_2  and  C_3
REMARK    3  A    between atoms: C_10  and  C_11
REMARK    4  A    between atoms: N_13  and  C_14
REMARK    5  A    between atoms: C_14  and  C_15
REMARK    6  A    between atoms: C_18  and  C_19
REMARK    7  A    between atoms: C_19  and  N_20
REMARK    8  A    between atoms: N_20  and  C_21
REMARK    9  A    between atoms: C_21  and  C_22
REMARK   10  A    between atoms: C_21  and  C_23
REMARK                            x       y       z     vdW  Elec       q    Type
REMARK                         _______ _______ _______ _____ _____    ______ ____
ROOT
ATOM      1  C   UNL     1      48.725   8.303  15.713  0.00  0.00    +0.000 A 
ATOM      2  C   UNL     1      48.099   8.841  16.846  0.00  0.00    +0.000 A 
ATOM      3  C   UNL     1      48.586   8.565  18.130  0.00  0.00    +0.000 A 
ATOM      4  C   UNL     1      49.705   7.740  18.308  0.00  0.00    +0.000 A 
ATOM      5  C   UNL     1      50.358   7.249  17.167  0.00  0.00    +0.000 A 
ATOM      6  C   UNL     1      49.877   7.527  15.885  0.00  0.00    +0.000 A 
ENDROOT
BRANCH   1   7
ATOM      7  C   UNL     1      48.208   8.597  14.328  0.00  0.00    +0.000 C 
BRANCH   7  10
ATOM      8  C   UNL     1      47.594   6.482  13.234  0.00  0.00    +0.000 C 
ATOM      9  O   UNL     1      48.764   6.260  12.920  0.00  0.00    +0.000 OA
ATOM     10  N   UNL     1      47.243   7.614  13.923  0.00  0.00    +0.000 N 
ATOM     11  H   UNL     1      46.270   7.814  14.106  0.00  0.00    +0.000 HD
BRANCH   8  19
ATOM     12  C   UNL     1      44.447   6.869  11.882  0.00  0.00    +0.000 A 
ATOM     13  N   UNL     1      43.194   6.734  11.413  0.00  0.00    +0.000 NA
ATOM     14  C   UNL     1      42.658   5.510  11.382  0.00  0.00    +0.000 A 
ATOM     15  N   UNL     1      43.235   4.376  11.771  0.00  0.00    +0.000 NA
ATOM     16  C   UNL     1      44.486   4.553  12.229  0.00  0.00    +0.000 A 
ATOM     17  S   UNL     1      45.376   3.212  12.767  0.00  0.00    +0.000 S 
ATOM     18  C   UNL     1      46.709   4.188  13.159  0.00  0.00    +0.000 A 
ATOM     19  C   UNL     1      46.514   5.541  12.897  0.00  0.00    +0.000 A 
ATOM     20  C   UNL     1      45.182   5.755  12.328  0.00  0.00    +0.000 A 
BRANCH  12  22
ATOM     21  C   UNL     1      44.266   9.063  11.087  0.00  0.00    +0.000 C 
ATOM     22  O   UNL     1      45.011   8.125  11.861  0.00  0.00    +0.000 OA
ENDBRANCH  12  22
ENDBRANCH   8  19
ENDBRANCH   7  10
ENDBRANCH   1   7
BRANCH   4  23
ATOM     23  C   UNL     1      50.305   7.446  19.668  0.00  0.00    +0.000 C 
BRANCH  23  24
ATOM     24  N   UNL     1      49.535   6.481  20.454  0.00  0.00    +0.000 NA
ATOM     25  H   UNL     1      48.546   6.633  20.267  0.00  0.00    +0.000 HD
BRANCH  24  26
ATOM     26  C   UNL     1      49.874   5.069  20.163  0.00  0.00    +0.000 C 
ATOM     27  C   UNL     1      51.402   4.898  20.119  0.00  0.00    +0.000 C 
BRANCH  26  28
ATOM     28  C   UNL     1      49.115   4.490  18.968  0.00  0.00    +0.000 A 
ATOM     29  C   UNL     1      47.822   4.910  18.618  0.00  0.00    +0.000 A 
ATOM     30  C   UNL     1      47.147   4.352  17.527  0.00  0.00    +0.000 A 
ATOM     31  C   UNL     1      47.752   3.358  16.765  0.00  0.00    +0.000 A 
ATOM     32  C   UNL     1      49.043   2.943  17.074  0.00  0.00    +0.000 A 
ATOM     33  C   UNL     1      49.725   3.513  18.155  0.00  0.00    +0.000 A 
ENDBRANCH  26  28
ENDBRANCH  24  26
ENDBRANCH  23  24
ENDBRANCH   4  23
TORSDOF 8
ENDMDL
MODEL 8
REMARK VINA RESULT:    -6.140      3.717      8.380
REMARK INTER + INTRA:         -10.578
REMARK INTER:                  -8.680
REMARK INTRA:                  -1.898
REMARK UNBOUND:                -1.566
REMARK  Name = 
REMARK  10 active torsions:
REMARK  status: ('A' for Active; 'I' for Inactive)
REMARK    1  A    between atoms: C_1  and  O_2
REMARK    2  A    between atoms: O_2  and  C_3
REMARK    3  A    between atoms: C_10  and  C_11
REMARK    4  A    between atoms: N_13  and  C_14
REMARK    5  A    between atoms: C_14  and  C_15
REMARK    6  A    between atoms: C_18  and  C_19
REMARK    7  A    between atoms: C_19  and  N_20
REMARK    8  A    between atoms: N_20  and  C_21
REMARK    9  A    between atoms: C_21  and  C_22
REMARK   10  A    between atoms: C_21  and  C_23
REMARK                            x       y       z     vdW  Elec       q    Type
REMARK                         _______ _______ _______ _____ _____    ______ ____
ROOT
ATOM      1  C   UNL     1      48.300   8.750  15.416  0.00  0.00    +0.000 A 
ATOM      2  C   UNL     1      48.278   9.770  16.377  0.00  0.00    +0.000 A 
ATOM      3  C   UNL     1      48.553   9.491  17.721  0.00  0.00    +0.000 A 
ATOM      4  C   UNL     1      48.848   8.184  18.134  0.00  0.00    +0.000 A 
ATOM      5  C   UNL     1      48.920   7.178  17.158  0.00  0.00    +0.000 A 
ATOM      6  C   UNL     1      48.651   7.456  15.815  0.00  0.00    +0.000 A 
ENDROOT
BRANCH   1   7
ATOM      7  C   UNL     1      48.007   9.043  13.966  0.00  0.00    +0.000 C 
BRANCH   7  10
ATOM      8  C   UNL     1      46.871   7.460  12.466  0.00  0.00    +0.000 C 
ATOM      9  O   UNL     1      47.907   7.258  11.832  0.00  0.00    +0.000 OA
ATOM     10  N   UNL     1      46.841   8.329  13.526  0.00  0.00    +0.000 N 
ATOM     11  H   UNL     1      45.966   8.539  13.985  0.00  0.00    +0.000 HD
BRANCH   8  19
ATOM     12  C   UNL     1      45.764   4.218  12.844  0.00  0.00    +0.000 A 
ATOM     13  N   UNL     1      45.102   3.047  12.837  0.00  0.00    +0.000 NA
ATOM     14  C   UNL     1      43.879   3.015  12.298  0.00  0.00    +0.000 A 
ATOM     15  N   UNL     1      43.221   4.034  11.751  0.00  0.00    +0.000 NA
ATOM     16  C   UNL     1      43.915   5.184  11.780  0.00  0.00    +0.000 A 
ATOM     17  S   UNL     1      43.225   6.591  11.127  0.00  0.00    +0.000 S 
ATOM     18  C   UNL     1      44.607   7.505  11.506  0.00  0.00    +0.000 A 
ATOM     19  C   UNL     1      45.614   6.774  12.128  0.00  0.00    +0.000 A 
ATOM     20  C   UNL     1      45.190   5.383  12.301  0.00  0.00    +0.000 A 
BRANCH  12  22
ATOM     21  C   UNL     1      46.931   4.479  14.856  0.00  0.00    +0.000 C 
ATOM     22  O   UNL     1      47.000   4.255  13.449  0.00  0.00    +0.000 OA
ENDBRANCH  12  22
ENDBRANCH   8  19
ENDBRANCH   7  10
ENDBRANCH   1   7
BRANCH   4  23
ATOM     23  C   UNL     1      49.201   7.831  19.564  0.00  0.00    +0.000 C 
BRANCH  23  24
ATOM     24  N   UNL     1      48.560   6.605  20.043  0.00  0.00    +0.000 NA
ATOM     25  H   UNL     1      47.897   6.294  19.335  0.00  0.00    +0.000 HD
BRANCH  24  26
ATOM     26  C   UNL     1      49.511   5.508  20.331  0.00  0.00    +0.000 C 
ATOM     27  C   UNL     1      50.838   6.091  20.848  0.00  0.00    +0.000 C 
BRANCH  26  28
ATOM     28  C   UNL     1      49.641   4.492  19.195  0.00  0.00    +0.000 A 
ATOM     29  C   UNL     1      48.546   3.761  18.707  0.00  0.00    +0.000 A 
ATOM     30  C   UNL     1      48.697   2.828  17.676  0.00  0.00    +0.000 A 
ATOM     31  C   UNL     1      49.950   2.604  17.114  0.00  0.00    +0.000 A 
ATOM     32  C   UNL     1      51.045   3.334  17.561  0.00  0.00    +0.000 A 
ATOM     33  C   UNL     1      50.891   4.280  18.581  0.00  0.00    +0.000 A 
ENDBRANCH  26  28
ENDBRANCH  24  26
ENDBRANCH  23  24
ENDBRANCH   4  23
TORSDOF 8
ENDMDL
MODEL 9
REMARK VINA RESULT:    -5.898      2.291      4.068
REMARK INTER + INTRA:         -10.222
REMARK INTER:                  -9.226
REMARK INTRA:                  -0.997
REMARK UNBOUND:                -1.566
REMARK  Name = 
REMARK  10 active torsions:
REMARK  status: ('A' for Active; 'I' for Inactive)
REMARK    1  A    between atoms: C_1  and  O_2
REMARK    2  A    between atoms: O_2  and  C_3
REMARK    3  A    between atoms: C_10  and  C_11
REMARK    4  A    between atoms: N_13  and  C_14
REMARK    5  A    between atoms: C_14  and  C_15
REMARK    6  A    between atoms: C_18  and  C_19
REMARK    7  A    between atoms: C_19  and  N_20
REMARK    8  A    between atoms: N_20  and  C_21
REMARK    9  A    between atoms: C_21  and  C_22
REMARK   10  A    between atoms: C_21  and  C_23
REMARK                            x       y       z     vdW  Elec       q    Type
REMARK                         _______ _______ _______ _____ _____    ______ ____
ROOT
ATOM      1  C   UNL     1      47.148   4.381  14.938  0.00  0.00    +0.000 A 
ATOM      2  C   UNL     1      47.233   5.745  14.629  0.00  0.00    +0.000 A 
ATOM      3  C   UNL     1      46.881   6.212  13.356  0.00  0.00    +0.000 A 
ATOM      4  C   UNL     1      46.443   5.323  12.364  0.00  0.00    +0.000 A 
ATOM      5  C   UNL     1      46.311   3.966  12.698  0.00  0.00    +0.000 A 
ATOM      6  C   UNL     1      46.657   3.499  13.969  0.00  0.00    +0.000 A 
ENDROOT
BRANCH   1   7
ATOM      7  C   UNL     1      47.523   3.871  16.307  0.00  0.00    +0.000 C 
BRANCH   7  10
ATOM      8  C   UNL     1      48.553   5.269  18.049  0.00  0.00    +0.000 C 
ATOM      9  O   UNL     1      47.524   5.253  18.725  0.00  0.00    +0.000 OA
ATOM     10  N   UNL     1      48.626   4.617  16.845  0.00  0.00    +0.000 N 
ATOM     11  H   UNL     1      49.453   4.704  16.271  0.00  0.00    +0.000 HD
BRANCH   8  19
ATOM     12  C   UNL     1      50.013   8.264  17.165  0.00  0.00    +0.000 A 
ATOM     13  N   UNL     1      50.798   9.343  16.999  0.00  0.00    +0.000 NA
ATOM     14  C   UNL     1      51.912   9.435  17.732  0.00  0.00    +0.000 A 
ATOM     15  N   UNL     1      52.349   8.559  18.633  0.00  0.00    +0.000 NA
ATOM     16  C   UNL     1      51.536   7.498  18.771  0.00  0.00    +0.000 A 
ATOM     17  S   UNL     1      51.938   6.279  19.882  0.00  0.00    +0.000 S 
ATOM     18  C   UNL     1      50.552   5.383  19.478  0.00  0.00    +0.000 A 
ATOM     19  C   UNL     1      49.760   5.979  18.500  0.00  0.00    +0.000 A 
ATOM     20  C   UNL     1      50.349   7.254  18.087  0.00  0.00    +0.000 A 
BRANCH  12  22
ATOM     21  C   UNL     1      48.104   9.424  16.467  0.00  0.00    +0.000 C 
ATOM     22  O   UNL     1      48.841   8.203  16.446  0.00  0.00    +0.000 OA
ENDBRANCH  12  22
ENDBRANCH   8  19
ENDBRANCH   7  10
ENDBRANCH   1   7
BRANCH   4  23
ATOM     23  C   UNL     1      46.004   5.775  10.987  0.00  0.00    +0.000 C 
BRANCH  23  24
ATOM     24  N   UNL     1      44.565   6.024  10.881  0.00  0.00    +0.000 NA
ATOM     25  H   UNL     1      44.425   6.840  10.289  0.00  0.00    +0.000 HD
BRANCH  24  26
ATOM     26  C   UNL     1      43.802   4.884  10.325  0.00  0.00    +0.000 C 
ATOM     27  C   UNL     1      43.017   4.185  11.448  0.00  0.00    +0.000 C 
BRANCH  26  28
ATOM     28  C   UNL     1      44.637   3.960   9.436  0.00  0.00    +0.000 A 
ATOM     29  C   UNL     1      44.690   2.571   9.631  0.00  0.00    +0.000 A 
ATOM     30  C   UNL     1      45.474   1.752   8.810  0.00  0.00    +0.000 A 
ATOM     31  C   UNL     1      46.224   2.309   7.779  0.00  0.00    +0.000 A 
ATOM     32  C   UNL     1      46.167   3.679   7.549  0.00  0.00    +0.000 A 
ATOM     33  C   UNL     1      45.370   4.496   8.359  0.00  0.00    +0.000 A 
ENDBRANCH  26  28
ENDBRANCH  24  26
ENDBRANCH  23  24
ENDBRANCH   4  23
TORSDOF 8
ENDMDL
