MODEL 1
REMARK VINA RESULT:    -8.559      0.000      0.000
REMARK INTER + INTRA:         -13.091
REMARK INTER:                 -12.062
REMARK INTRA:                  -1.029
REMARK UNBOUND:                -1.029
REMARK  Name = 
REMARK  8 active torsions:
REMARK  status: ('A' for Active; 'I' for Inactive)
REMARK    1  A    between atoms: C_1  and  C_2
REMARK    2  A    between atoms: C_2  and  O_3
REMARK    3  A    between atoms: C_2  and  C_25
REMARK    4  A    between atoms: O_3  and  C_4
REMARK    5  A    between atoms: C_4  and  C_5
REMARK    6  A    between atoms: C_8  and  C_9
REMARK    7  A    between atoms: C_9  and  N_10
REMARK    8  A    between atoms: C_11  and  C_13
REMARK                            x       y       z     vdW  Elec       q    Type
REMARK                         _______ _______ _______ _____ _____    ______ ____
ROOT
ATOM      1  C   UNL     1      46.315   4.986  13.340  0.00  0.00    +0.000 A 
ATOM      2  C   UNL     1      46.752   6.223  12.868  0.00  0.00    +0.000 A 
ATOM      3  C   UNL     1      47.730   6.922  13.570  0.00  0.00    +0.000 A 
ATOM      4  C   UNL     1      48.243   6.372  14.741  0.00  0.00    +0.000 A 
ATOM      5  N   UNL     1      47.862   5.153  15.200  0.00  0.00    +0.000 NA
ATOM      6  C   UNL     1      46.920   4.492  14.490  0.00  0.00    +0.000 A 
ENDROOT
BRANCH   1   7
ATOM      7  C   UNL     1      45.187   4.243  12.686  0.00  0.00    +0.000 C 
BRANCH   7   8
ATOM      8  O   UNL     1      44.819   4.873  11.465  0.00  0.00    +0.000 OA
BRANCH   8  10
ATOM      9  C   UNL     1      43.376   2.893  11.378  0.00  0.00    +0.000 C 
ATOM     10  C   UNL     1      44.015   4.048  10.607  0.00  0.00    +0.000 C 
BRANCH  10  11
ATOM     11  C   UNL     1      44.895   3.514   9.487  0.00  0.00    +0.000 A 
ATOM     12  C   UNL     1      45.534   4.401   8.602  0.00  0.00    +0.000 A 
ATOM     13  C   UNL     1      46.367   3.918   7.587  0.00  0.00    +0.000 A 
ATOM     14  C   UNL     1      46.561   2.547   7.442  0.00  0.00    +0.000 A 
ATOM     15 CL   UNL     1      47.611   1.954   6.215  0.00  0.00    +0.000 Cl
ATOM     16  C   UNL     1      45.912   1.652   8.288  0.00  0.00    +0.000 A 
ATOM     17  C   UNL     1      45.079   2.134   9.301  0.00  0.00    +0.000 A 
ENDBRANCH  10  11
ENDBRANCH   8  10
ENDBRANCH   7   8
ENDBRANCH   1   7
BRANCH   4  18
ATOM     18  C   UNL     1      49.259   7.130  15.558  0.00  0.00    +0.000 C 
BRANCH  18  19
ATOM     19  N   UNL     1      50.271   6.269  16.113  0.00  0.00    +0.000 N 
ATOM     20  C   UNL     1      50.321   5.952  17.447  0.00  0.00    +0.000 C 
ATOM     21  O   UNL     1      49.507   6.389  18.253  0.00  0.00    +0.000 OA
ATOM     22  H   UNL     1      51.084   6.113  15.526  0.00  0.00    +0.000 HD
BRANCH  20  23
ATOM     23  C   UNL     1      51.366   5.001  17.844  0.00  0.00    +0.000 A 
ATOM     24  C   UNL     1      52.537   5.470  18.424  0.00  0.00    +0.000 A 
ATOM     25  S   UNL     1      53.630   4.234  18.856  0.00  0.00    +0.000 S 
ATOM     26  C   UNL     1      52.599   3.030  18.238  0.00  0.00    +0.000 A 
ATOM     27  N   UNL     1      52.960   1.718  18.261  0.00  0.00    +0.000 NA
ATOM     28  C   UNL     1      52.094   0.918  17.734  0.00  0.00    +0.000 A 
ATOM     29  N   UNL     1      50.894   1.308  17.199  0.00  0.00    +0.000 N 
ATOM     30  C   UNL     1      50.463   2.612  17.208  0.00  0.00    +0.000 A 
ATOM     31  O   UNL     1      49.340   2.911  16.819  0.00  0.00    +0.000 OA
ATOM     32  C   UNL     1      51.419   3.561  17.746  0.00  0.00    +0.000 A 
ATOM     33  H   UNL     1      50.246   0.630  16.828  0.00  0.00    +0.000 HD
ENDBRANCH  20  23
ENDBRANCH  18  19
ENDBRANCH   4  18
TORSDOF 7
ENDMDL
MODEL 2
REMARK VINA RESULT:    -8.032      2.012      2.578
REMARK INTER + INTRA:         -12.348
REMARK INTER:                 -10.896
REMARK INTRA:                  -1.452
REMARK UNBOUND:                -1.029
REMARK  Name = 
REMARK  8 active torsions:
REMARK  status: ('A' for Active; 'I' for Inactive)
REMARK    1  A    between atoms: C_1  and  C_2
REMARK    2  A    between atoms: C_2  and  O_3
REMARK    3  A    between atoms: C_2  and  C_25
REMARK    4  A    between atoms: O_3  and  C_4
REMARK    5  A    between atoms: C_4  and  C_5
REMARK    6  A    between atoms: C_8  and  C_9
REMARK    7  A    between atoms: C_9  and  N_10
REMARK    8  A    between atoms: C_11  and  C_13
REMARK                            x       y       z     vdW  Elec       q    Type
REMARK                         _______ _______ _______ _____ _____    ______ ____
ROOT
ATOM      1  C   UNL     1      45.913   5.519  12.551  0.00  0.00    +0.000 A 
ATOM      2  C   UNL     1      46.483   6.488  11.725  0.00  0.00    +0.000 A 
ATOM      3  C   UNL     1      47.703   7.061  12.074  0.00  0.00    +0.000 A 
ATOM      4  C   UNL     1      48.323   6.659  13.254  0.00  0.00    +0.000 A 
ATOM      5  N   UNL     1      47.808   5.692  14.054  0.00  0.00    +0.000 NA
ATOM      6  C   UNL     1      46.629   5.146  13.683  0.00  0.00    +0.000 A 
ENDROOT
BRANCH   1   7
ATOM      7  C   UNL     1      44.551   4.951  12.282  0.00  0.00    +0.000 C 
BRANCH   7   8
ATOM      8  O   UNL     1      44.205   5.119  10.912  0.00  0.00    +0.000 OA
BRANCH   8  10
ATOM      9  C   UNL     1      43.446   2.821  11.309  0.00  0.00    +0.000 C 
ATOM     10  C   UNL     1      43.738   3.916  10.282  0.00  0.00    +0.000 C 
BRANCH  10  11
ATOM     11  C   UNL     1      44.795   3.446   9.294  0.00  0.00    +0.000 A 
ATOM     12  C   UNL     1      45.086   2.077   9.164  0.00  0.00    +0.000 A 
ATOM     13  C   UNL     1      46.037   1.636   8.237  0.00  0.00    +0.000 A 
ATOM     14  C   UNL     1      46.711   2.559   7.441  0.00  0.00    +0.000 A 
ATOM     15 CL   UNL     1      47.857   2.014   6.278  0.00  0.00    +0.000 Cl
ATOM     16  C   UNL     1      46.460   3.920   7.578  0.00  0.00    +0.000 A 
ATOM     17  C   UNL     1      45.511   4.361   8.504  0.00  0.00    +0.000 A 
ENDBRANCH  10  11
ENDBRANCH   8  10
ENDBRANCH   7   8
ENDBRANCH   1   7
BRANCH   4  18
ATOM     18  C   UNL     1      49.615   7.303  13.692  0.00  0.00    +0.000 C 
BRANCH  18  19
ATOM     19  N   UNL     1      49.816   7.218  15.115  0.00  0.00    +0.000 N 
ATOM     20  C   UNL     1      51.044   7.394  15.700  0.00  0.00    +0.000 C 
ATOM     21  O   UNL     1      52.052   7.631  15.044  0.00  0.00    +0.000 OA
ATOM     22  H   UNL     1      49.066   6.776  15.638  0.00  0.00    +0.000 HD
BRANCH  20  23
ATOM     23  C   UNL     1      51.070   7.353  17.167  0.00  0.00    +0.000 A 
ATOM     24  C   UNL     1      51.605   8.422  17.874  0.00  0.00    +0.000 A 
ATOM     25  S   UNL     1      51.527   8.229  19.568  0.00  0.00    +0.000 S 
ATOM     26  C   UNL     1      50.821   6.689  19.416  0.00  0.00    +0.000 A 
ATOM     27  N   UNL     1      50.524   5.943  20.515  0.00  0.00    +0.000 NA
ATOM     28  C   UNL     1      50.018   4.785  20.251  0.00  0.00    +0.000 A 
ATOM     29  N   UNL     1      49.768   4.310  18.990  0.00  0.00    +0.000 N 
ATOM     30  C   UNL     1      49.995   5.051  17.856  0.00  0.00    +0.000 A 
ATOM     31  O   UNL     1      49.661   4.638  16.752  0.00  0.00    +0.000 OA
ATOM     32  C   UNL     1      50.609   6.344  18.092  0.00  0.00    +0.000 A 
ATOM     33  H   UNL     1      49.343   3.406  18.850  0.00  0.00    +0.000 HD
ENDBRANCH  20  23
ENDBRANCH  18  19
ENDBRANCH   4  18
TORSDOF 7
ENDMDL
MODEL 3
REMARK VINA RESULT:    -7.675      1.531      2.019
REMARK INTER + INTRA:         -11.844
REMARK INTER:                 -10.834
REMARK INTRA:                  -1.011
REMARK UNBOUND:                -1.029
REMARK  Name = 
REMARK  8 active torsions:
REMARK  status: ('A' for Active; 'I' for Inactive)
REMARK    1  A    between atoms: C_1  and  C_2
REMARK    2  A    between atoms: C_2  and  O_3
REMARK    3  A    between atoms: C_2  and  C_25
REMARK    4  A    between atoms: O_3  and  C_4
REMARK    5  A    between atoms: C_4  and  C_5
REMARK    6  A    between atoms: C_8  and  C_9
REMARK    7  A    between atoms: C_9  and  N_10
REMARK    8  A    between atoms: C_11  and  C_13
REMARK                            x       y       z     vdW  Elec       q    Type
REMARK                         _______ _______ _______ _____ _____    ______ ____
ROOT
ATOM      1  C   UNL     1      46.958   5.024  13.714  0.00  0.00    +0.000 A 
ATOM      2  C   UNL     1      47.529   5.878  14.658  0.00  0.00    +0.000 A 
ATOM      3  C   UNL     1      48.087   5.349  15.818  0.00  0.00    +0.000 A 
ATOM      4  C   UNL     1      48.050   3.972  16.018  0.00  0.00    +0.000 A 
ATOM      5  N   UNL     1      47.534   3.117  15.098  0.00  0.00    +0.000 NA
ATOM      6  C   UNL     1      47.011   3.659  13.976  0.00  0.00    +0.000 A 
ENDROOT
BRANCH   1   7
ATOM      7  C   UNL     1      46.246   5.546  12.502  0.00  0.00    +0.000 C 
BRANCH   7   8
ATOM      8  O   UNL     1      45.218   4.646  12.104  0.00  0.00    +0.000 OA
BRANCH   8  10
ATOM      9  C   UNL     1      43.056   4.851  10.963  0.00  0.00    +0.000 C 
ATOM     10  C   UNL     1      44.575   5.011  10.872  0.00  0.00    +0.000 C 
BRANCH  10  11
ATOM     11  C   UNL     1      45.133   4.137   9.758  0.00  0.00    +0.000 A 
ATOM     12  C   UNL     1      45.803   4.719   8.668  0.00  0.00    +0.000 A 
ATOM     13  C   UNL     1      46.344   3.920   7.655  0.00  0.00    +0.000 A 
ATOM     14  C   UNL     1      46.210   2.535   7.718  0.00  0.00    +0.000 A 
ATOM     15 CL   UNL     1      46.904   1.551   6.489  0.00  0.00    +0.000 Cl
ATOM     16  C   UNL     1      45.523   1.943   8.773  0.00  0.00    +0.000 A 
ATOM     17  C   UNL     1      44.982   2.741   9.784  0.00  0.00    +0.000 A 
ENDBRANCH  10  11
ENDBRANCH   8  10
ENDBRANCH   7   8
ENDBRANCH   1   7
BRANCH   4  18
ATOM     18  C   UNL     1      48.590   3.372  17.291  0.00  0.00    +0.000 C 
BRANCH  18  19
ATOM     19  N   UNL     1      50.023   3.232  17.268  0.00  0.00    +0.000 N 
ATOM     20  C   UNL     1      50.841   3.844  18.183  0.00  0.00    +0.000 C 
ATOM     21  O   UNL     1      50.400   4.556  19.079  0.00  0.00    +0.000 OA
ATOM     22  H   UNL     1      50.414   2.871  16.403  0.00  0.00    +0.000 HD
BRANCH  20  23
ATOM     23  C   UNL     1      52.273   3.541  18.072  0.00  0.00    +0.000 A 
ATOM     24  C   UNL     1      53.203   4.563  18.203  0.00  0.00    +0.000 A 
ATOM     25  S   UNL     1      54.821   4.036  18.081  0.00  0.00    +0.000 S 
ATOM     26  C   UNL     1      54.334   2.430  17.800  0.00  0.00    +0.000 A 
ATOM     27  N   UNL     1      55.251   1.450  17.573  0.00  0.00    +0.000 NA
ATOM     28  C   UNL     1      54.740   0.285  17.348  0.00  0.00    +0.000 A 
ATOM     29  N   UNL     1      53.398   0.008  17.342  0.00  0.00    +0.000 N 
ATOM     30  C   UNL     1      52.441   0.953  17.625  0.00  0.00    +0.000 A 
ATOM     31  O   UNL     1      51.258   0.648  17.717  0.00  0.00    +0.000 OA
ATOM     32  C   UNL     1      52.958   2.291  17.839  0.00  0.00    +0.000 A 
ATOM     33  H   UNL     1      53.062  -0.931  17.188  0.00  0.00    +0.000 HD
ENDBRANCH  20  23
ENDBRANCH  18  19
ENDBRANCH   4  18
TORSDOF 7
ENDMDL
MODEL 4
REMARK VINA RESULT:    -7.432      1.664      2.871
REMARK INTER + INTRA:         -11.502
REMARK INTER:                 -10.378
REMARK INTRA:                  -1.124
REMARK UNBOUND:                -1.029
REMARK  Name = 
REMARK  8 active torsions:
REMARK  status: ('A' for Active; 'I' for Inactive)
REMARK    1  A    between atoms: C_1  and  C_2
REMARK    2  A    between atoms: C_2  and  O_3
REMARK    3  A    between atoms: C_2  and  C_25
REMARK    4  A    between atoms: O_3  and  C_4
REMARK    5  A    between atoms: C_4  and  C_5
REMARK    6  A    between atoms: C_8  and  C_9
REMARK    7  A    between atoms: C_9  and  N_10
REMARK    8  A    between atoms: C_11  and  C_13
REMARK                            x       y       z     vdW  Elec       q    Type
REMARK                         _______ _______ _______ _____ _____    ______ ____
ROOT
ATOM      1  C   UNL     1      46.895   4.769  13.944  0.00  0.00    +0.000 A 
ATOM      2  C   UNL     1      47.251   5.535  15.054  0.00  0.00    +0.000 A 
ATOM      3  C   UNL     1      47.761   4.911  16.189  0.00  0.00    +0.000 A 
ATOM      4  C   UNL     1      47.893   3.525  16.194  0.00  0.00    +0.000 A 
ATOM      5  N   UNL     1      47.591   2.761  15.114  0.00  0.00    +0.000 NA
ATOM      6  C   UNL     1      47.109   3.397  14.022  0.00  0.00    +0.000 A 
ENDROOT
BRANCH   1   7
ATOM      7  C   UNL     1      46.239   5.376  12.740  0.00  0.00    +0.000 C 
BRANCH   7   8
ATOM      8  O   UNL     1      45.268   4.486  12.202  0.00  0.00    +0.000 OA
BRANCH   8  10
ATOM      9  C   UNL     1      43.154   4.884  11.025  0.00  0.00    +0.000 C 
ATOM     10  C   UNL     1      44.682   4.943  10.973  0.00  0.00    +0.000 C 
BRANCH  10  11
ATOM     11  C   UNL     1      45.207   4.080   9.836  0.00  0.00    +0.000 A 
ATOM     12  C   UNL     1      45.862   4.670   8.741  0.00  0.00    +0.000 A 
ATOM     13  C   UNL     1      46.373   3.880   7.706  0.00  0.00    +0.000 A 
ATOM     14  C   UNL     1      46.223   2.496   7.750  0.00  0.00    +0.000 A 
ATOM     15 CL   UNL     1      46.880   1.521   6.493  0.00  0.00    +0.000 Cl
ATOM     16  C   UNL     1      45.550   1.896   8.810  0.00  0.00    +0.000 A 
ATOM     17  C   UNL     1      45.039   2.685   9.843  0.00  0.00    +0.000 A 
ENDBRANCH  10  11
ENDBRANCH   8  10
ENDBRANCH   7   8
ENDBRANCH   1   7
BRANCH   4  18
ATOM     18  C   UNL     1      48.385   2.812  17.428  0.00  0.00    +0.000 C 
BRANCH  18  19
ATOM     19  N   UNL     1      49.730   3.187  17.780  0.00  0.00    +0.000 N 
ATOM     20  C   UNL     1      50.824   2.447  17.411  0.00  0.00    +0.000 C 
ATOM     21  O   UNL     1      50.724   1.413  16.760  0.00  0.00    +0.000 OA
ATOM     22  H   UNL     1      49.814   3.876  18.520  0.00  0.00    +0.000 HD
BRANCH  20  23
ATOM     23  C   UNL     1      52.132   3.003  17.780  0.00  0.00    +0.000 A 
ATOM     24  C   UNL     1      53.075   2.189  18.394  0.00  0.00    +0.000 A 
ATOM     25  S   UNL     1      54.550   2.981  18.725  0.00  0.00    +0.000 S 
ATOM     26  C   UNL     1      53.963   4.452  18.104  0.00  0.00    +0.000 A 
ATOM     27  N   UNL     1      54.732   5.575  18.120  0.00  0.00    +0.000 NA
ATOM     28  C   UNL     1      54.150   6.625  17.643  0.00  0.00    +0.000 A 
ATOM     29  N   UNL     1      52.876   6.651  17.138  0.00  0.00    +0.000 N 
ATOM     30  C   UNL     1      52.088   5.530  17.047  0.00  0.00    +0.000 A 
ATOM     31  O   UNL     1      50.995   5.567  16.493  0.00  0.00    +0.000 OA
ATOM     32  C   UNL     1      52.675   4.331  17.614  0.00  0.00    +0.000 A 
ATOM     33  H   UNL     1      52.488   7.498  16.752  0.00  0.00    +0.000 HD
ENDBRANCH  20  23
ENDBRANCH  18  19
ENDBRANCH   4  18
TORSDOF 7
ENDMDL
MODEL 5
REMARK VINA RESULT:    -7.281      4.277      8.951
REMARK INTER + INTRA:         -11.289
REMARK INTER:                  -9.440
REMARK INTRA:                  -1.849
REMARK UNBOUND:                -1.029
REMARK  Name = 
REMARK  8 active torsions:
REMARK  status: ('A' for Active; 'I' for Inactive)
REMARK    1  A    between atoms: C_1  and  C_2
REMARK    2  A    between atoms: C_2  and  O_3
REMARK    3  A    between atoms: C_2  and  C_25
REMARK    4  A    between atoms: O_3  and  C_4
REMARK    5  A    between atoms: C_4  and  C_5
REMARK    6  A    between atoms: C_8  and  C_9
REMARK    7  A    between atoms: C_9  and  N_10
REMARK    8  A    between atoms: C_11  and  C_13
REMARK                            x       y       z     vdW  Elec       q    Type
REMARK                         _______ _______ _______ _____ _____    ______ ____
ROOT
ATOM      1  C   UNL     1      49.100   8.430  16.070  0.00  0.00    +0.000 A 
ATOM      2  C   UNL     1      49.695   7.379  15.371  0.00  0.00    +0.000 A 
ATOM      3  C   UNL     1      49.349   7.151  14.043  0.00  0.00    +0.000 A 
ATOM      4  C   UNL     1      48.400   7.973  13.442  0.00  0.00    +0.000 A 
ATOM      5  N   UNL     1      47.835   9.024  14.088  0.00  0.00    +0.000 NA
ATOM      6  C   UNL     1      48.200   9.229  15.374  0.00  0.00    +0.000 A 
ENDROOT
BRANCH   1   7
ATOM      7  C   UNL     1      49.353   8.652  17.532  0.00  0.00    +0.000 C 
BRANCH   7   8
ATOM      8  O   UNL     1      48.238   8.216  18.301  0.00  0.00    +0.000 OA
BRANCH   8  10
ATOM      9  C   UNL     1      49.851   7.604  20.043  0.00  0.00    +0.000 C 
ATOM     10  C   UNL     1      48.569   7.235  19.296  0.00  0.00    +0.000 C 
BRANCH  10  11
ATOM     11  C   UNL     1      48.725   5.885  18.611  0.00  0.00    +0.000 A 
ATOM     12  C   UNL     1      47.615   5.258  18.017  0.00  0.00    +0.000 A 
ATOM     13  C   UNL     1      47.757   4.031  17.362  0.00  0.00    +0.000 A 
ATOM     14  C   UNL     1      49.005   3.416  17.302  0.00  0.00    +0.000 A 
ATOM     15 CL   UNL     1      49.187   1.922  16.467  0.00  0.00    +0.000 Cl
ATOM     16  C   UNL     1      50.109   4.006  17.911  0.00  0.00    +0.000 A 
ATOM     17  C   UNL     1      49.967   5.231  18.567  0.00  0.00    +0.000 A 
ENDBRANCH  10  11
ENDBRANCH   8  10
ENDBRANCH   7   8
ENDBRANCH   1   7
BRANCH   4  18
ATOM     18  C   UNL     1      47.957   7.716  12.024  0.00  0.00    +0.000 C 
BRANCH  18  19
ATOM     19  N   UNL     1      47.140   6.535  11.909  0.00  0.00    +0.000 N 
ATOM     20  C   UNL     1      45.771   6.585  11.872  0.00  0.00    +0.000 C 
ATOM     21  O   UNL     1      45.153   7.642  11.939  0.00  0.00    +0.000 OA
ATOM     22  H   UNL     1      47.609   5.657  12.111  0.00  0.00    +0.000 HD
BRANCH  20  23
ATOM     23  C   UNL     1      45.085   5.302  11.675  0.00  0.00    +0.000 A 
ATOM     24  C   UNL     1      44.372   4.737  12.723  0.00  0.00    +0.000 A 
ATOM     25  S   UNL     1      43.609   3.265  12.318  0.00  0.00    +0.000 S 
ATOM     26  C   UNL     1      44.245   3.307  10.740  0.00  0.00    +0.000 A 
ATOM     27  N   UNL     1      43.999   2.299   9.859  0.00  0.00    +0.000 NA
ATOM     28  C   UNL     1      44.566   2.448   8.709  0.00  0.00    +0.000 A 
ATOM     29  N   UNL     1      45.345   3.518   8.354  0.00  0.00    +0.000 N 
ATOM     30  C   UNL     1      45.570   4.585   9.189  0.00  0.00    +0.000 A 
ATOM     31  O   UNL     1      46.182   5.574   8.803  0.00  0.00    +0.000 OA
ATOM     32  C   UNL     1      44.995   4.448  10.513  0.00  0.00    +0.000 A 
ATOM     33  H   UNL     1      45.737   3.591   7.427  0.00  0.00    +0.000 HD
ENDBRANCH  20  23
ENDBRANCH  18  19
ENDBRANCH   4  18
TORSDOF 7
ENDMDL
MODEL 6
REMARK VINA RESULT:    -7.179      4.286      9.513
REMARK INTER + INTRA:         -11.146
REMARK INTER:                 -10.041
REMARK INTRA:                  -1.105
REMARK UNBOUND:                -1.029
REMARK  Name = 
REMARK  8 active torsions:
REMARK  status: ('A' for Active; 'I' for Inactive)
REMARK    1  A    between atoms: C_1  and  C_2
REMARK    2  A    between atoms: C_2  and  O_3
REMARK    3  A    between atoms: C_2  and  C_25
REMARK    4  A    between atoms: O_3  and  C_4
REMARK    5  A    between atoms: C_4  and  C_5
REMARK    6  A    between atoms: C_8  and  C_9
REMARK    7  A    between atoms: C_9  and  N_10
REMARK    8  A    between atoms: C_11  and  C_13
REMARK                            x       y       z     vdW  Elec       q    Type
REMARK                         _______ _______ _______ _____ _____    ______ ____
ROOT
ATOM      1  C   UNL     1      51.183   2.275  17.389  0.00  0.00    +0.000 A 
ATOM      2  C   UNL     1      51.729   3.502  17.766  0.00  0.00    +0.000 A 
ATOM      3  C   UNL     1      50.925   4.638  17.785  0.00  0.00    +0.000 A 
ATOM      4  C   UNL     1      49.589   4.525  17.413  0.00  0.00    +0.000 A 
ATOM      5  N   UNL     1      49.024   3.338  17.080  0.00  0.00    +0.000 NA
ATOM      6  C   UNL     1      49.827   2.249  17.082  0.00  0.00    +0.000 A 
ENDROOT
BRANCH   1   7
ATOM      7  C   UNL     1      52.026   1.044  17.243  0.00  0.00    +0.000 C 
BRANCH   7   8
ATOM      8  O   UNL     1      52.759   0.800  18.438  0.00  0.00    +0.000 OA
BRANCH   8  10
ATOM      9  C   UNL     1      54.675   1.294  16.990  0.00  0.00    +0.000 C 
ATOM     10  C   UNL     1      54.156   0.547  18.219  0.00  0.00    +0.000 C 
BRANCH  10  11
ATOM     11  C   UNL     1      54.355  -0.952  18.052  0.00  0.00    +0.000 A 
ATOM     12  C   UNL     1      53.930  -1.841  19.055  0.00  0.00    +0.000 A 
ATOM     13  C   UNL     1      54.085  -3.222  18.894  0.00  0.00    +0.000 A 
ATOM     14  C   UNL     1      54.674  -3.725  17.737  0.00  0.00    +0.000 A 
ATOM     15 CL   UNL     1      54.834  -5.425  17.525  0.00  0.00    +0.000 Cl
ATOM     16  C   UNL     1      55.129  -2.859  16.747  0.00  0.00    +0.000 A 
ATOM     17  C   UNL     1      54.976  -1.480  16.908  0.00  0.00    +0.000 A 
ENDBRANCH  10  11
ENDBRANCH   8  10
ENDBRANCH   7   8
ENDBRANCH   1   7
BRANCH   4  18
ATOM     18  C   UNL     1      48.706   5.747  17.365  0.00  0.00    +0.000 C 
BRANCH  18  19
ATOM     19  N   UNL     1      47.904   5.799  16.170  0.00  0.00    +0.000 N 
ATOM     20  C   UNL     1      48.391   6.257  14.972  0.00  0.00    +0.000 C 
ATOM     21  O   UNL     1      49.543   6.657  14.846  0.00  0.00    +0.000 OA
ATOM     22  H   UNL     1      46.902   5.720  16.311  0.00  0.00    +0.000 HD
BRANCH  20  23
ATOM     23  C   UNL     1      47.473   6.173  13.830  0.00  0.00    +0.000 A 
ATOM     24  C   UNL     1      47.175   7.319  13.104  0.00  0.00    +0.000 A 
ATOM     25  S   UNL     1      46.121   7.042  11.791  0.00  0.00    +0.000 S 
ATOM     26  C   UNL     1      45.988   5.390  12.175  0.00  0.00    +0.000 A 
ATOM     27  N   UNL     1      45.188   4.564  11.447  0.00  0.00    +0.000 NA
ATOM     28  C   UNL     1      45.160   3.343  11.867  0.00  0.00    +0.000 A 
ATOM     29  N   UNL     1      45.870   2.870  12.939  0.00  0.00    +0.000 N 
ATOM     30  C   UNL     1      46.735   3.653  13.665  0.00  0.00    +0.000 A 
ATOM     31  O   UNL     1      47.434   3.172  14.549  0.00  0.00    +0.000 OA
ATOM     32  C   UNL     1      46.768   5.046  13.265  0.00  0.00    +0.000 A 
ATOM     33  H   UNL     1      45.829   1.896  13.200  0.00  0.00    +0.000 HD
ENDBRANCH  20  23
ENDBRANCH  18  19
ENDBRANCH   4  18
TORSDOF 7
ENDMDL
MODEL 7
REMARK VINA RESULT:    -7.075      1.738      2.405
REMARK INTER + INTRA:         -10.999
REMARK INTER:                  -9.825
REMARK INTRA:                  -1.174
REMARK UNBOUND:                -1.029
REMARK  Name = 
REMARK  8 active torsions:
REMARK  status: ('A' for Active; 'I' for Inactive)
REMARK    1  A    between atoms: C_1  and  C_2
REMARK    2  A    between atoms: C_2  and  O_3
REMARK    3  A    between atoms: C_2  and  C_25
REMARK    4  A    between atoms: O_3  and  C_4
REMARK    5  A    between atoms: C_4  and  C_5
REMARK    6  A    between atoms: C_8  and  C_9
REMARK    7  A    between atoms: C_9  and  N_10
REMARK    8  A    between atoms: C_11  and  C_13
REMARK                            x       y       z     vdW  Elec       q    Type
REMARK                         _______ _______ _______ _____ _____    ______ ____
ROOT
ATOM      1  C   UNL     1      46.361   4.821  13.403  0.00  0.00    +0.000 A 
ATOM      2  C   UNL     1      46.774   4.406  14.669  0.00  0.00    +0.000 A 
ATOM      3  C   UNL     1      47.673   5.185  15.392  0.00  0.00    +0.000 A 
ATOM      4  C   UNL     1      48.152   6.363  14.825  0.00  0.00    +0.000 A 
ATOM      5  N   UNL     1      47.737   6.808  13.613  0.00  0.00    +0.000 NA
ATOM      6  C   UNL     1      46.854   6.036  12.940  0.00  0.00    +0.000 A 
ENDROOT
BRANCH   1   7
ATOM      7  C   UNL     1      45.483   3.968  12.537  0.00  0.00    +0.000 C 
BRANCH   7   8
ATOM      8  O   UNL     1      44.945   4.736  11.467  0.00  0.00    +0.000 OA
BRANCH   8  10
ATOM      9  C   UNL     1      43.453   2.800  11.271  0.00  0.00    +0.000 C 
ATOM     10  C   UNL     1      44.127   3.976  10.563  0.00  0.00    +0.000 C 
BRANCH  10  11
ATOM     11  C   UNL     1      45.002   3.477   9.423  0.00  0.00    +0.000 A 
ATOM     12  C   UNL     1      45.595   4.389   8.532  0.00  0.00    +0.000 A 
ATOM     13  C   UNL     1      46.424   3.938   7.498  0.00  0.00    +0.000 A 
ATOM     14  C   UNL     1      46.658   2.575   7.340  0.00  0.00    +0.000 A 
ATOM     15 CL   UNL     1      47.703   2.023   6.089  0.00  0.00    +0.000 Cl
ATOM     16  C   UNL     1      46.055   1.655   8.193  0.00  0.00    +0.000 A 
ATOM     17  C   UNL     1      45.226   2.104   9.224  0.00  0.00    +0.000 A 
ENDBRANCH  10  11
ENDBRANCH   8  10
ENDBRANCH   7   8
ENDBRANCH   1   7
BRANCH   4  18
ATOM     18  C   UNL     1      49.173   7.199  15.555  0.00  0.00    +0.000 C 
BRANCH  18  19
ATOM     19  N   UNL     1      50.293   6.419  16.016  0.00  0.00    +0.000 N 
ATOM     20  C   UNL     1      50.630   6.322  17.342  0.00  0.00    +0.000 C 
ATOM     21  O   UNL     1      49.999   6.900  18.221  0.00  0.00    +0.000 OA
ATOM     22  H   UNL     1      50.965   6.154  15.303  0.00  0.00    +0.000 HD
BRANCH  20  23
ATOM     23  C   UNL     1      51.750   5.428  17.658  0.00  0.00    +0.000 A 
ATOM     24  C   UNL     1      51.578   4.417  18.594  0.00  0.00    +0.000 A 
ATOM     25  S   UNL     1      52.965   3.449  18.819  0.00  0.00    +0.000 S 
ATOM     26  C   UNL     1      53.859   4.376  17.707  0.00  0.00    +0.000 A 
ATOM     27  N   UNL     1      55.167   4.095  17.453  0.00  0.00    +0.000 NA
ATOM     28  C   UNL     1      55.729   4.896  16.610  0.00  0.00    +0.000 A 
ATOM     29  N   UNL     1      55.100   5.942  15.987  0.00  0.00    +0.000 N 
ATOM     30  C   UNL     1      53.768   6.225  16.168  0.00  0.00    +0.000 A 
ATOM     31  O   UNL     1      53.212   7.100  15.515  0.00  0.00    +0.000 OA
ATOM     32  C   UNL     1      53.099   5.385  17.142  0.00  0.00    +0.000 A 
ATOM     33  H   UNL     1      55.587   6.515  15.314  0.00  0.00    +0.000 HD
ENDBRANCH  20  23
ENDBRANCH  18  19
ENDBRANCH   4  18
TORSDOF 7
ENDMDL
MODEL 8
REMARK VINA RESULT:    -7.052      4.324      9.845
REMARK INTER + INTRA:         -10.967
REMARK INTER:                 -10.038
REMARK INTRA:                  -0.929
REMARK UNBOUND:                -1.029
REMARK  Name = 
REMARK  8 active torsions:
REMARK  status: ('A' for Active; 'I' for Inactive)
REMARK    1  A    between atoms: C_1  and  C_2
REMARK    2  A    between atoms: C_2  and  O_3
REMARK    3  A    between atoms: C_2  and  C_25
REMARK    4  A    between atoms: O_3  and  C_4
REMARK    5  A    between atoms: C_4  and  C_5
REMARK    6  A    between atoms: C_8  and  C_9
REMARK    7  A    between atoms: C_9  and  N_10
REMARK    8  A    between atoms: C_11  and  C_13
REMARK                            x       y       z     vdW  Elec       q    Type
REMARK                         _______ _______ _______ _____ _____    ______ ____
ROOT
ATOM      1  C   UNL     1      51.303   3.034  17.761  0.00  0.00    +0.000 A 
ATOM      2  C   UNL     1      50.603   4.128  18.271  0.00  0.00    +0.000 A 
ATOM      3  C   UNL     1      49.239   4.250  18.025  0.00  0.00    +0.000 A 
ATOM      4  C   UNL     1      48.602   3.277  17.259  0.00  0.00    +0.000 A 
ATOM      5  N   UNL     1      49.252   2.185  16.784  0.00  0.00    +0.000 NA
ATOM      6  C   UNL     1      50.574   2.087  17.050  0.00  0.00    +0.000 A 
ENDROOT
BRANCH   1   7
ATOM      7  C   UNL     1      52.791   2.910  17.901  0.00  0.00    +0.000 C 
BRANCH   7   8
ATOM      8  O   UNL     1      53.129   1.679  18.530  0.00  0.00    +0.000 OA
BRANCH   8  10
ATOM      9  C   UNL     1      55.279   2.327  17.543  0.00  0.00    +0.000 C 
ATOM     10  C   UNL     1      54.527   1.355  18.453  0.00  0.00    +0.000 C 
BRANCH  10  11
ATOM     11  C   UNL     1      54.665  -0.069  17.937  0.00  0.00    +0.000 A 
ATOM     12  C   UNL     1      54.850  -0.311  16.565  0.00  0.00    +0.000 A 
ATOM     13  C   UNL     1      55.006  -1.617  16.087  0.00  0.00    +0.000 A 
ATOM     14  C   UNL     1      54.970  -2.690  16.974  0.00  0.00    +0.000 A 
ATOM     15 CL   UNL     1      55.196  -4.293  16.391  0.00  0.00    +0.000 Cl
ATOM     16  C   UNL     1      54.757  -2.472  18.332  0.00  0.00    +0.000 A 
ATOM     17  C   UNL     1      54.599  -1.169  18.809  0.00  0.00    +0.000 A 
ENDBRANCH  10  11
ENDBRANCH   8  10
ENDBRANCH   7   8
ENDBRANCH   1   7
BRANCH   4  18
ATOM     18  C   UNL     1      47.138   3.411  16.922  0.00  0.00    +0.000 C 
BRANCH  18  19
ATOM     19  N   UNL     1      46.896   4.407  15.911  0.00  0.00    +0.000 N 
ATOM     20  C   UNL     1      46.997   4.138  14.570  0.00  0.00    +0.000 C 
ATOM     21  O   UNL     1      47.305   3.029  14.147  0.00  0.00    +0.000 OA
ATOM     22  H   UNL     1      46.896   5.369  16.234  0.00  0.00    +0.000 HD
BRANCH  20  23
ATOM     23  C   UNL     1      46.643   5.238  13.664  0.00  0.00    +0.000 A 
ATOM     24  C   UNL     1      47.569   6.241  13.409  0.00  0.00    +0.000 A 
ATOM     25  S   UNL     1      47.012   7.423  12.311  0.00  0.00    +0.000 S 
ATOM     26  C   UNL     1      45.496   6.662  12.176  0.00  0.00    +0.000 A 
ATOM     27  N   UNL     1      44.513   7.194  11.400  0.00  0.00    +0.000 NA
ATOM     28  C   UNL     1      43.406   6.528  11.412  0.00  0.00    +0.000 A 
ATOM     29  N   UNL     1      43.198   5.372  12.119  0.00  0.00    +0.000 N 
ATOM     30  C   UNL     1      44.179   4.769  12.867  0.00  0.00    +0.000 A 
ATOM     31  O   UNL     1      43.991   3.681  13.399  0.00  0.00    +0.000 OA
ATOM     32  C   UNL     1      45.430   5.501  12.927  0.00  0.00    +0.000 A 
ATOM     33  H   UNL     1      42.318   4.882  12.064  0.00  0.00    +0.000 HD
ENDBRANCH  20  23
ENDBRANCH  18  19
ENDBRANCH   4  18
TORSDOF 7
ENDMDL
MODEL 9
REMARK VINA RESULT:    -7.028      2.746      3.672
REMARK INTER + INTRA:         -10.933
REMARK INTER:                  -9.906
REMARK INTRA:                  -1.027
REMARK UNBOUND:                -1.029
REMARK  Name = 
REMARK  8 active torsions:
REMARK  status: ('A' for Active; 'I' for Inactive)
REMARK    1  A    between atoms: C_1  and  C_2
REMARK    2  A    between atoms: C_2  and  O_3
REMARK    3  A    between atoms: C_2  and  C_25
REMARK    4  A    between atoms: O_3  and  C_4
REMARK    5  A    between atoms: C_4  and  C_5
REMARK    6  A    between atoms: C_8  and  C_9
REMARK    7  A    between atoms: C_9  and  N_10
REMARK    8  A    between atoms: C_11  and  C_13
REMARK                            x       y       z     vdW  Elec       q    Type
REMARK                         _______ _______ _______ _____ _____    ______ ____
ROOT
ATOM      1  C   UNL     1      45.051   7.251  11.652  0.00  0.00    +0.000 A 
ATOM      2  C   UNL     1      44.721   8.606  11.684  0.00  0.00    +0.000 A 
ATOM      3  C   UNL     1      45.659   9.534  12.128  0.00  0.00    +0.000 A 
ATOM      4  C   UNL     1      46.909   9.084  12.543  0.00  0.00    +0.000 A 
ATOM      5  N   UNL     1      47.268   7.776  12.485  0.00  0.00    +0.000 NA
ATOM      6  C   UNL     1      46.340   6.900  12.038  0.00  0.00    +0.000 A 
ENDROOT
BRANCH   1   7
ATOM      7  C   UNL     1      44.046   6.199  11.289  0.00  0.00    +0.000 C 
BRANCH   7   8
ATOM      8  O   UNL     1      44.662   4.918  11.241  0.00  0.00    +0.000 OA
BRANCH   8  10
ATOM      9  C   UNL     1      43.432   2.797  11.252  0.00  0.00    +0.000 C 
ATOM     10  C   UNL     1      43.961   3.968  10.423  0.00  0.00    +0.000 C 
BRANCH  10  11
ATOM     11  C   UNL     1      44.908   3.468   9.343  0.00  0.00    +0.000 A 
ATOM     12  C   UNL     1      45.527   4.375   8.465  0.00  0.00    +0.000 A 
ATOM     13  C   UNL     1      46.421   3.924   7.488  0.00  0.00    +0.000 A 
ATOM     14  C   UNL     1      46.696   2.564   7.373  0.00  0.00    +0.000 A 
ATOM     15 CL   UNL     1      47.820   2.013   6.193  0.00  0.00    +0.000 Cl
ATOM     16  C   UNL     1      46.069   1.647   8.212  0.00  0.00    +0.000 A 
ATOM     17  C   UNL     1      45.175   2.097   9.187  0.00  0.00    +0.000 A 
ENDBRANCH  10  11
ENDBRANCH   8  10
ENDBRANCH   7   8
ENDBRANCH   1   7
BRANCH   4  18
ATOM     18  C   UNL     1      47.926  10.056  13.087  0.00  0.00    +0.000 C 
BRANCH  18  19
ATOM     19  N   UNL     1      48.335   9.730  14.429  0.00  0.00    +0.000 N 
ATOM     20  C   UNL     1      49.562   9.190  14.717  0.00  0.00    +0.000 C 
ATOM     21  O   UNL     1      50.389   8.945  13.846  0.00  0.00    +0.000 OA
ATOM     22  H   UNL     1      47.588   9.682  15.114  0.00  0.00    +0.000 HD
BRANCH  20  23
ATOM     23  C   UNL     1      49.858   8.987  16.141  0.00  0.00    +0.000 A 
ATOM     24  C   UNL     1      50.237  10.069  16.923  0.00  0.00    +0.000 A 
ATOM     25  S   UNL     1      50.511   9.668  18.559  0.00  0.00    +0.000 S 
ATOM     26  C   UNL     1      50.178   8.025  18.269  0.00  0.00    +0.000 A 
ATOM     27  N   UNL     1      50.269   7.105  19.267  0.00  0.00    +0.000 NA
ATOM     28  C   UNL     1      50.016   5.893  18.900  0.00  0.00    +0.000 A 
ATOM     29  N   UNL     1      49.668   5.519  17.628  0.00  0.00    +0.000 N 
ATOM     30  C   UNL     1      49.506   6.421  16.604  0.00  0.00    +0.000 A 
ATOM     31  O   UNL     1      49.089   6.066  15.508  0.00  0.00    +0.000 OA
ATOM     32  C   UNL     1      49.824   7.792  16.951  0.00  0.00    +0.000 A 
ATOM     33  H   UNL     1      49.454   4.558  17.410  0.00  0.00    +0.000 HD
ENDBRANCH  20  23
ENDBRANCH  18  19
ENDBRANCH   4  18
TORSDOF 7
ENDMDL
