MODEL 1
REMARK VINA RESULT:    -7.027      0.000      0.000
REMARK INTER + INTRA:          -9.183
REMARK INTER:                  -8.875
REMARK INTRA:                  -0.308
REMARK UNBOUND:                -0.308
REMARK  Name = 
REMARK  5 active torsions:
REMARK  status: ('A' for Active; 'I' for Inactive)
REMARK    1  A    between atoms: N_1  and  C_2
REMARK    2  A    between atoms: C_2  and  C_3
REMARK    3  A    between atoms: C_6  and  S_7
REMARK    4  A    between atoms: S_7  and  C_8
REMARK    5  A    between atoms: C_8  and  C_9
REMARK                            x       y       z     vdW  Elec       q    Type
REMARK                         _______ _______ _______ _____ _____    ______ ____
ROOT
ATOM      1  C   UNL     1      46.617   2.350   7.516  0.00  0.00    +0.000 A 
ATOM      2  C   UNL     1      45.888   1.580   8.432  0.00  0.00    +0.000 A 
ATOM      3  C   UNL     1      45.005   2.184   9.340  0.00  0.00    +0.000 A 
ATOM      4  C   UNL     1      44.843   3.571   9.355  0.00  0.00    +0.000 A 
ATOM      5  C   UNL     1      45.554   4.338   8.423  0.00  0.00    +0.000 A 
ATOM      6  C   UNL     1      46.433   3.736   7.516  0.00  0.00    +0.000 A 
ENDROOT
BRANCH   1   7
ATOM      7  C   UNL     1      47.607   1.709   6.575  0.00  0.00    +0.000 C 
BRANCH   7   8
ATOM      8  N   UNL     1      48.749   2.573   6.302  0.00  0.00    +0.000 NA
ATOM      9  H   UNL     1      48.410   3.466   5.945  0.00  0.00    +0.000 HD
ATOM     10  H   UNL     1      49.301   2.157   5.553  0.00  0.00    +0.000 HD
ENDBRANCH   7   8
ENDBRANCH   1   7
BRANCH   4  11
ATOM     11  S   UNL     1      43.720   4.435  10.445  0.00  0.00    +0.000 S 
BRANCH  11  12
ATOM     12  C   UNL     1      44.169   3.773  12.093  0.00  0.00    +0.000 C 
BRANCH  12  13
ATOM     13  C   UNL     1      45.343   4.514  12.697  0.00  0.00    +0.000 A 
ATOM     14  N   UNL     1      45.868   4.030  13.844  0.00  0.00    +0.000 NA
ATOM     15  C   UNL     1      46.905   4.711  14.368  0.00  0.00    +0.000 A 
ATOM     16  C   UNL     1      47.442   5.836  13.792  0.00  0.00    +0.000 A 
ATOM     17  C   UNL     1      46.849   6.243  12.622  0.00  0.00    +0.000 A 
ATOM     18  N   UNL     1      45.808   5.605  12.054  0.00  0.00    +0.000 NA
ENDBRANCH  12  13
ENDBRANCH  11  12
ENDBRANCH   4  11
TORSDOF 5
ENDMDL
MODEL 2
REMARK VINA RESULT:    -6.449      1.742      6.095
REMARK INTER + INTRA:          -8.452
REMARK INTER:                  -8.152
REMARK INTRA:                  -0.301
REMARK UNBOUND:                -0.308
REMARK  Name = 
REMARK  5 active torsions:
REMARK  status: ('A' for Active; 'I' for Inactive)
REMARK    1  A    between atoms: N_1  and  C_2
REMARK    2  A    between atoms: C_2  and  C_3
REMARK    3  A    between atoms: C_6  and  S_7
REMARK    4  A    between atoms: S_7  and  C_8
REMARK    5  A    between atoms: C_8  and  C_9
REMARK                            x       y       z     vdW  Elec       q    Type
REMARK                         _______ _______ _______ _____ _____    ______ ____
ROOT
ATOM      1  C   UNL     1      46.933   5.600  13.244  0.00  0.00    +0.000 A 
ATOM      2  C   UNL     1      46.816   6.377  12.083  0.00  0.00    +0.000 A 
ATOM      3  C   UNL     1      45.974   5.981  11.034  0.00  0.00    +0.000 A 
ATOM      4  C   UNL     1      45.240   4.796  11.120  0.00  0.00    +0.000 A 
ATOM      5  C   UNL     1      45.339   4.033  12.291  0.00  0.00    +0.000 A 
ATOM      6  C   UNL     1      46.178   4.427  13.340  0.00  0.00    +0.000 A 
ENDROOT
BRANCH   1   7
ATOM      7  C   UNL     1      47.878   5.995  14.352  0.00  0.00    +0.000 C 
BRANCH   7   8
ATOM      8  N   UNL     1      47.770   5.116  15.509  0.00  0.00    +0.000 NA
ATOM      9  H   UNL     1      47.763   5.683  16.356  0.00  0.00    +0.000 HD
ATOM     10  H   UNL     1      48.608   4.538  15.559  0.00  0.00    +0.000 HD
ENDBRANCH   7   8
ENDBRANCH   1   7
BRANCH   4  11
ATOM     11  S   UNL     1      44.114   4.221   9.857  0.00  0.00    +0.000 S 
BRANCH  11  12
ATOM     12  C   UNL     1      44.634   2.481   9.617  0.00  0.00    +0.000 C 
BRANCH  12  13
ATOM     13  C   UNL     1      45.620   2.340   8.478  0.00  0.00    +0.000 A 
ATOM     14  N   UNL     1      46.211   1.137   8.304  0.00  0.00    +0.000 NA
ATOM     15  C   UNL     1      47.093   1.038   7.291  0.00  0.00    +0.000 A 
ATOM     16  C   UNL     1      47.396   2.076   6.445  0.00  0.00    +0.000 A 
ATOM     17  C   UNL     1      46.735   3.254   6.693  0.00  0.00    +0.000 A 
ATOM     18  N   UNL     1      45.847   3.413   7.693  0.00  0.00    +0.000 NA
ENDBRANCH  12  13
ENDBRANCH  11  12
ENDBRANCH   4  11
TORSDOF 5
ENDMDL
MODEL 3
REMARK VINA RESULT:    -6.334      1.943      6.161
REMARK INTER + INTRA:          -8.308
REMARK INTER:                  -8.021
REMARK INTRA:                  -0.287
REMARK UNBOUND:                -0.308
REMARK  Name = 
REMARK  5 active torsions:
REMARK  status: ('A' for Active; 'I' for Inactive)
REMARK    1  A    between atoms: N_1  and  C_2
REMARK    2  A    between atoms: C_2  and  C_3
REMARK    3  A    between atoms: C_6  and  S_7
REMARK    4  A    between atoms: S_7  and  C_8
REMARK    5  A    between atoms: C_8  and  C_9
REMARK                            x       y       z     vdW  Elec       q    Type
REMARK                         _______ _______ _______ _____ _____    ______ ____
ROOT
ATOM      1  C   UNL     1      46.695   6.519  12.889  0.00  0.00    +0.000 A 
ATOM      2  C   UNL     1      46.374   5.291  13.484  0.00  0.00    +0.000 A 
ATOM      3  C   UNL     1      45.607   4.337  12.799  0.00  0.00    +0.000 A 
ATOM      4  C   UNL     1      45.138   4.595  11.510  0.00  0.00    +0.000 A 
ATOM      5  C   UNL     1      45.480   5.813  10.906  0.00  0.00    +0.000 A 
ATOM      6  C   UNL     1      46.246   6.765  11.588  0.00  0.00    +0.000 A 
ENDROOT
BRANCH   1   7
ATOM      7  C   UNL     1      47.473   7.569  13.642  0.00  0.00    +0.000 C 
BRANCH   7   8
ATOM      8  N   UNL     1      46.665   8.743  13.946  0.00  0.00    +0.000 NA
ATOM      9  H   UNL     1      45.821   8.446  14.434  0.00  0.00    +0.000 HD
ATOM     10  H   UNL     1      46.356   9.162  13.070  0.00  0.00    +0.000 HD
ENDBRANCH   7   8
ENDBRANCH   1   7
BRANCH   4  11
ATOM     11  S   UNL     1      44.186   3.435  10.539  0.00  0.00    +0.000 S 
BRANCH  11  12
ATOM     12  C   UNL     1      44.490   4.002   8.824  0.00  0.00    +0.000 C 
BRANCH  12  13
ATOM     13  C   UNL     1      45.574   3.192   8.146  0.00  0.00    +0.000 A 
ATOM     14  N   UNL     1      46.365   3.826   7.252  0.00  0.00    +0.000 NA
ATOM     15  C   UNL     1      47.316   3.082   6.653  0.00  0.00    +0.000 A 
ATOM     16  C   UNL     1      47.515   1.749   6.918  0.00  0.00    +0.000 A 
ATOM     17  C   UNL     1      46.670   1.198   7.850  0.00  0.00    +0.000 A 
ATOM     18  N   UNL     1      45.700   1.891   8.477  0.00  0.00    +0.000 NA
ENDBRANCH  12  13
ENDBRANCH  11  12
ENDBRANCH   4  11
TORSDOF 5
ENDMDL
MODEL 4
REMARK VINA RESULT:    -5.578      2.360      5.655
REMARK INTER + INTRA:          -7.353
REMARK INTER:                  -6.979
REMARK INTRA:                  -0.374
REMARK UNBOUND:                -0.308
REMARK  Name = 
REMARK  5 active torsions:
REMARK  status: ('A' for Active; 'I' for Inactive)
REMARK    1  A    between atoms: N_1  and  C_2
REMARK    2  A    between atoms: C_2  and  C_3
REMARK    3  A    between atoms: C_6  and  S_7
REMARK    4  A    between atoms: S_7  and  C_8
REMARK    5  A    between atoms: C_8  and  C_9
REMARK                            x       y       z     vdW  Elec       q    Type
REMARK                         _______ _______ _______ _____ _____    ______ ____
ROOT
ATOM      1  C   UNL     1      47.684   6.841  12.783  0.00  0.00    +0.000 A 
ATOM      2  C   UNL     1      47.536   5.543  13.292  0.00  0.00    +0.000 A 
ATOM      3  C   UNL     1      46.280   4.921  13.325  0.00  0.00    +0.000 A 
ATOM      4  C   UNL     1      45.145   5.588  12.858  0.00  0.00    +0.000 A 
ATOM      5  C   UNL     1      45.297   6.875  12.327  0.00  0.00    +0.000 A 
ATOM      6  C   UNL     1      46.551   7.497  12.293  0.00  0.00    +0.000 A 
ENDROOT
BRANCH   1   7
ATOM      7  C   UNL     1      49.024   7.533  12.796  0.00  0.00    +0.000 C 
BRANCH   7   8
ATOM      8  N   UNL     1      49.885   7.051  13.868  0.00  0.00    +0.000 NA
ATOM      9  H   UNL     1      50.432   6.264  13.524  0.00  0.00    +0.000 HD
ATOM     10  H   UNL     1      49.299   6.686  14.617  0.00  0.00    +0.000 HD
ENDBRANCH   7   8
ENDBRANCH   1   7
BRANCH   4  11
ATOM     11  S   UNL     1      43.507   4.872  12.823  0.00  0.00    +0.000 S 
BRANCH  11  12
ATOM     12  C   UNL     1      43.032   5.044  11.062  0.00  0.00    +0.000 C 
BRANCH  12  13
ATOM     13  C   UNL     1      43.894   4.188  10.159  0.00  0.00    +0.000 A 
ATOM     14  N   UNL     1      44.696   4.820   9.273  0.00  0.00    +0.000 NA
ATOM     15  C   UNL     1      45.445   4.037   8.473  0.00  0.00    +0.000 A 
ATOM     16  C   UNL     1      45.437   2.665   8.530  0.00  0.00    +0.000 A 
ATOM     17  C   UNL     1      44.599   2.117   9.470  0.00  0.00    +0.000 A 
ATOM     18  N   UNL     1      43.825   2.848  10.293  0.00  0.00    +0.000 NA
ENDBRANCH  12  13
ENDBRANCH  11  12
ENDBRANCH   4  11
TORSDOF 5
ENDMDL
MODEL 5
REMARK VINA RESULT:    -5.458      1.995      2.671
REMARK INTER + INTRA:          -7.201
REMARK INTER:                  -6.936
REMARK INTRA:                  -0.265
REMARK UNBOUND:                -0.308
REMARK  Name = 
REMARK  5 active torsions:
REMARK  status: ('A' for Active; 'I' for Inactive)
REMARK    1  A    between atoms: N_1  and  C_2
REMARK    2  A    between atoms: C_2  and  C_3
REMARK    3  A    between atoms: C_6  and  S_7
REMARK    4  A    between atoms: S_7  and  C_8
REMARK    5  A    between atoms: C_8  and  C_9
REMARK                            x       y       z     vdW  Elec       q    Type
REMARK                         _______ _______ _______ _____ _____    ______ ____
ROOT
ATOM      1  C   UNL     1      45.813   3.114   7.925  0.00  0.00    +0.000 A 
ATOM      2  C   UNL     1      44.970   2.293   8.685  0.00  0.00    +0.000 A 
ATOM      3  C   UNL     1      44.292   2.796   9.805  0.00  0.00    +0.000 A 
ATOM      4  C   UNL     1      44.452   4.128  10.193  0.00  0.00    +0.000 A 
ATOM      5  C   UNL     1      45.276   4.955   9.418  0.00  0.00    +0.000 A 
ATOM      6  C   UNL     1      45.952   4.454   8.299  0.00  0.00    +0.000 A 
ENDROOT
BRANCH   1   7
ATOM      7  C   UNL     1      46.585   2.563   6.752  0.00  0.00    +0.000 C 
BRANCH   7   8
ATOM      8  N   UNL     1      47.971   3.012   6.743  0.00  0.00    +0.000 NA
ATOM      9  H   UNL     1      48.313   3.013   5.783  0.00  0.00    +0.000 HD
ATOM     10  H   UNL     1      48.538   2.332   7.247  0.00  0.00    +0.000 HD
ENDBRANCH   7   8
ENDBRANCH   1   7
BRANCH   4  11
ATOM     11  S   UNL     1      43.608   4.876  11.580  0.00  0.00    +0.000 S 
BRANCH  11  12
ATOM     12  C   UNL     1      44.989   5.561  12.569  0.00  0.00    +0.000 C 
BRANCH  12  13
ATOM     13  C   UNL     1      45.129   7.056  12.382  0.00  0.00    +0.000 A 
ATOM     14  N   UNL     1      44.326   7.654  11.474  0.00  0.00    +0.000 NA
ATOM     15  C   UNL     1      44.476   8.983  11.317  0.00  0.00    +0.000 A 
ATOM     16  C   UNL     1      45.376   9.734  12.033  0.00  0.00    +0.000 A 
ATOM     17  C   UNL     1      46.138   9.039  12.941  0.00  0.00    +0.000 A 
ATOM     18  N   UNL     1      46.034   7.712  13.137  0.00  0.00    +0.000 NA
ENDBRANCH  12  13
ENDBRANCH  11  12
ENDBRANCH   4  11
TORSDOF 5
ENDMDL
MODEL 6
REMARK VINA RESULT:    -5.384      2.087      3.219
REMARK INTER + INTRA:          -7.108
REMARK INTER:                  -6.923
REMARK INTRA:                  -0.186
REMARK UNBOUND:                -0.308
REMARK  Name = 
REMARK  5 active torsions:
REMARK  status: ('A' for Active; 'I' for Inactive)
REMARK    1  A    between atoms: N_1  and  C_2
REMARK    2  A    between atoms: C_2  and  C_3
REMARK    3  A    between atoms: C_6  and  S_7
REMARK    4  A    between atoms: S_7  and  C_8
REMARK    5  A    between atoms: C_8  and  C_9
REMARK                            x       y       z     vdW  Elec       q    Type
REMARK                         _______ _______ _______ _____ _____    ______ ____
ROOT
ATOM      1  C   UNL     1      45.404   3.820   8.705  0.00  0.00    +0.000 A 
ATOM      2  C   UNL     1      45.804   5.113   9.070  0.00  0.00    +0.000 A 
ATOM      3  C   UNL     1      45.736   5.539  10.404  0.00  0.00    +0.000 A 
ATOM      4  C   UNL     1      45.257   4.684  11.399  0.00  0.00    +0.000 A 
ATOM      5  C   UNL     1      44.881   3.384  11.038  0.00  0.00    +0.000 A 
ATOM      6  C   UNL     1      44.950   2.957   9.707  0.00  0.00    +0.000 A 
ENDROOT
BRANCH   1   7
ATOM      7  C   UNL     1      45.425   3.377   7.264  0.00  0.00    +0.000 C 
BRANCH   7   8
ATOM      8  N   UNL     1      46.540   3.954   6.524  0.00  0.00    +0.000 NA
ATOM      9  H   UNL     1      46.730   4.888   6.888  0.00  0.00    +0.000 HD
ATOM     10  H   UNL     1      46.259   4.078   5.553  0.00  0.00    +0.000 HD
ENDBRANCH   7   8
ENDBRANCH   1   7
BRANCH   4  11
ATOM     11  S   UNL     1      45.164   5.116  13.131  0.00  0.00    +0.000 S 
BRANCH  11  12
ATOM     12  C   UNL     1      46.301   3.907  13.908  0.00  0.00    +0.000 C 
BRANCH  12  13
ATOM     13  C   UNL     1      47.099   4.527  15.034  0.00  0.00    +0.000 A 
ATOM     14  N   UNL     1      47.868   5.599  14.743  0.00  0.00    +0.000 NA
ATOM     15  C   UNL     1      48.578   6.127  15.758  0.00  0.00    +0.000 A 
ATOM     16  C   UNL     1      48.541   5.642  17.042  0.00  0.00    +0.000 A 
ATOM     17  C   UNL     1      47.721   4.558  17.242  0.00  0.00    +0.000 A 
ATOM     18  N   UNL     1      46.992   3.986  16.265  0.00  0.00    +0.000 NA
ENDBRANCH  12  13
ENDBRANCH  11  12
ENDBRANCH   4  11
TORSDOF 5
ENDMDL
MODEL 7
REMARK VINA RESULT:    -5.303      2.418      6.707
REMARK INTER + INTRA:          -7.006
REMARK INTER:                  -6.742
REMARK INTRA:                  -0.263
REMARK UNBOUND:                -0.308
REMARK  Name = 
REMARK  5 active torsions:
REMARK  status: ('A' for Active; 'I' for Inactive)
REMARK    1  A    between atoms: N_1  and  C_2
REMARK    2  A    between atoms: C_2  and  C_3
REMARK    3  A    between atoms: C_6  and  S_7
REMARK    4  A    between atoms: S_7  and  C_8
REMARK    5  A    between atoms: C_8  and  C_9
REMARK                            x       y       z     vdW  Elec       q    Type
REMARK                         _______ _______ _______ _____ _____    ______ ____
ROOT
ATOM      1  C   UNL     1      47.629   4.815  15.926  0.00  0.00    +0.000 A 
ATOM      2  C   UNL     1      48.324   5.992  15.617  0.00  0.00    +0.000 A 
ATOM      3  C   UNL     1      48.219   6.579  14.347  0.00  0.00    +0.000 A 
ATOM      4  C   UNL     1      47.425   5.994  13.359  0.00  0.00    +0.000 A 
ATOM      5  C   UNL     1      46.711   4.831  13.676  0.00  0.00    +0.000 A 
ATOM      6  C   UNL     1      46.814   4.245  14.943  0.00  0.00    +0.000 A 
ENDROOT
BRANCH   1   7
ATOM      7  C   UNL     1      47.781   4.152  17.272  0.00  0.00    +0.000 C 
BRANCH   7   8
ATOM      8  N   UNL     1      46.695   3.224  17.557  0.00  0.00    +0.000 NA
ATOM      9  H   UNL     1      46.880   2.761  18.446  0.00  0.00    +0.000 HD
ATOM     10  H   UNL     1      46.696   2.492  16.848  0.00  0.00    +0.000 HD
ENDBRANCH   7   8
ENDBRANCH   1   7
BRANCH   4  11
ATOM     11  S   UNL     1      47.195   6.679  11.724  0.00  0.00    +0.000 S 
BRANCH  11  12
ATOM     12  C   UNL     1      45.436   6.306  11.375  0.00  0.00    +0.000 C 
BRANCH  12  13
ATOM     13  C   UNL     1      45.286   5.176  10.379  0.00  0.00    +0.000 A 
ATOM     14  N   UNL     1      44.604   4.078  10.774  0.00  0.00    +0.000 NA
ATOM     15  C   UNL     1      44.493   3.081   9.875  0.00  0.00    +0.000 A 
ATOM     16  C   UNL     1      45.017   3.141   8.607  0.00  0.00    +0.000 A 
ATOM     17  C   UNL     1      45.682   4.302   8.295  0.00  0.00    +0.000 A 
ATOM     18  N   UNL     1      45.828   5.329   9.154  0.00  0.00    +0.000 NA
ENDBRANCH  12  13
ENDBRANCH  11  12
ENDBRANCH   4  11
TORSDOF 5
ENDMDL
MODEL 8
REMARK VINA RESULT:    -5.126      2.683      6.349
REMARK INTER + INTRA:          -6.782
REMARK INTER:                  -6.516
REMARK INTRA:                  -0.266
REMARK UNBOUND:                -0.308
REMARK  Name = 
REMARK  5 active torsions:
REMARK  status: ('A' for Active; 'I' for Inactive)
REMARK    1  A    between atoms: N_1  and  C_2
REMARK    2  A    between atoms: C_2  and  C_3
REMARK    3  A    between atoms: C_6  and  S_7
REMARK    4  A    between atoms: S_7  and  C_8
REMARK    5  A    between atoms: C_8  and  C_9
REMARK                            x       y       z     vdW  Elec       q    Type
REMARK                         _______ _______ _______ _____ _____    ______ ____
ROOT
ATOM      1  C   UNL     1      47.503   8.893  12.223  0.00  0.00    +0.000 A 
ATOM      2  C   UNL     1      48.133   7.696  11.855  0.00  0.00    +0.000 A 
ATOM      3  C   UNL     1      47.433   6.480  11.867  0.00  0.00    +0.000 A 
ATOM      4  C   UNL     1      46.093   6.437  12.258  0.00  0.00    +0.000 A 
ATOM      5  C   UNL     1      45.458   7.637  12.602  0.00  0.00    +0.000 A 
ATOM      6  C   UNL     1      46.154   8.851  12.588  0.00  0.00    +0.000 A 
ENDROOT
BRANCH   1   7
ATOM      7  C   UNL     1      48.266  10.193  12.261  0.00  0.00    +0.000 C 
BRANCH   7   8
ATOM      8  N   UNL     1      48.039  10.930  13.498  0.00  0.00    +0.000 NA
ATOM      9  H   UNL     1      48.360  11.890  13.375  0.00  0.00    +0.000 HD
ATOM     10  H   UNL     1      48.622  10.527  14.230  0.00  0.00    +0.000 HD
ENDBRANCH   7   8
ENDBRANCH   1   7
BRANCH   4  11
ATOM     11  S   UNL     1      45.104   4.948  12.275  0.00  0.00    +0.000 S 
BRANCH  11  12
ATOM     12  C   UNL     1      44.251   5.014  10.655  0.00  0.00    +0.000 C 
BRANCH  12  13
ATOM     13  C   UNL     1      44.932   4.141   9.623  0.00  0.00    +0.000 A 
ATOM     14  N   UNL     1      44.796   2.802   9.745  0.00  0.00    +0.000 NA
ATOM     15  C   UNL     1      45.420   2.045   8.822  0.00  0.00    +0.000 A 
ATOM     16  C   UNL     1      46.155   2.565   7.785  0.00  0.00    +0.000 A 
ATOM     17  C   UNL     1      46.224   3.936   7.739  0.00  0.00    +0.000 A 
ATOM     18  N   UNL     1      45.626   4.743   8.635  0.00  0.00    +0.000 NA
ENDBRANCH  12  13
ENDBRANCH  11  12
ENDBRANCH   4  11
TORSDOF 5
ENDMDL
MODEL 9
REMARK VINA RESULT:    -5.014      5.076      8.399
REMARK INTER + INTRA:          -6.641
REMARK INTER:                  -6.372
REMARK INTRA:                  -0.269
REMARK UNBOUND:                -0.308
REMARK  Name = 
REMARK  5 active torsions:
REMARK  status: ('A' for Active; 'I' for Inactive)
REMARK    1  A    between atoms: N_1  and  C_2
REMARK    2  A    between atoms: C_2  and  C_3
REMARK    3  A    between atoms: C_6  and  S_7
REMARK    4  A    between atoms: S_7  and  C_8
REMARK    5  A    between atoms: C_8  and  C_9
REMARK                            x       y       z     vdW  Elec       q    Type
REMARK                         _______ _______ _______ _____ _____    ______ ____
ROOT
ATOM      1  C   UNL     1      52.017   2.224  17.746  0.00  0.00    +0.000 A 
ATOM      2  C   UNL     1      52.132   3.596  18.013  0.00  0.00    +0.000 A 
ATOM      3  C   UNL     1      51.037   4.456  17.849  0.00  0.00    +0.000 A 
ATOM      4  C   UNL     1      49.807   3.964  17.405  0.00  0.00    +0.000 A 
ATOM      5  C   UNL     1      49.686   2.590  17.162  0.00  0.00    +0.000 A 
ATOM      6  C   UNL     1      50.778   1.730  17.327  0.00  0.00    +0.000 A 
ENDROOT
BRANCH   1   7
ATOM      7  C   UNL     1      53.206   1.305  17.870  0.00  0.00    +0.000 C 
BRANCH   7   8
ATOM      8  N   UNL     1      52.815  -0.066  18.172  0.00  0.00    +0.000 NA
ATOM      9  H   UNL     1      51.824  -0.181  17.963  0.00  0.00    +0.000 HD
ATOM     10  H   UNL     1      52.915  -0.221  19.174  0.00  0.00    +0.000 HD
ENDBRANCH   7   8
ENDBRANCH   1   7
BRANCH   4  11
ATOM     11  S   UNL     1      48.343   4.968  17.197  0.00  0.00    +0.000 S 
BRANCH  11  12
ATOM     12  C   UNL     1      47.293   3.928  16.116  0.00  0.00    +0.000 C 
BRANCH  12  13
ATOM     13  C   UNL     1      47.024   4.592  14.782  0.00  0.00    +0.000 A 
ATOM     14  N   UNL     1      45.921   4.211  14.102  0.00  0.00    +0.000 NA
ATOM     15  C   UNL     1      45.709   4.807  12.913  0.00  0.00    +0.000 A 
ATOM     16  C   UNL     1      46.537   5.769  12.388  0.00  0.00    +0.000 A 
ATOM     17  C   UNL     1      47.625   6.098  13.160  0.00  0.00    +0.000 A 
ATOM     18  N   UNL     1      47.890   5.532  14.352  0.00  0.00    +0.000 NA
ENDBRANCH  12  13
ENDBRANCH  11  12
ENDBRANCH   4  11
TORSDOF 5
ENDMDL
