MODEL 1
REMARK VINA RESULT:    -7.634      0.000      0.000
REMARK INTER + INTRA:         -10.495
REMARK INTER:                  -9.866
REMARK INTRA:                  -0.630
REMARK UNBOUND:                -0.630
REMARK  Name = 
REMARK  6 active torsions:
REMARK  status: ('A' for Active; 'I' for Inactive)
REMARK    1  A    between atoms: C_1  and  C_2
REMARK    2  A    between atoms: C_2  and  C_3
REMARK    3  A    between atoms: C_2  and  C_14
REMARK    4  A    between atoms: C_3  and  N_4
REMARK    5  A    between atoms: N_4  and  C_5
REMARK    6  A    between atoms: C_8  and  C_9
REMARK                            x       y       z     vdW  Elec       q    Type
REMARK                         _______ _______ _______ _____ _____    ______ ____
ROOT
ATOM      1  N   UNL     1      43.810   3.487  10.287  0.00  0.00    +0.000 N 
ATOM      2  H   UNL     1      42.932   2.993  10.131  0.00  0.00    +0.000 HD
ENDROOT
BRANCH   1   3
ATOM      3  C   UNL     1      44.737   3.209   9.272  0.00  0.00    +0.000 A 
ATOM      4  C   UNL     1      45.247   1.914   9.134  0.00  0.00    +0.000 A 
ATOM      5  C   UNL     1      46.183   1.622   8.140  0.00  0.00    +0.000 A 
ATOM      6  C   UNL     1      46.614   2.657   7.324  0.00  0.00    +0.000 A 
ATOM      7  N   UNL     1      46.204   3.947   7.459  0.00  0.00    +0.000 NA
ATOM      8  C   UNL     1      45.302   4.182   8.440  0.00  0.00    +0.000 A 
BRANCH   6   9
ATOM      9  C   UNL     1      47.573   2.389   6.207  0.00  0.00    +0.000 C 
ATOM     10  N   UNL     1      47.493   3.263   5.154  0.00  0.00    +0.000 N 
ATOM     11  O   UNL     1      48.364   1.455   6.217  0.00  0.00    +0.000 OA
ATOM     12  H   UNL     1      46.810   4.012   5.186  0.00  0.00    +0.000 HD
ATOM     13  H   UNL     1      48.087   3.138   4.350  0.00  0.00    +0.000 HD
ENDBRANCH   6   9
ENDBRANCH   1   3
BRANCH   1  14
ATOM     14  C   UNL     1      43.571   4.896  10.591  0.00  0.00    +0.000 C 
BRANCH  14  16
ATOM     15  C   UNL     1      42.991   5.112  13.082  0.00  0.00    +0.000 C 
ATOM     16  C   UNL     1      44.022   5.138  11.995  0.00  0.00    +0.000 C 
BRANCH  16  17
ATOM     17  C   UNL     1      45.388   5.597  12.288  0.00  0.00    +0.000 A 
ATOM     18  C   UNL     1      46.022   6.565  11.499  0.00  0.00    +0.000 A 
ATOM     19  C   UNL     1      47.326   6.977  11.790  0.00  0.00    +0.000 A 
ATOM     20  C   UNL     1      48.008   6.432  12.877  0.00  0.00    +0.000 A 
ATOM     21  C   UNL     1      47.389   5.473  13.669  0.00  0.00    +0.000 A 
ATOM     22  C   UNL     1      46.090   5.055  13.373  0.00  0.00    +0.000 A 
ENDBRANCH  16  17
ENDBRANCH  14  16
ENDBRANCH   1  14
TORSDOF 5
ENDMDL
MODEL 2
REMARK VINA RESULT:    -7.632      0.889      1.673
REMARK INTER + INTRA:         -10.493
REMARK INTER:                  -9.726
REMARK INTRA:                  -0.766
REMARK UNBOUND:                -0.630
REMARK  Name = 
REMARK  6 active torsions:
REMARK  status: ('A' for Active; 'I' for Inactive)
REMARK    1  A    between atoms: C_1  and  C_2
REMARK    2  A    between atoms: C_2  and  C_3
REMARK    3  A    between atoms: C_2  and  C_14
REMARK    4  A    between atoms: C_3  and  N_4
REMARK    5  A    between atoms: N_4  and  C_5
REMARK    6  A    between atoms: C_8  and  C_9
REMARK                            x       y       z     vdW  Elec       q    Type
REMARK                         _______ _______ _______ _____ _____    ______ ____
ROOT
ATOM      1  N   UNL     1      43.774   3.279  10.570  0.00  0.00    +0.000 N 
ATOM      2  H   UNL     1      43.298   4.171  10.448  0.00  0.00    +0.000 HD
ENDROOT
BRANCH   1   3
ATOM      3  C   UNL     1      44.701   3.052   9.542  0.00  0.00    +0.000 A 
ATOM      4  C   UNL     1      45.136   4.120   8.752  0.00  0.00    +0.000 A 
ATOM      5  C   UNL     1      46.046   3.910   7.714  0.00  0.00    +0.000 A 
ATOM      6  C   UNL     1      46.472   2.613   7.471  0.00  0.00    +0.000 A 
ATOM      7  N   UNL     1      46.028   1.530   8.161  0.00  0.00    +0.000 NA
ATOM      8  C   UNL     1      45.143   1.782   9.154  0.00  0.00    +0.000 A 
BRANCH   6   9
ATOM      9  C   UNL     1      47.489   2.340   6.407  0.00  0.00    +0.000 C 
ATOM     10  N   UNL     1      47.458   3.204   5.344  0.00  0.00    +0.000 N 
ATOM     11  O   UNL     1      48.284   1.411   6.466  0.00  0.00    +0.000 OA
ATOM     12  H   UNL     1      46.772   3.950   5.334  0.00  0.00    +0.000 HD
ATOM     13  H   UNL     1      48.094   3.076   4.572  0.00  0.00    +0.000 HD
ENDBRANCH   6   9
ENDBRANCH   1   3
BRANCH   1  14
ATOM     14  C   UNL     1      44.261   3.128  11.939  0.00  0.00    +0.000 C 
BRANCH  14  16
ATOM     15  C   UNL     1      43.007   5.161  12.879  0.00  0.00    +0.000 C 
ATOM     16  C   UNL     1      44.306   4.490  12.555  0.00  0.00    +0.000 C 
BRANCH  16  17
ATOM     17  C   UNL     1      45.566   5.243  12.647  0.00  0.00    +0.000 A 
ATOM     18  C   UNL     1      46.428   5.100  13.741  0.00  0.00    +0.000 A 
ATOM     19  C   UNL     1      47.615   5.836  13.812  0.00  0.00    +0.000 A 
ATOM     20  C   UNL     1      47.956   6.717  12.786  0.00  0.00    +0.000 A 
ATOM     21  C   UNL     1      47.111   6.865  11.694  0.00  0.00    +0.000 A 
ATOM     22  C   UNL     1      45.921   6.137  11.628  0.00  0.00    +0.000 A 
ENDBRANCH  16  17
ENDBRANCH  14  16
ENDBRANCH   1  14
TORSDOF 5
ENDMDL
MODEL 3
REMARK VINA RESULT:    -7.612      1.632      2.200
REMARK INTER + INTRA:         -10.467
REMARK INTER:                  -9.765
REMARK INTRA:                  -0.702
REMARK UNBOUND:                -0.630
REMARK  Name = 
REMARK  6 active torsions:
REMARK  status: ('A' for Active; 'I' for Inactive)
REMARK    1  A    between atoms: C_1  and  C_2
REMARK    2  A    between atoms: C_2  and  C_3
REMARK    3  A    between atoms: C_2  and  C_14
REMARK    4  A    between atoms: C_3  and  N_4
REMARK    5  A    between atoms: N_4  and  C_5
REMARK    6  A    between atoms: C_8  and  C_9
REMARK                            x       y       z     vdW  Elec       q    Type
REMARK                         _______ _______ _______ _____ _____    ______ ____
ROOT
ATOM      1  N   UNL     1      43.895   4.944   9.896  0.00  0.00    +0.000 N 
ATOM      2  H   UNL     1      44.200   5.888   9.665  0.00  0.00    +0.000 HD
ENDROOT
BRANCH   1   3
ATOM      3  C   UNL     1      44.694   3.982   9.262  0.00  0.00    +0.000 A 
ATOM      4  C   UNL     1      45.650   4.383   8.324  0.00  0.00    +0.000 A 
ATOM      5  C   UNL     1      46.443   3.438   7.670  0.00  0.00    +0.000 A 
ATOM      6  C   UNL     1      46.229   2.097   7.952  0.00  0.00    +0.000 A 
ATOM      7  N   UNL     1      45.267   1.648   8.802  0.00  0.00    +0.000 NA
ATOM      8  C   UNL     1      44.519   2.601   9.407  0.00  0.00    +0.000 A 
BRANCH   6   9
ATOM      9  C   UNL     1      47.088   1.046   7.323  0.00  0.00    +0.000 C 
ATOM     10  N   UNL     1      46.779  -0.242   7.677  0.00  0.00    +0.000 N 
ATOM     11  O   UNL     1      48.008   1.306   6.558  0.00  0.00    +0.000 OA
ATOM     12  H   UNL     1      46.017  -0.405   8.326  0.00  0.00    +0.000 HD
ATOM     13  H   UNL     1      47.325  -1.008   7.317  0.00  0.00    +0.000 HD
ENDBRANCH   6   9
ENDBRANCH   1   3
BRANCH   1  14
ATOM     14  C   UNL     1      43.703   4.794  11.336  0.00  0.00    +0.000 C 
BRANCH  14  16
ATOM     15  C   UNL     1      45.605   3.795  12.741  0.00  0.00    +0.000 C 
ATOM     16  C   UNL     1      45.038   4.959  11.989  0.00  0.00    +0.000 C 
BRANCH  16  17
ATOM     17  C   UNL     1      45.683   6.277  12.080  0.00  0.00    +0.000 A 
ATOM     18  C   UNL     1      47.055   6.441  11.849  0.00  0.00    +0.000 A 
ATOM     19  C   UNL     1      47.648   7.703  11.952  0.00  0.00    +0.000 A 
ATOM     20  C   UNL     1      46.875   8.816  12.281  0.00  0.00    +0.000 A 
ATOM     21  C   UNL     1      45.513   8.668  12.511  0.00  0.00    +0.000 A 
ATOM     22  C   UNL     1      44.923   7.406  12.415  0.00  0.00    +0.000 A 
ENDBRANCH  16  17
ENDBRANCH  14  16
ENDBRANCH   1  14
TORSDOF 5
ENDMDL
MODEL 4
REMARK VINA RESULT:    -7.236      2.985      6.423
REMARK INTER + INTRA:          -9.980
REMARK INTER:                  -9.482
REMARK INTRA:                  -0.498
REMARK UNBOUND:                -0.630
REMARK  Name = 
REMARK  6 active torsions:
REMARK  status: ('A' for Active; 'I' for Inactive)
REMARK    1  A    between atoms: C_1  and  C_2
REMARK    2  A    between atoms: C_2  and  C_3
REMARK    3  A    between atoms: C_2  and  C_14
REMARK    4  A    between atoms: C_3  and  N_4
REMARK    5  A    between atoms: N_4  and  C_5
REMARK    6  A    between atoms: C_8  and  C_9
REMARK                            x       y       z     vdW  Elec       q    Type
REMARK                         _______ _______ _______ _____ _____    ______ ____
ROOT
ATOM      1  N   UNL     1      43.778   4.356  10.547  0.00  0.00    +0.000 N 
ATOM      2  H   UNL     1      43.251   3.513  10.768  0.00  0.00    +0.000 HD
ENDROOT
BRANCH   1   3
ATOM      3  C   UNL     1      44.727   4.638  11.541  0.00  0.00    +0.000 A 
ATOM      4  C   UNL     1      45.567   5.747  11.404  0.00  0.00    +0.000 A 
ATOM      5  C   UNL     1      46.527   6.035  12.375  0.00  0.00    +0.000 A 
ATOM      6  C   UNL     1      46.645   5.170  13.454  0.00  0.00    +0.000 A 
ATOM      7  N   UNL     1      45.903   4.041  13.601  0.00  0.00    +0.000 NA
ATOM      8  C   UNL     1      44.989   3.802  12.632  0.00  0.00    +0.000 A 
BRANCH   6   9
ATOM      9  C   UNL     1      47.620   5.462  14.551  0.00  0.00    +0.000 C 
ATOM     10  N   UNL     1      47.257   4.989  15.785  0.00  0.00    +0.000 N 
ATOM     11  O   UNL     1      48.658   6.085  14.373  0.00  0.00    +0.000 OA
ATOM     12  H   UNL     1      46.380   4.491  15.885  0.00  0.00    +0.000 HD
ATOM     13  H   UNL     1      47.846   5.164  16.584  0.00  0.00    +0.000 HD
ENDBRANCH   6   9
ENDBRANCH   1   3
BRANCH   1  14
ATOM     14  C   UNL     1      44.260   4.325   9.168  0.00  0.00    +0.000 C 
BRANCH  14  16
ATOM     15  C   UNL     1      44.099   1.821   9.707  0.00  0.00    +0.000 C 
ATOM     16  C   UNL     1      44.670   2.920   8.865  0.00  0.00    +0.000 C 
BRANCH  16  17
ATOM     17  C   UNL     1      45.756   2.631   7.917  0.00  0.00    +0.000 A 
ATOM     18  C   UNL     1      46.483   1.435   7.974  0.00  0.00    +0.000 A 
ATOM     19  C   UNL     1      47.520   1.188   7.069  0.00  0.00    +0.000 A 
ATOM     20  C   UNL     1      47.837   2.132   6.092  0.00  0.00    +0.000 A 
ATOM     21  C   UNL     1      47.122   3.321   6.023  0.00  0.00    +0.000 A 
ATOM     22  C   UNL     1      46.092   3.570   6.932  0.00  0.00    +0.000 A 
ENDBRANCH  16  17
ENDBRANCH  14  16
ENDBRANCH   1  14
TORSDOF 5
ENDMDL
MODEL 5
REMARK VINA RESULT:    -7.009      3.377      5.938
REMARK INTER + INTRA:          -9.687
REMARK INTER:                  -8.841
REMARK INTRA:                  -0.846
REMARK UNBOUND:                -0.630
REMARK  Name = 
REMARK  6 active torsions:
REMARK  status: ('A' for Active; 'I' for Inactive)
REMARK    1  A    between atoms: C_1  and  C_2
REMARK    2  A    between atoms: C_2  and  C_3
REMARK    3  A    between atoms: C_2  and  C_14
REMARK    4  A    between atoms: C_3  and  N_4
REMARK    5  A    between atoms: N_4  and  C_5
REMARK    6  A    between atoms: C_8  and  C_9
REMARK                            x       y       z     vdW  Elec       q    Type
REMARK                         _______ _______ _______ _____ _____    ______ ____
ROOT
ATOM      1  N   UNL     1      44.127   5.129  12.445  0.00  0.00    +0.000 N 
ATOM      2  H   UNL     1      43.963   4.263  12.958  0.00  0.00    +0.000 HD
ENDROOT
BRANCH   1   3
ATOM      3  C   UNL     1      45.435   5.596  12.641  0.00  0.00    +0.000 A 
ATOM      4  C   UNL     1      45.972   6.542  11.763  0.00  0.00    +0.000 A 
ATOM      5  C   UNL     1      47.278   7.006  11.932  0.00  0.00    +0.000 A 
ATOM      6  C   UNL     1      48.031   6.476  12.969  0.00  0.00    +0.000 A 
ATOM      7  N   UNL     1      47.583   5.504  13.808  0.00  0.00    +0.000 NA
ATOM      8  C   UNL     1      46.314   5.082  13.601  0.00  0.00    +0.000 A 
BRANCH   6   9
ATOM      9  C   UNL     1      49.416   6.979  13.230  0.00  0.00    +0.000 C 
ATOM     10  N   UNL     1      50.146   7.270  12.107  0.00  0.00    +0.000 N 
ATOM     11  O   UNL     1      49.877   7.111  14.356  0.00  0.00    +0.000 OA
ATOM     12  H   UNL     1      49.725   7.129  11.195  0.00  0.00    +0.000 HD
ATOM     13  H   UNL     1      51.097   7.590  12.193  0.00  0.00    +0.000 HD
ENDBRANCH   6   9
ENDBRANCH   1   3
BRANCH   1  14
ATOM     14  C   UNL     1      43.671   5.012  11.062  0.00  0.00    +0.000 C 
BRANCH  14  16
ATOM     15  C   UNL     1      43.401   2.494  11.479  0.00  0.00    +0.000 C 
ATOM     16  C   UNL     1      43.922   3.605  10.621  0.00  0.00    +0.000 C 
BRANCH  16  17
ATOM     17  C   UNL     1      44.828   3.309   9.502  0.00  0.00    +0.000 A 
ATOM     18  C   UNL     1      45.201   1.996   9.188  0.00  0.00    +0.000 A 
ATOM     19  C   UNL     1      46.075   1.739   8.126  0.00  0.00    +0.000 A 
ATOM     20  C   UNL     1      46.580   2.792   7.364  0.00  0.00    +0.000 A 
ATOM     21  C   UNL     1      46.216   4.099   7.664  0.00  0.00    +0.000 A 
ATOM     22  C   UNL     1      45.350   4.355   8.729  0.00  0.00    +0.000 A 
ENDBRANCH  16  17
ENDBRANCH  14  16
ENDBRANCH   1  14
TORSDOF 5
ENDMDL
MODEL 6
REMARK VINA RESULT:    -6.609      3.736      6.711
REMARK INTER + INTRA:          -9.170
REMARK INTER:                  -8.910
REMARK INTRA:                  -0.260
REMARK UNBOUND:                -0.630
REMARK  Name = 
REMARK  6 active torsions:
REMARK  status: ('A' for Active; 'I' for Inactive)
REMARK    1  A    between atoms: C_1  and  C_2
REMARK    2  A    between atoms: C_2  and  C_3
REMARK    3  A    between atoms: C_2  and  C_14
REMARK    4  A    between atoms: C_3  and  N_4
REMARK    5  A    between atoms: N_4  and  C_5
REMARK    6  A    between atoms: C_8  and  C_9
REMARK                            x       y       z     vdW  Elec       q    Type
REMARK                         _______ _______ _______ _____ _____    ______ ____
ROOT
ATOM      1  N   UNL     1      46.392   5.906  11.451  0.00  0.00    +0.000 N 
ATOM      2  H   UNL     1      47.038   6.647  11.183  0.00  0.00    +0.000 HD
ENDROOT
BRANCH   1   3
ATOM      3  C   UNL     1      46.657   5.446  12.750  0.00  0.00    +0.000 A 
ATOM      4  C   UNL     1      47.419   6.230  13.621  0.00  0.00    +0.000 A 
ATOM      5  C   UNL     1      47.707   5.782  14.911  0.00  0.00    +0.000 A 
ATOM      6  C   UNL     1      47.248   4.528  15.285  0.00  0.00    +0.000 A 
ATOM      7  N   UNL     1      46.564   3.695  14.456  0.00  0.00    +0.000 NA
ATOM      8  C   UNL     1      46.314   4.171  13.214  0.00  0.00    +0.000 A 
BRANCH   6   9
ATOM      9  C   UNL     1      47.480   4.022  16.675  0.00  0.00    +0.000 C 
ATOM     10  N   UNL     1      48.646   4.448  17.256  0.00  0.00    +0.000 N 
ATOM     11  O   UNL     1      46.701   3.275  17.252  0.00  0.00    +0.000 OA
ATOM     12  H   UNL     1      49.266   5.055  16.732  0.00  0.00    +0.000 HD
ATOM     13  H   UNL     1      48.890   4.134  18.182  0.00  0.00    +0.000 HD
ENDBRANCH   6   9
ENDBRANCH   1   3
BRANCH   1  14
ATOM     14  C   UNL     1      45.011   6.282  11.156  0.00  0.00    +0.000 C 
BRANCH  14  16
ATOM     15  C   UNL     1      43.041   4.652  11.378  0.00  0.00    +0.000 C 
ATOM     16  C   UNL     1      44.301   5.056  10.678  0.00  0.00    +0.000 C 
BRANCH  16  17
ATOM     17  C   UNL     1      44.920   4.152   9.697  0.00  0.00    +0.000 A 
ATOM     18  C   UNL     1      44.822   2.760   9.817  0.00  0.00    +0.000 A 
ATOM     19  C   UNL     1      45.429   1.921   8.878  0.00  0.00    +0.000 A 
ATOM     20  C   UNL     1      46.136   2.464   7.805  0.00  0.00    +0.000 A 
ATOM     21  C   UNL     1      46.239   3.842   7.674  0.00  0.00    +0.000 A 
ATOM     22  C   UNL     1      45.639   4.680   8.616  0.00  0.00    +0.000 A 
ENDBRANCH  16  17
ENDBRANCH  14  16
ENDBRANCH   1  14
TORSDOF 5
ENDMDL
MODEL 7
REMARK VINA RESULT:    -6.214      3.356      6.453
REMARK INTER + INTRA:          -8.660
REMARK INTER:                  -8.155
REMARK INTRA:                  -0.504
REMARK UNBOUND:                -0.630
REMARK  Name = 
REMARK  6 active torsions:
REMARK  status: ('A' for Active; 'I' for Inactive)
REMARK    1  A    between atoms: C_1  and  C_2
REMARK    2  A    between atoms: C_2  and  C_3
REMARK    3  A    between atoms: C_2  and  C_14
REMARK    4  A    between atoms: C_3  and  N_4
REMARK    5  A    between atoms: N_4  and  C_5
REMARK    6  A    between atoms: C_8  and  C_9
REMARK                            x       y       z     vdW  Elec       q    Type
REMARK                         _______ _______ _______ _____ _____    ______ ____
ROOT
ATOM      1  N   UNL     1      44.644   4.348  11.440  0.00  0.00    +0.000 N 
ATOM      2  H   UNL     1      43.837   4.176  12.038  0.00  0.00    +0.000 HD
ENDROOT
BRANCH   1   3
ATOM      3  C   UNL     1      45.673   4.986  12.148  0.00  0.00    +0.000 A 
ATOM      4  C   UNL     1      46.121   4.447  13.357  0.00  0.00    +0.000 A 
ATOM      5  C   UNL     1      47.134   5.077  14.084  0.00  0.00    +0.000 A 
ATOM      6  C   UNL     1      47.651   6.264  13.589  0.00  0.00    +0.000 A 
ATOM      7  N   UNL     1      47.205   6.869  12.456  0.00  0.00    +0.000 NA
ATOM      8  C   UNL     1      46.219   6.224  11.789  0.00  0.00    +0.000 A 
BRANCH   6   9
ATOM      9  C   UNL     1      48.776   6.951  14.298  0.00  0.00    +0.000 C 
ATOM     10  N   UNL     1      49.060   8.213  13.844  0.00  0.00    +0.000 N 
ATOM     11  O   UNL     1      49.409   6.430  15.207  0.00  0.00    +0.000 OA
ATOM     12  H   UNL     1      48.517   8.595  13.078  0.00  0.00    +0.000 HD
ATOM     13  H   UNL     1      49.820   8.735  14.251  0.00  0.00    +0.000 HD
ENDBRANCH   6   9
ENDBRANCH   1   3
BRANCH   1  14
ATOM     14  C   UNL     1      45.007   3.147  10.692  0.00  0.00    +0.000 C 
BRANCH  14  16
ATOM     15  C   UNL     1      44.035   4.492   8.733  0.00  0.00    +0.000 C 
ATOM     16  C   UNL     1      45.048   3.514   9.243  0.00  0.00    +0.000 C 
BRANCH  16  17
ATOM     17  C   UNL     1      45.909   2.787   8.298  0.00  0.00    +0.000 A 
ATOM     18  C   UNL     1      46.639   3.454   7.306  0.00  0.00    +0.000 A 
ATOM     19  C   UNL     1      47.442   2.740   6.411  0.00  0.00    +0.000 A 
ATOM     20  C   UNL     1      47.529   1.351   6.503  0.00  0.00    +0.000 A 
ATOM     21  C   UNL     1      46.813   0.678   7.484  0.00  0.00    +0.000 A 
ATOM     22  C   UNL     1      46.004   1.390   8.372  0.00  0.00    +0.000 A 
ENDBRANCH  16  17
ENDBRANCH  14  16
ENDBRANCH   1  14
TORSDOF 5
ENDMDL
MODEL 8
REMARK VINA RESULT:    -5.985      3.635      6.074
REMARK INTER + INTRA:          -8.364
REMARK INTER:                  -7.624
REMARK INTRA:                  -0.739
REMARK UNBOUND:                -0.630
REMARK  Name = 
REMARK  6 active torsions:
REMARK  status: ('A' for Active; 'I' for Inactive)
REMARK    1  A    between atoms: C_1  and  C_2
REMARK    2  A    between atoms: C_2  and  C_3
REMARK    3  A    between atoms: C_2  and  C_14
REMARK    4  A    between atoms: C_3  and  N_4
REMARK    5  A    between atoms: N_4  and  C_5
REMARK    6  A    between atoms: C_8  and  C_9
REMARK                            x       y       z     vdW  Elec       q    Type
REMARK                         _______ _______ _______ _____ _____    ______ ____
ROOT
ATOM      1  N   UNL     1      45.100   6.001  13.239  0.00  0.00    +0.000 N 
ATOM      2  H   UNL     1      45.060   5.969  14.257  0.00  0.00    +0.000 HD
ENDROOT
BRANCH   1   3
ATOM      3  C   UNL     1      46.089   6.891  12.797  0.00  0.00    +0.000 A 
ATOM      4  C   UNL     1      47.372   6.415  12.511  0.00  0.00    +0.000 A 
ATOM      5  C   UNL     1      48.375   7.289  12.086  0.00  0.00    +0.000 A 
ATOM      6  C   UNL     1      48.069   8.639  11.991  0.00  0.00    +0.000 A 
ATOM      7  N   UNL     1      46.860   9.164  12.323  0.00  0.00    +0.000 NA
ATOM      8  C   UNL     1      45.922   8.279  12.735  0.00  0.00    +0.000 A 
BRANCH   6   9
ATOM      9  C   UNL     1      49.089   9.610  11.487  0.00  0.00    +0.000 C 
ATOM     10  N   UNL     1      48.610  10.868  11.229  0.00  0.00    +0.000 N 
ATOM     11  O   UNL     1      50.262   9.311  11.303  0.00  0.00    +0.000 OA
ATOM     12  H   UNL     1      47.627  11.063  11.383  0.00  0.00    +0.000 HD
ATOM     13  H   UNL     1      49.227  11.576  10.862  0.00  0.00    +0.000 HD
ENDBRANCH   6   9
ENDBRANCH   1   3
BRANCH   1  14
ATOM     14  C   UNL     1      45.126   4.654  12.673  0.00  0.00    +0.000 C 
BRANCH  14  16
ATOM     15  C   UNL     1      42.931   5.170  11.447  0.00  0.00    +0.000 C 
ATOM     16  C   UNL     1      44.346   4.685  11.397  0.00  0.00    +0.000 C 
BRANCH  16  17
ATOM     17  C   UNL     1      44.869   4.065  10.171  0.00  0.00    +0.000 A 
ATOM     18  C   UNL     1      45.505   4.821   9.178  0.00  0.00    +0.000 A 
ATOM     19  C   UNL     1      45.983   4.210   8.015  0.00  0.00    +0.000 A 
ATOM     20  C   UNL     1      45.835   2.835   7.834  0.00  0.00    +0.000 A 
ATOM     21  C   UNL     1      45.208   2.073   8.811  0.00  0.00    +0.000 A 
ATOM     22  C   UNL     1      44.723   2.685   9.969  0.00  0.00    +0.000 A 
ENDBRANCH  16  17
ENDBRANCH  14  16
ENDBRANCH   1  14
TORSDOF 5
ENDMDL
MODEL 9
REMARK VINA RESULT:    -5.892      3.442      5.677
REMARK INTER + INTRA:          -8.244
REMARK INTER:                  -7.731
REMARK INTRA:                  -0.513
REMARK UNBOUND:                -0.630
REMARK  Name = 
REMARK  6 active torsions:
REMARK  status: ('A' for Active; 'I' for Inactive)
REMARK    1  A    between atoms: C_1  and  C_2
REMARK    2  A    between atoms: C_2  and  C_3
REMARK    3  A    between atoms: C_2  and  C_14
REMARK    4  A    between atoms: C_3  and  N_4
REMARK    5  A    between atoms: N_4  and  C_5
REMARK    6  A    between atoms: C_8  and  C_9
REMARK                            x       y       z     vdW  Elec       q    Type
REMARK                         _______ _______ _______ _____ _____    ______ ____
ROOT
ATOM      1  N   UNL     1      47.121   6.996  13.857  0.00  0.00    +0.000 N 
ATOM      2  H   UNL     1      47.131   7.980  13.591  0.00  0.00    +0.000 HD
ENDROOT
BRANCH   1   3
ATOM      3  C   UNL     1      46.395   6.228  12.934  0.00  0.00    +0.000 A 
ATOM      4  C   UNL     1      46.353   6.615  11.591  0.00  0.00    +0.000 A 
ATOM      5  C   UNL     1      45.623   5.872  10.662  0.00  0.00    +0.000 A 
ATOM      6  C   UNL     1      44.916   4.769  11.116  0.00  0.00    +0.000 A 
ATOM      7  N   UNL     1      44.865   4.389  12.421  0.00  0.00    +0.000 NA
ATOM      8  C   UNL     1      45.584   5.143  13.285  0.00  0.00    +0.000 A 
BRANCH   6   9
ATOM      9  C   UNL     1      44.162   3.906  10.154  0.00  0.00    +0.000 C 
ATOM     10  N   UNL     1      44.082   4.399   8.877  0.00  0.00    +0.000 N 
ATOM     11  O   UNL     1      43.642   2.845  10.475  0.00  0.00    +0.000 OA
ATOM     12  H   UNL     1      44.517   5.290   8.664  0.00  0.00    +0.000 HD
ATOM     13  H   UNL     1      43.570   3.891   8.173  0.00  0.00    +0.000 HD
ENDBRANCH   6   9
ENDBRANCH   1   3
BRANCH   1  14
ATOM     14  C   UNL     1      48.465   6.529  14.187  0.00  0.00    +0.000 C 
BRANCH  14  16
ATOM     15  C   UNL     1      49.028   7.865  16.305  0.00  0.00    +0.000 C 
ATOM     16  C   UNL     1      48.606   6.574  15.675  0.00  0.00    +0.000 C 
BRANCH  16  17
ATOM     17  C   UNL     1      48.544   5.347  16.483  0.00  0.00    +0.000 A 
ATOM     18  C   UNL     1      47.443   4.483  16.422  0.00  0.00    +0.000 A 
ATOM     19  C   UNL     1      47.402   3.328  17.210  0.00  0.00    +0.000 A 
ATOM     20  C   UNL     1      48.462   3.021  18.061  0.00  0.00    +0.000 A 
ATOM     21  C   UNL     1      49.560   3.869  18.129  0.00  0.00    +0.000 A 
ATOM     22  C   UNL     1      49.598   5.027  17.349  0.00  0.00    +0.000 A 
ENDBRANCH  16  17
ENDBRANCH  14  16
ENDBRANCH   1  14
TORSDOF 5
ENDMDL
