MODEL 1
REMARK VINA RESULT:    -7.144      0.000      0.000
REMARK INTER + INTRA:          -9.917
REMARK INTER:                  -9.441
REMARK INTRA:                  -0.476
REMARK UNBOUND:                -0.476
REMARK  Name = 
REMARK  6 active torsions:
REMARK  status: ('A' for Active; 'I' for Inactive)
REMARK    1  A    between atoms: N_1  and  C_2
REMARK    2  A    between atoms: C_2  and  C_3
REMARK    3  A    between atoms: C_3  and  C_4
REMARK    4  A    between atoms: C_4  and  C_5
REMARK    5  A    between atoms: C_8  and  C_9
REMARK    6  A    between atoms: C_9  and  N_10
REMARK                            x       y       z     vdW  Elec       q    Type
REMARK                         _______ _______ _______ _____ _____    ______ ____
ROOT
ATOM      1  C   UNL     1      45.964   2.772   8.501  0.00  0.00    +0.000 C 
ATOM      2  C   UNL     1      44.668   2.153   9.041  0.00  0.00    +0.000 C 
ATOM      3  C   UNL     1      44.166   2.857  10.297  0.00  0.00    +0.000 C 
ATOM      4  C   UNL     1      43.984   4.369  10.101  0.00  0.00    +0.000 C 
ATOM      5  C   UNL     1      45.284   4.986   9.563  0.00  0.00    +0.000 C 
ATOM      6  C   UNL     1      45.788   4.284   8.301  0.00  0.00    +0.000 C 
ENDROOT
BRANCH   1   7
ATOM      7  C   UNL     1      46.370   2.043   7.203  0.00  0.00    +0.000 C 
BRANCH   7   8
ATOM      8  C   UNL     1      46.462   2.967   5.986  0.00  0.00    +0.000 C 
BRANCH   8   9
ATOM      9  C   UNL     1      47.625   2.579   5.074  0.00  0.00    +0.000 C 
BRANCH   9  10
ATOM     10  N   UNL     1      48.569   1.747   5.810  0.00  0.00    +0.000 NA
ATOM     11  H   UNL     1      48.074   1.228   6.532  0.00  0.00    +0.000 HD
ATOM     12  H   UNL     1      49.246   2.336   6.289  0.00  0.00    +0.000 HD
ENDBRANCH   9  10
ENDBRANCH   8   9
ENDBRANCH   7   8
ENDBRANCH   1   7
BRANCH   4  13
ATOM     13  C   UNL     1      43.575   5.088  11.405  0.00  0.00    +0.000 C 
BRANCH  13  14
ATOM     14  N   UNL     1      44.696   5.467  12.255  0.00  0.00    +0.000 N 
ATOM     15  C   UNL     1      45.384   4.589  13.053  0.00  0.00    +0.000 A 
ATOM     16  C   UNL     1      46.429   5.272  13.633  0.00  0.00    +0.000 A 
ATOM     17  C   UNL     1      46.371   6.617  13.181  0.00  0.00    +0.000 A 
ATOM     18  C   UNL     1      47.182   7.749  13.393  0.00  0.00    +0.000 A 
ATOM     19  C   UNL     1      46.831   8.950  12.778  0.00  0.00    +0.000 A 
ATOM     20  F   UNL     1      47.618  10.022  12.944  0.00  0.00    +0.000 F 
ATOM     21  C   UNL     1      45.693   9.063  11.993  0.00  0.00    +0.000 A 
ATOM     22  C   UNL     1      44.866   7.957  11.783  0.00  0.00    +0.000 A 
ATOM     23  C   UNL     1      45.242   6.732  12.362  0.00  0.00    +0.000 A 
ENDBRANCH  13  14
ENDBRANCH   4  13
TORSDOF 6
ENDMDL
MODEL 2
REMARK VINA RESULT:    -7.082      1.337      2.289
REMARK INTER + INTRA:          -9.836
REMARK INTER:                  -9.348
REMARK INTRA:                  -0.487
REMARK UNBOUND:                -0.476
REMARK  Name = 
REMARK  6 active torsions:
REMARK  status: ('A' for Active; 'I' for Inactive)
REMARK    1  A    between atoms: N_1  and  C_2
REMARK    2  A    between atoms: C_2  and  C_3
REMARK    3  A    between atoms: C_3  and  C_4
REMARK    4  A    between atoms: C_4  and  C_5
REMARK    5  A    between atoms: C_8  and  C_9
REMARK    6  A    between atoms: C_9  and  N_10
REMARK                            x       y       z     vdW  Elec       q    Type
REMARK                         _______ _______ _______ _____ _____    ______ ____
ROOT
ATOM      1  C   UNL     1      46.067   2.711   8.452  0.00  0.00    +0.000 C 
ATOM      2  C   UNL     1      44.772   2.095   8.997  0.00  0.00    +0.000 C 
ATOM      3  C   UNL     1      44.216   2.868  10.187  0.00  0.00    +0.000 C 
ATOM      4  C   UNL     1      44.002   4.359   9.883  0.00  0.00    +0.000 C 
ATOM      5  C   UNL     1      45.300   4.972   9.339  0.00  0.00    +0.000 C 
ATOM      6  C   UNL     1      45.858   4.200   8.143  0.00  0.00    +0.000 C 
ENDROOT
BRANCH   1   7
ATOM      7  C   UNL     1      46.530   1.906   7.219  0.00  0.00    +0.000 C 
BRANCH   7   8
ATOM      8  C   UNL     1      46.411   2.680   5.903  0.00  0.00    +0.000 C 
BRANCH   8   9
ATOM      9  C   UNL     1      47.666   2.526   5.046  0.00  0.00    +0.000 C 
BRANCH   9  10
ATOM     10  N   UNL     1      48.677   1.782   5.787  0.00  0.00    +0.000 NA
ATOM     11  H   UNL     1      48.471   1.824   6.783  0.00  0.00    +0.000 HD
ATOM     12  H   UNL     1      49.588   2.220   5.661  0.00  0.00    +0.000 HD
ENDBRANCH   9  10
ENDBRANCH   8   9
ENDBRANCH   7   8
ENDBRANCH   1   7
BRANCH   4  13
ATOM     13  C   UNL     1      43.536   5.153  11.122  0.00  0.00    +0.000 C 
BRANCH  13  14
ATOM     14  N   UNL     1      44.552   6.036  11.682  0.00  0.00    +0.000 N 
ATOM     15  C   UNL     1      44.631   7.379  11.413  0.00  0.00    +0.000 A 
ATOM     16  C   UNL     1      45.644   7.906  12.182  0.00  0.00    +0.000 A 
ATOM     17  C   UNL     1      46.208   6.846  12.940  0.00  0.00    +0.000 A 
ATOM     18  C   UNL     1      47.224   6.781  13.914  0.00  0.00    +0.000 A 
ATOM     19  C   UNL     1      47.535   5.545  14.477  0.00  0.00    +0.000 A 
ATOM     20  F   UNL     1      48.474   5.481  15.432  0.00  0.00    +0.000 F 
ATOM     21  C   UNL     1      46.895   4.380  14.081  0.00  0.00    +0.000 A 
ATOM     22  C   UNL     1      45.897   4.418  13.104  0.00  0.00    +0.000 A 
ATOM     23  C   UNL     1      45.546   5.671  12.568  0.00  0.00    +0.000 A 
ENDBRANCH  13  14
ENDBRANCH   4  13
TORSDOF 6
ENDMDL
MODEL 3
REMARK VINA RESULT:    -6.837      1.378      2.515
REMARK INTER + INTRA:          -9.512
REMARK INTER:                  -8.990
REMARK INTRA:                  -0.522
REMARK UNBOUND:                -0.476
REMARK  Name = 
REMARK  6 active torsions:
REMARK  status: ('A' for Active; 'I' for Inactive)
REMARK    1  A    between atoms: N_1  and  C_2
REMARK    2  A    between atoms: C_2  and  C_3
REMARK    3  A    between atoms: C_3  and  C_4
REMARK    4  A    between atoms: C_4  and  C_5
REMARK    5  A    between atoms: C_8  and  C_9
REMARK    6  A    between atoms: C_9  and  N_10
REMARK                            x       y       z     vdW  Elec       q    Type
REMARK                         _______ _______ _______ _____ _____    ______ ____
ROOT
ATOM      1  C   UNL     1      44.887   3.757   8.362  0.00  0.00    +0.000 C 
ATOM      2  C   UNL     1      45.924   4.813   8.764  0.00  0.00    +0.000 C 
ATOM      3  C   UNL     1      45.501   5.603   9.998  0.00  0.00    +0.000 C 
ATOM      4  C   UNL     1      45.173   4.703  11.199  0.00  0.00    +0.000 C 
ATOM      5  C   UNL     1      44.133   3.648  10.792  0.00  0.00    +0.000 C 
ATOM      6  C   UNL     1      44.557   2.853   9.558  0.00  0.00    +0.000 C 
ENDROOT
BRANCH   1   7
ATOM      7  C   UNL     1      45.416   2.967   7.146  0.00  0.00    +0.000 C 
BRANCH   7   8
ATOM      8  C   UNL     1      46.908   3.183   6.878  0.00  0.00    +0.000 C 
BRANCH   8   9
ATOM      9  C   UNL     1      47.675   1.861   6.878  0.00  0.00    +0.000 C 
BRANCH   9  10
ATOM     10  N   UNL     1      48.555   1.805   5.717  0.00  0.00    +0.000 NA
ATOM     11  H   UNL     1      48.221   2.450   5.005  0.00  0.00    +0.000 HD
ATOM     12  H   UNL     1      48.520   0.875   5.305  0.00  0.00    +0.000 HD
ENDBRANCH   9  10
ENDBRANCH   8   9
ENDBRANCH   7   8
ENDBRANCH   1   7
BRANCH   4  13
ATOM     13  C   UNL     1      44.648   5.505  12.410  0.00  0.00    +0.000 C 
BRANCH  13  14
ATOM     14  N   UNL     1      45.290   6.801  12.592  0.00  0.00    +0.000 N 
ATOM     15  C   UNL     1      44.731   7.992  12.207  0.00  0.00    +0.000 A 
ATOM     16  C   UNL     1      45.567   9.005  12.618  0.00  0.00    +0.000 A 
ATOM     17  C   UNL     1      46.680   8.410  13.269  0.00  0.00    +0.000 A 
ATOM     18  C   UNL     1      47.816   8.929  13.922  0.00  0.00    +0.000 A 
ATOM     19  C   UNL     1      48.739   8.039  14.471  0.00  0.00    +0.000 A 
ATOM     20  F   UNL     1      49.802   8.525  15.126  0.00  0.00    +0.000 F 
ATOM     21  C   UNL     1      48.583   6.665  14.361  0.00  0.00    +0.000 A 
ATOM     22  C   UNL     1      47.473   6.130  13.703  0.00  0.00    +0.000 A 
ATOM     23  C   UNL     1      46.515   7.023  13.191  0.00  0.00    +0.000 A 
ENDBRANCH  13  14
ENDBRANCH   4  13
TORSDOF 6
ENDMDL
MODEL 4
REMARK VINA RESULT:    -6.552      3.023      6.983
REMARK INTER + INTRA:          -9.136
REMARK INTER:                  -8.577
REMARK INTRA:                  -0.558
REMARK UNBOUND:                -0.476
REMARK  Name = 
REMARK  6 active torsions:
REMARK  status: ('A' for Active; 'I' for Inactive)
REMARK    1  A    between atoms: N_1  and  C_2
REMARK    2  A    between atoms: C_2  and  C_3
REMARK    3  A    between atoms: C_3  and  C_4
REMARK    4  A    between atoms: C_4  and  C_5
REMARK    5  A    between atoms: C_8  and  C_9
REMARK    6  A    between atoms: C_9  and  N_10
REMARK                            x       y       z     vdW  Elec       q    Type
REMARK                         _______ _______ _______ _____ _____    ______ ____
ROOT
ATOM      1  C   UNL     1      48.017   6.836  12.964  0.00  0.00    +0.000 C 
ATOM      2  C   UNL     1      47.190   8.031  12.472  0.00  0.00    +0.000 C 
ATOM      3  C   UNL     1      45.953   7.599  11.692  0.00  0.00    +0.000 C 
ATOM      4  C   UNL     1      45.059   6.629  12.479  0.00  0.00    +0.000 C 
ATOM      5  C   UNL     1      45.890   5.434  12.968  0.00  0.00    +0.000 C 
ATOM      6  C   UNL     1      47.130   5.863  13.753  0.00  0.00    +0.000 C 
ENDROOT
BRANCH   1   7
ATOM      7  C   UNL     1      49.214   7.355  13.789  0.00  0.00    +0.000 C 
BRANCH   7   8
ATOM      8  C   UNL     1      49.071   7.109  15.293  0.00  0.00    +0.000 C 
BRANCH   8   9
ATOM      9  C   UNL     1      48.996   8.421  16.072  0.00  0.00    +0.000 C 
BRANCH   9  10
ATOM     10  N   UNL     1      47.704   9.056  15.838  0.00  0.00    +0.000 NA
ATOM     11  H   UNL     1      47.605   9.271  14.848  0.00  0.00    +0.000 HD
ATOM     12  H   UNL     1      47.664   9.946  16.332  0.00  0.00    +0.000 HD
ENDBRANCH   9  10
ENDBRANCH   8   9
ENDBRANCH   7   8
ENDBRANCH   1   7
BRANCH   4  13
ATOM     13  C   UNL     1      43.864   6.119  11.645  0.00  0.00    +0.000 C 
BRANCH  13  14
ATOM     14  N   UNL     1      43.970   4.722  11.241  0.00  0.00    +0.000 N 
ATOM     15  C   UNL     1      43.341   3.689  11.886  0.00  0.00    +0.000 A 
ATOM     16  C   UNL     1      43.587   2.534  11.179  0.00  0.00    +0.000 A 
ATOM     17  C   UNL     1      44.404   2.874  10.068  0.00  0.00    +0.000 A 
ATOM     18  C   UNL     1      44.932   2.137   8.989  0.00  0.00    +0.000 A 
ATOM     19  C   UNL     1      45.715   2.800   8.044  0.00  0.00    +0.000 A 
ATOM     20  F   UNL     1      46.189   2.114   6.995  0.00  0.00    +0.000 F 
ATOM     21  C   UNL     1      46.010   4.150   8.158  0.00  0.00    +0.000 A 
ATOM     22  C   UNL     1      45.510   4.896   9.229  0.00  0.00    +0.000 A 
ATOM     23  C   UNL     1      44.681   4.242  10.158  0.00  0.00    +0.000 A 
ENDBRANCH  13  14
ENDBRANCH   4  13
TORSDOF 6
ENDMDL
MODEL 5
REMARK VINA RESULT:    -6.306      2.650      3.824
REMARK INTER + INTRA:          -8.810
REMARK INTER:                  -8.182
REMARK INTRA:                  -0.628
REMARK UNBOUND:                -0.476
REMARK  Name = 
REMARK  6 active torsions:
REMARK  status: ('A' for Active; 'I' for Inactive)
REMARK    1  A    between atoms: N_1  and  C_2
REMARK    2  A    between atoms: C_2  and  C_3
REMARK    3  A    between atoms: C_3  and  C_4
REMARK    4  A    between atoms: C_4  and  C_5
REMARK    5  A    between atoms: C_8  and  C_9
REMARK    6  A    between atoms: C_9  and  N_10
REMARK                            x       y       z     vdW  Elec       q    Type
REMARK                         _______ _______ _______ _____ _____    ______ ____
ROOT
ATOM      1  C   UNL     1      44.732   3.894   8.974  0.00  0.00    +0.000 C 
ATOM      2  C   UNL     1      45.767   5.017   9.121  0.00  0.00    +0.000 C 
ATOM      3  C   UNL     1      45.624   5.770  10.439  0.00  0.00    +0.000 C 
ATOM      4  C   UNL     1      45.676   4.845  11.663  0.00  0.00    +0.000 C 
ATOM      5  C   UNL     1      44.638   3.722  11.514  0.00  0.00    +0.000 C 
ATOM      6  C   UNL     1      44.781   2.963  10.194  0.00  0.00    +0.000 C 
ENDROOT
BRANCH   1   7
ATOM      7  C   UNL     1      44.981   3.148   7.646  0.00  0.00    +0.000 C 
BRANCH   7   8
ATOM      8  C   UNL     1      46.454   3.115   7.230  0.00  0.00    +0.000 C 
BRANCH   8   9
ATOM      9  C   UNL     1      46.907   1.698   6.882  0.00  0.00    +0.000 C 
BRANCH   9  10
ATOM     10  N   UNL     1      46.582   0.796   7.981  0.00  0.00    +0.000 NA
ATOM     11  H   UNL     1      47.362   0.760   8.634  0.00  0.00    +0.000 HD
ATOM     12  H   UNL     1      46.459  -0.150   7.625  0.00  0.00    +0.000 HD
ENDBRANCH   9  10
ENDBRANCH   8   9
ENDBRANCH   7   8
ENDBRANCH   1   7
BRANCH   4  13
ATOM     13  C   UNL     1      45.429   5.602  12.986  0.00  0.00    +0.000 C 
BRANCH  13  14
ATOM     14  N   UNL     1      46.645   6.054  13.651  0.00  0.00    +0.000 N 
ATOM     15  C   UNL     1      47.322   7.199  13.315  0.00  0.00    +0.000 A 
ATOM     16  C   UNL     1      48.356   7.357  14.209  0.00  0.00    +0.000 A 
ATOM     17  C   UNL     1      48.316   6.266  15.116  0.00  0.00    +0.000 A 
ATOM     18  C   UNL     1      49.076   5.915  16.249  0.00  0.00    +0.000 A 
ATOM     19  C   UNL     1      48.759   4.742  16.934  0.00  0.00    +0.000 A 
ATOM     20  F   UNL     1      49.453   4.422  18.034  0.00  0.00    +0.000 F 
ATOM     21  C   UNL     1      47.739   3.903  16.509  0.00  0.00    +0.000 A 
ATOM     22  C   UNL     1      46.984   4.223  15.378  0.00  0.00    +0.000 A 
ATOM     23  C   UNL     1      47.270   5.429  14.714  0.00  0.00    +0.000 A 
ENDBRANCH  13  14
ENDBRANCH   4  13
TORSDOF 6
ENDMDL
MODEL 6
REMARK VINA RESULT:    -6.291      3.026      6.926
REMARK INTER + INTRA:          -8.790
REMARK INTER:                  -8.174
REMARK INTRA:                  -0.616
REMARK UNBOUND:                -0.476
REMARK  Name = 
REMARK  6 active torsions:
REMARK  status: ('A' for Active; 'I' for Inactive)
REMARK    1  A    between atoms: N_1  and  C_2
REMARK    2  A    between atoms: C_2  and  C_3
REMARK    3  A    between atoms: C_3  and  C_4
REMARK    4  A    between atoms: C_4  and  C_5
REMARK    5  A    between atoms: C_8  and  C_9
REMARK    6  A    between atoms: C_9  and  N_10
REMARK                            x       y       z     vdW  Elec       q    Type
REMARK                         _______ _______ _______ _____ _____    ______ ____
ROOT
ATOM      1  C   UNL     1      47.345   8.121  13.879  0.00  0.00    +0.000 C 
ATOM      2  C   UNL     1      47.530   6.714  13.298  0.00  0.00    +0.000 C 
ATOM      3  C   UNL     1      46.216   6.106  12.818  0.00  0.00    +0.000 C 
ATOM      4  C   UNL     1      45.479   6.998  11.808  0.00  0.00    +0.000 C 
ATOM      5  C   UNL     1      45.295   8.406  12.394  0.00  0.00    +0.000 C 
ATOM      6  C   UNL     1      46.610   9.019  12.873  0.00  0.00    +0.000 C 
ENDROOT
BRANCH   1   7
ATOM      7  C   UNL     1      48.722   8.685  14.286  0.00  0.00    +0.000 C 
BRANCH   7   8
ATOM      8  C   UNL     1      49.887   7.742  13.971  0.00  0.00    +0.000 C 
BRANCH   8   9
ATOM      9  C   UNL     1      50.690   7.404  15.225  0.00  0.00    +0.000 C 
BRANCH   9  10
ATOM     10  N   UNL     1      50.029   6.330  15.957  0.00  0.00    +0.000 NA
ATOM     11  H   UNL     1      50.663   5.958  16.662  0.00  0.00    +0.000 HD
ATOM     12  H   UNL     1      49.818   5.562  15.323  0.00  0.00    +0.000 HD
ENDBRANCH   9  10
ENDBRANCH   8   9
ENDBRANCH   7   8
ENDBRANCH   1   7
BRANCH   4  13
ATOM     13  C   UNL     1      44.104   6.423  11.406  0.00  0.00    +0.000 C 
BRANCH  13  14
ATOM     14  N   UNL     1      44.116   4.994  11.116  0.00  0.00    +0.000 N 
ATOM     15  C   UNL     1      43.431   4.058  11.847  0.00  0.00    +0.000 A 
ATOM     16  C   UNL     1      43.594   2.837  11.233  0.00  0.00    +0.000 A 
ATOM     17  C   UNL     1      44.416   3.034  10.092  0.00  0.00    +0.000 A 
ATOM     18  C   UNL     1      44.883   2.181   9.072  0.00  0.00    +0.000 A 
ATOM     19  C   UNL     1      45.693   2.714   8.070  0.00  0.00    +0.000 A 
ATOM     20  F   UNL     1      46.110   1.918   7.076  0.00  0.00    +0.000 F 
ATOM     21  C   UNL     1      46.075   4.048   8.073  0.00  0.00    +0.000 A 
ATOM     22  C   UNL     1      45.638   4.907   9.084  0.00  0.00    +0.000 A 
ATOM     23  C   UNL     1      44.780   4.384  10.069  0.00  0.00    +0.000 A 
ENDBRANCH  13  14
ENDBRANCH   4  13
TORSDOF 6
ENDMDL
MODEL 7
REMARK VINA RESULT:    -5.708      3.081      4.530
REMARK INTER + INTRA:          -8.019
REMARK INTER:                  -7.455
REMARK INTRA:                  -0.564
REMARK UNBOUND:                -0.476
REMARK  Name = 
REMARK  6 active torsions:
REMARK  status: ('A' for Active; 'I' for Inactive)
REMARK    1  A    between atoms: N_1  and  C_2
REMARK    2  A    between atoms: C_2  and  C_3
REMARK    3  A    between atoms: C_3  and  C_4
REMARK    4  A    between atoms: C_4  and  C_5
REMARK    5  A    between atoms: C_8  and  C_9
REMARK    6  A    between atoms: C_9  and  N_10
REMARK                            x       y       z     vdW  Elec       q    Type
REMARK                         _______ _______ _______ _____ _____    ______ ____
ROOT
ATOM      1  C   UNL     1      44.699   4.229  10.632  0.00  0.00    +0.000 C 
ATOM      2  C   UNL     1      45.567   5.365  10.076  0.00  0.00    +0.000 C 
ATOM      3  C   UNL     1      45.854   6.440  11.118  0.00  0.00    +0.000 C 
ATOM      4  C   UNL     1      46.484   5.876  12.400  0.00  0.00    +0.000 C 
ATOM      5  C   UNL     1      45.611   4.740  12.954  0.00  0.00    +0.000 C 
ATOM      6  C   UNL     1      45.324   3.659  11.913  0.00  0.00    +0.000 C 
ENDROOT
BRANCH   1   7
ATOM      7  C   UNL     1      44.504   3.159   9.536  0.00  0.00    +0.000 C 
BRANCH   7   8
ATOM      8  C   UNL     1      44.732   3.688   8.118  0.00  0.00    +0.000 C 
BRANCH   8   9
ATOM      9  C   UNL     1      45.971   3.062   7.478  0.00  0.00    +0.000 C 
BRANCH   9  10
ATOM     10  N   UNL     1      46.742   4.092   6.792  0.00  0.00    +0.000 NA
ATOM     11  H   UNL     1      46.967   3.778   5.850  0.00  0.00    +0.000 HD
ATOM     12  H   UNL     1      47.630   4.233   7.270  0.00  0.00    +0.000 HD
ENDBRANCH   9  10
ENDBRANCH   8   9
ENDBRANCH   7   8
ENDBRANCH   1   7
BRANCH   4  13
ATOM     13  C   UNL     1      46.677   6.955  13.487  0.00  0.00    +0.000 C 
BRANCH  13  14
ATOM     14  N   UNL     1      48.067   7.177  13.868  0.00  0.00    +0.000 N 
ATOM     15  C   UNL     1      48.923   8.008  13.192  0.00  0.00    +0.000 A 
ATOM     16  C   UNL     1      50.112   8.047  13.884  0.00  0.00    +0.000 A 
ATOM     17  C   UNL     1      49.980   7.203  15.018  0.00  0.00    +0.000 A 
ATOM     18  C   UNL     1      50.830   6.881  16.095  0.00  0.00    +0.000 A 
ATOM     19  C   UNL     1      50.373   5.993  17.068  0.00  0.00    +0.000 A 
ATOM     20  F   UNL     1      51.162   5.712  18.115  0.00  0.00    +0.000 F 
ATOM     21  C   UNL     1      49.123   5.398  16.984  0.00  0.00    +0.000 A 
ATOM     22  C   UNL     1      48.271   5.689  15.916  0.00  0.00    +0.000 A 
ATOM     23  C   UNL     1      48.709   6.621  14.958  0.00  0.00    +0.000 A 
ENDBRANCH  13  14
ENDBRANCH   4  13
TORSDOF 6
ENDMDL
MODEL 8
REMARK VINA RESULT:    -5.409      4.335      6.849
REMARK INTER + INTRA:          -7.624
REMARK INTER:                  -6.911
REMARK INTRA:                  -0.713
REMARK UNBOUND:                -0.476
REMARK  Name = 
REMARK  6 active torsions:
REMARK  status: ('A' for Active; 'I' for Inactive)
REMARK    1  A    between atoms: N_1  and  C_2
REMARK    2  A    between atoms: C_2  and  C_3
REMARK    3  A    between atoms: C_3  and  C_4
REMARK    4  A    between atoms: C_4  and  C_5
REMARK    5  A    between atoms: C_8  and  C_9
REMARK    6  A    between atoms: C_9  and  N_10
REMARK                            x       y       z     vdW  Elec       q    Type
REMARK                         _______ _______ _______ _____ _____    ______ ____
ROOT
ATOM      1  C   UNL     1      46.314   5.850  11.729  0.00  0.00    +0.000 C 
ATOM      2  C   UNL     1      46.036   5.320  13.142  0.00  0.00    +0.000 C 
ATOM      3  C   UNL     1      47.265   5.392  14.042  0.00  0.00    +0.000 C 
ATOM      4  C   UNL     1      47.867   6.804  14.118  0.00  0.00    +0.000 C 
ATOM      5  C   UNL     1      48.145   7.329  12.702  0.00  0.00    +0.000 C 
ATOM      6  C   UNL     1      46.914   7.261  11.798  0.00  0.00    +0.000 C 
ENDROOT
BRANCH   1   7
ATOM      7  C   UNL     1      45.011   5.796  10.903  0.00  0.00    +0.000 C 
BRANCH   7   8
ATOM      8  C   UNL     1      43.947   4.870  11.500  0.00  0.00    +0.000 C 
BRANCH   8   9
ATOM      9  C   UNL     1      42.597   5.574  11.623  0.00  0.00    +0.000 C 
BRANCH   9  10
ATOM     10  N   UNL     1      42.725   6.960  11.188  0.00  0.00    +0.000 NA
ATOM     11  H   UNL     1      42.457   7.582  11.948  0.00  0.00    +0.000 HD
ATOM     12  H   UNL     1      42.077   7.142  10.424  0.00  0.00    +0.000 HD
ENDBRANCH   9  10
ENDBRANCH   8   9
ENDBRANCH   7   8
ENDBRANCH   1   7
BRANCH   4  13
ATOM     13  C   UNL     1      49.168   6.846  14.948  0.00  0.00    +0.000 C 
BRANCH  13  14
ATOM     14  N   UNL     1      48.959   7.055  16.376  0.00  0.00    +0.000 N 
ATOM     15  C   UNL     1      48.668   8.273  16.936  0.00  0.00    +0.000 A 
ATOM     16  C   UNL     1      48.443   8.078  18.280  0.00  0.00    +0.000 A 
ATOM     17  C   UNL     1      48.611   6.694  18.551  0.00  0.00    +0.000 A 
ATOM     18  C   UNL     1      48.471   5.907  19.710  0.00  0.00    +0.000 A 
ATOM     19  C   UNL     1      48.716   4.537  19.625  0.00  0.00    +0.000 A 
ATOM     20  F   UNL     1      48.548   3.775  20.715  0.00  0.00    +0.000 F 
ATOM     21  C   UNL     1      49.122   3.940  18.440  0.00  0.00    +0.000 A 
ATOM     22  C   UNL     1      49.284   4.705  17.282  0.00  0.00    +0.000 A 
ATOM     23  C   UNL     1      48.991   6.079  17.353  0.00  0.00    +0.000 A 
ENDBRANCH  13  14
ENDBRANCH   4  13
TORSDOF 6
ENDMDL
MODEL 9
REMARK VINA RESULT:    -5.311      2.967      4.767
REMARK INTER + INTRA:          -7.495
REMARK INTER:                  -6.876
REMARK INTRA:                  -0.619
REMARK UNBOUND:                -0.476
REMARK  Name = 
REMARK  6 active torsions:
REMARK  status: ('A' for Active; 'I' for Inactive)
REMARK    1  A    between atoms: N_1  and  C_2
REMARK    2  A    between atoms: C_2  and  C_3
REMARK    3  A    between atoms: C_3  and  C_4
REMARK    4  A    between atoms: C_4  and  C_5
REMARK    5  A    between atoms: C_8  and  C_9
REMARK    6  A    between atoms: C_9  and  N_10
REMARK                            x       y       z     vdW  Elec       q    Type
REMARK                         _______ _______ _______ _____ _____    ______ ____
ROOT
ATOM      1  C   UNL     1      44.793   4.678  11.482  0.00  0.00    +0.000 C 
ATOM      2  C   UNL     1      45.412   5.798  10.635  0.00  0.00    +0.000 C 
ATOM      3  C   UNL     1      45.979   6.926  11.489  0.00  0.00    +0.000 C 
ATOM      4  C   UNL     1      46.993   6.434  12.532  0.00  0.00    +0.000 C 
ATOM      5  C   UNL     1      46.369   5.315  13.379  0.00  0.00    +0.000 C 
ATOM      6  C   UNL     1      45.802   4.180  12.525  0.00  0.00    +0.000 C 
ENDROOT
BRANCH   1   7
ATOM      7  C   UNL     1      44.296   3.554  10.548  0.00  0.00    +0.000 C 
BRANCH   7   8
ATOM      8  C   UNL     1      44.252   3.959   9.072  0.00  0.00    +0.000 C 
BRANCH   8   9
ATOM      9  C   UNL     1      45.232   3.138   8.236  0.00  0.00    +0.000 C 
BRANCH   9  10
ATOM     10  N   UNL     1      46.074   4.032   7.449  0.00  0.00    +0.000 NA
ATOM     11  H   UNL     1      45.488   4.685   6.933  0.00  0.00    +0.000 HD
ATOM     12  H   UNL     1      46.591   3.495   6.755  0.00  0.00    +0.000 HD
ENDBRANCH   9  10
ENDBRANCH   8   9
ENDBRANCH   7   8
ENDBRANCH   1   7
BRANCH   4  13
ATOM     13  C   UNL     1      47.485   7.567  13.458  0.00  0.00    +0.000 C 
BRANCH  13  14
ATOM     14  N   UNL     1      48.066   8.704  12.754  0.00  0.00    +0.000 N 
ATOM     15  C   UNL     1      47.522   9.963  12.751  0.00  0.00    +0.000 A 
ATOM     16  C   UNL     1      48.382  10.795  12.071  0.00  0.00    +0.000 A 
ATOM     17  C   UNL     1      49.485  10.014  11.634  0.00  0.00    +0.000 A 
ATOM     18  C   UNL     1      50.675  10.314  10.943  0.00  0.00    +0.000 A 
ATOM     19  C   UNL     1      51.571   9.281  10.670  0.00  0.00    +0.000 A 
ATOM     20  F   UNL     1      52.723   9.565  10.047  0.00  0.00    +0.000 F 
ATOM     21  C   UNL     1      51.305   7.969  11.033  0.00  0.00    +0.000 A 
ATOM     22  C   UNL     1      50.122   7.646  11.704  0.00  0.00    +0.000 A 
ATOM     23  C   UNL     1      49.239   8.693  12.023  0.00  0.00    +0.000 A 
ENDBRANCH  13  14
ENDBRANCH   4  13
TORSDOF 6
ENDMDL
