MODEL 1
REMARK VINA RESULT:    -7.438      0.000      0.000
REMARK INTER + INTRA:          -9.082
REMARK INTER:                  -8.742
REMARK INTRA:                  -0.340
REMARK UNBOUND:                -0.340
REMARK  Name = 
REMARK  3 active torsions:
REMARK  status: ('A' for Active; 'I' for Inactive)
REMARK    1  A    between atoms: C_2  and  C_4
REMARK    2  A    between atoms: N_8  and  C_9
REMARK    3  A    between atoms: C_9  and  C_10
REMARK                            x       y       z     vdW  Elec       q    Type
REMARK                         _______ _______ _______ _____ _____    ______ ____
ROOT
ATOM      1  C   UNL     1      46.572   2.607   7.322  0.00  0.00    +0.000 A 
ATOM      2  C   UNL     1      46.021   1.623   8.135  0.00  0.00    +0.000 A 
ATOM      3  C   UNL     1      45.142   2.002   9.152  0.00  0.00    +0.000 A 
ATOM      4  C   UNL     1      44.840   3.350   9.352  0.00  0.00    +0.000 A 
ATOM      5  N   UNL     1      43.918   3.671  10.360  0.00  0.00    +0.000 N 
ATOM      6  N   UNL     1      45.371   4.309   8.567  0.00  0.00    +0.000 NA
ATOM      7  C   UNL     1      46.229   3.925   7.585  0.00  0.00    +0.000 A 
ATOM      8  H   UNL     1      44.157   3.155  11.200  0.00  0.00    +0.000 HD
ENDROOT
BRANCH   1  10
ATOM      9  N   UNL     1      47.527   3.177   5.159  0.00  0.00    +0.000 N 
ATOM     10  C   UNL     1      47.515   2.314   6.221  0.00  0.00    +0.000 C 
ATOM     11  O   UNL     1      48.279   1.362   6.272  0.00  0.00    +0.000 OA
ATOM     12  H   UNL     1      48.247   3.020   4.465  0.00  0.00    +0.000 HD
ATOM     13  H   UNL     1      47.107   4.094   5.197  0.00  0.00    +0.000 HD
ENDBRANCH   1  10
BRANCH   5  14
ATOM     14  C   UNL     1      43.738   5.102  10.606  0.00  0.00    +0.000 C 
BRANCH  14  15
ATOM     15  C   UNL     1      44.611   5.592  11.780  0.00  0.00    +0.000 C 
ATOM     16  C   UNL     1      45.800   6.456  11.326  0.00  0.00    +0.000 C 
ATOM     17  C   UNL     1      46.677   6.843  12.511  0.00  0.00    +0.000 C 
ATOM     18  O   UNL     1      47.108   5.683  13.221  0.00  0.00    +0.000 OA
ATOM     19  C   UNL     1      46.012   4.956  13.773  0.00  0.00    +0.000 C 
ATOM     20  C   UNL     1      45.098   4.439  12.669  0.00  0.00    +0.000 C 
ENDBRANCH  14  15
ENDBRANCH   5  14
TORSDOF 3
ENDMDL
MODEL 2
REMARK VINA RESULT:    -7.254      2.096      6.329
REMARK INTER + INTRA:          -8.867
REMARK INTER:                  -8.474
REMARK INTRA:                  -0.393
REMARK UNBOUND:                -0.340
REMARK  Name = 
REMARK  3 active torsions:
REMARK  status: ('A' for Active; 'I' for Inactive)
REMARK    1  A    between atoms: C_2  and  C_4
REMARK    2  A    between atoms: N_8  and  C_9
REMARK    3  A    between atoms: C_9  and  C_10
REMARK                            x       y       z     vdW  Elec       q    Type
REMARK                         _______ _______ _______ _____ _____    ______ ____
ROOT
ATOM      1  C   UNL     1      46.562   4.862  13.592  0.00  0.00    +0.000 A 
ATOM      2  C   UNL     1      46.832   5.978  12.806  0.00  0.00    +0.000 A 
ATOM      3  C   UNL     1      46.278   6.051  11.526  0.00  0.00    +0.000 A 
ATOM      4  C   UNL     1      45.482   5.010  11.045  0.00  0.00    +0.000 A 
ATOM      5  N   UNL     1      44.915   5.155   9.769  0.00  0.00    +0.000 N 
ATOM      6  N   UNL     1      45.217   3.926  11.803  0.00  0.00    +0.000 NA
ATOM      7  C   UNL     1      45.767   3.866  13.044  0.00  0.00    +0.000 A 
ATOM      8  H   UNL     1      45.631   5.481   9.128  0.00  0.00    +0.000 HD
ENDROOT
BRANCH   1  10
ATOM      9  N   UNL     1      47.854   5.704  15.473  0.00  0.00    +0.000 N 
ATOM     10  C   UNL     1      47.102   4.684  14.957  0.00  0.00    +0.000 C 
ATOM     11  O   UNL     1      46.859   3.682  15.613  0.00  0.00    +0.000 OA
ATOM     12  H   UNL     1      48.128   5.610  16.443  0.00  0.00    +0.000 HD
ATOM     13  H   UNL     1      47.861   6.631  15.073  0.00  0.00    +0.000 HD
ENDBRANCH   1  10
BRANCH   5  14
ATOM     14  C   UNL     1      44.198   3.982   9.270  0.00  0.00    +0.000 C 
BRANCH  14  15
ATOM     15  C   UNL     1      45.040   3.190   8.249  0.00  0.00    +0.000 C 
ATOM     16  C   UNL     1      45.545   1.845   8.798  0.00  0.00    +0.000 C 
ATOM     17  C   UNL     1      46.440   1.142   7.785  0.00  0.00    +0.000 C 
ATOM     18  O   UNL     1      47.519   1.988   7.392  0.00  0.00    +0.000 OA
ATOM     19  C   UNL     1      47.060   3.174   6.745  0.00  0.00    +0.000 C 
ATOM     20  C   UNL     1      46.213   4.013   7.695  0.00  0.00    +0.000 C 
ENDBRANCH  14  15
ENDBRANCH   5  14
TORSDOF 3
ENDMDL
MODEL 3
REMARK VINA RESULT:    -6.031      4.008      6.033
REMARK INTER + INTRA:          -7.429
REMARK INTER:                  -7.143
REMARK INTRA:                  -0.286
REMARK UNBOUND:                -0.340
REMARK  Name = 
REMARK  3 active torsions:
REMARK  status: ('A' for Active; 'I' for Inactive)
REMARK    1  A    between atoms: C_2  and  C_4
REMARK    2  A    between atoms: N_8  and  C_9
REMARK    3  A    between atoms: C_9  and  C_10
REMARK                            x       y       z     vdW  Elec       q    Type
REMARK                         _______ _______ _______ _____ _____    ______ ____
ROOT
ATOM      1  C   UNL     1      45.396   4.870  11.617  0.00  0.00    +0.000 A 
ATOM      2  C   UNL     1      46.131   6.007  11.937  0.00  0.00    +0.000 A 
ATOM      3  C   UNL     1      46.780   6.067  13.172  0.00  0.00    +0.000 A 
ATOM      4  C   UNL     1      46.674   5.005  14.071  0.00  0.00    +0.000 A 
ATOM      5  N   UNL     1      47.382   5.098  15.280  0.00  0.00    +0.000 N 
ATOM      6  N   UNL     1      45.963   3.899  13.768  0.00  0.00    +0.000 NA
ATOM      7  C   UNL     1      45.333   3.859  12.564  0.00  0.00    +0.000 A 
ATOM      8  H   UNL     1      47.228   6.018  15.680  0.00  0.00    +0.000 HD
ENDROOT
BRANCH   1  10
ATOM      9  N   UNL     1      45.292   5.144   9.203  0.00  0.00    +0.000 N 
ATOM     10  C   UNL     1      44.668   4.708  10.341  0.00  0.00    +0.000 C 
ATOM     11  O   UNL     1      43.569   4.176  10.296  0.00  0.00    +0.000 OA
ATOM     12  H   UNL     1      44.826   4.932   8.329  0.00  0.00    +0.000 HD
ATOM     13  H   UNL     1      46.280   5.347   9.168  0.00  0.00    +0.000 HD
ENDBRANCH   1  10
BRANCH   5  14
ATOM     14  C   UNL     1      47.132   4.016  16.232  0.00  0.00    +0.000 C 
BRANCH  14  15
ATOM     15  C   UNL     1      48.404   3.651  17.026  0.00  0.00    +0.000 C 
ATOM     16  C   UNL     1      49.455   4.774  17.029  0.00  0.00    +0.000 C 
ATOM     17  C   UNL     1      50.723   4.333  17.751  0.00  0.00    +0.000 C 
ATOM     18  O   UNL     1      51.237   3.132  17.180  0.00  0.00    +0.000 OA
ATOM     19  C   UNL     1      50.323   2.045  17.308  0.00  0.00    +0.000 C 
ATOM     20  C   UNL     1      49.033   2.334  16.548  0.00  0.00    +0.000 C 
ENDBRANCH  14  15
ENDBRANCH   5  14
TORSDOF 3
ENDMDL
MODEL 4
REMARK VINA RESULT:    -5.695      4.904      8.271
REMARK INTER + INTRA:          -7.034
REMARK INTER:                  -6.793
REMARK INTRA:                  -0.241
REMARK UNBOUND:                -0.340
REMARK  Name = 
REMARK  3 active torsions:
REMARK  status: ('A' for Active; 'I' for Inactive)
REMARK    1  A    between atoms: C_2  and  C_4
REMARK    2  A    between atoms: N_8  and  C_9
REMARK    3  A    between atoms: C_9  and  C_10
REMARK                            x       y       z     vdW  Elec       q    Type
REMARK                         _______ _______ _______ _____ _____    ______ ____
ROOT
ATOM      1  C   UNL     1      49.117   4.547  17.746  0.00  0.00    +0.000 A 
ATOM      2  C   UNL     1      48.310   3.415  17.702  0.00  0.00    +0.000 A 
ATOM      3  C   UNL     1      47.410   3.267  16.644  0.00  0.00    +0.000 A 
ATOM      4  C   UNL     1      47.318   4.252  15.660  0.00  0.00    +0.000 A 
ATOM      5  N   UNL     1      46.428   4.034  14.596  0.00  0.00    +0.000 N 
ATOM      6  N   UNL     1      48.098   5.353  15.696  0.00  0.00    +0.000 NA
ATOM      7  C   UNL     1      48.965   5.484  16.735  0.00  0.00    +0.000 A 
ATOM      8  H   UNL     1      45.541   3.716  14.971  0.00  0.00    +0.000 HD
ENDROOT
BRANCH   1  10
ATOM      9  N   UNL     1      51.121   3.905  18.964  0.00  0.00    +0.000 N 
ATOM     10  C   UNL     1      50.098   4.802  18.822  0.00  0.00    +0.000 C 
ATOM     11  O   UNL     1      50.019   5.790  19.535  0.00  0.00    +0.000 OA
ATOM     12  H   UNL     1      51.839   4.148  19.636  0.00  0.00    +0.000 HD
ATOM     13  H   UNL     1      51.361   3.234  18.248  0.00  0.00    +0.000 HD
ENDBRANCH   1  10
BRANCH   5  14
ATOM     14  C   UNL     1      46.283   5.153  13.666  0.00  0.00    +0.000 C 
BRANCH  14  15
ATOM     15  C   UNL     1      45.299   4.821  12.524  0.00  0.00    +0.000 C 
ATOM     16  C   UNL     1      43.892   5.399  12.755  0.00  0.00    +0.000 C 
ATOM     17  C   UNL     1      42.939   4.973  11.645  0.00  0.00    +0.000 C 
ATOM     18  O   UNL     1      42.911   3.552  11.521  0.00  0.00    +0.000 OA
ATOM     19  C   UNL     1      44.185   3.022  11.159  0.00  0.00    +0.000 C 
ATOM     20  C   UNL     1      45.217   3.314  12.243  0.00  0.00    +0.000 C 
ENDBRANCH  14  15
ENDBRANCH   5  14
TORSDOF 3
ENDMDL
MODEL 5
REMARK VINA RESULT:    -5.395      2.546      3.912
REMARK INTER + INTRA:          -6.681
REMARK INTER:                  -6.271
REMARK INTRA:                  -0.410
REMARK UNBOUND:                -0.340
REMARK  Name = 
REMARK  3 active torsions:
REMARK  status: ('A' for Active; 'I' for Inactive)
REMARK    1  A    between atoms: C_2  and  C_4
REMARK    2  A    between atoms: N_8  and  C_9
REMARK    3  A    between atoms: C_9  and  C_10
REMARK                            x       y       z     vdW  Elec       q    Type
REMARK                         _______ _______ _______ _____ _____    ______ ____
ROOT
ATOM      1  C   UNL     1      44.847   3.758  10.242  0.00  0.00    +0.000 A 
ATOM      2  C   UNL     1      44.941   3.304  11.554  0.00  0.00    +0.000 A 
ATOM      3  C   UNL     1      45.216   4.224  12.569  0.00  0.00    +0.000 A 
ATOM      4  C   UNL     1      45.407   5.571  12.260  0.00  0.00    +0.000 A 
ATOM      5  N   UNL     1      45.637   6.460  13.323  0.00  0.00    +0.000 N 
ATOM      6  N   UNL     1      45.316   6.018  10.990  0.00  0.00    +0.000 NA
ATOM      7  C   UNL     1      45.054   5.110  10.014  0.00  0.00    +0.000 A 
ATOM      8  H   UNL     1      46.333   6.057  13.941  0.00  0.00    +0.000 HD
ENDROOT
BRANCH   1  10
ATOM      9  N   UNL     1      44.352   3.461   7.880  0.00  0.00    +0.000 N 
ATOM     10  C   UNL     1      44.565   2.869   9.095  0.00  0.00    +0.000 C 
ATOM     11  O   UNL     1      44.556   1.653   9.218  0.00  0.00    +0.000 OA
ATOM     12  H   UNL     1      44.263   2.835   7.088  0.00  0.00    +0.000 HD
ATOM     13  H   UNL     1      44.601   4.421   7.690  0.00  0.00    +0.000 HD
ENDBRANCH   1  10
BRANCH   5  14
ATOM     14  C   UNL     1      45.954   7.832  12.929  0.00  0.00    +0.000 C 
BRANCH  14  15
ATOM     15  C   UNL     1      47.450   8.151  13.129  0.00  0.00    +0.000 C 
ATOM     16  C   UNL     1      48.222   8.273  11.803  0.00  0.00    +0.000 C 
ATOM     17  C   UNL     1      49.707   8.503  12.055  0.00  0.00    +0.000 C 
ATOM     18  O   UNL     1      50.244   7.474  12.885  0.00  0.00    +0.000 OA
ATOM     19  C   UNL     1      49.633   7.453  14.174  0.00  0.00    +0.000 C 
ATOM     20  C   UNL     1      48.144   7.145  14.059  0.00  0.00    +0.000 C 
ENDBRANCH  14  15
ENDBRANCH   5  14
TORSDOF 3
ENDMDL
MODEL 6
REMARK VINA RESULT:    -5.243      3.572      5.572
REMARK INTER + INTRA:          -6.503
REMARK INTER:                  -6.168
REMARK INTRA:                  -0.334
REMARK UNBOUND:                -0.340
REMARK  Name = 
REMARK  3 active torsions:
REMARK  status: ('A' for Active; 'I' for Inactive)
REMARK    1  A    between atoms: C_2  and  C_4
REMARK    2  A    between atoms: N_8  and  C_9
REMARK    3  A    between atoms: C_9  and  C_10
REMARK                            x       y       z     vdW  Elec       q    Type
REMARK                         _______ _______ _______ _____ _____    ______ ____
ROOT
ATOM      1  C   UNL     1      44.862   4.578  11.548  0.00  0.00    +0.000 A 
ATOM      2  C   UNL     1      45.357   3.915  12.666  0.00  0.00    +0.000 A 
ATOM      3  C   UNL     1      46.278   4.571  13.487  0.00  0.00    +0.000 A 
ATOM      4  C   UNL     1      46.702   5.863  13.172  0.00  0.00    +0.000 A 
ATOM      5  N   UNL     1      47.595   6.491  14.054  0.00  0.00    +0.000 N 
ATOM      6  N   UNL     1      46.225   6.511  12.089  0.00  0.00    +0.000 NA
ATOM      7  C   UNL     1      45.334   5.858  11.298  0.00  0.00    +0.000 A 
ATOM      8  H   UNL     1      48.337   5.840  14.287  0.00  0.00    +0.000 HD
ENDROOT
BRANCH   1  10
ATOM      9  N   UNL     1      43.868   4.454   9.332  0.00  0.00    +0.000 N 
ATOM     10  C   UNL     1      43.889   3.973  10.613  0.00  0.00    +0.000 C 
ATOM     11  O   UNL     1      43.156   3.059  10.959  0.00  0.00    +0.000 OA
ATOM     12  H   UNL     1      43.270   3.961   8.680  0.00  0.00    +0.000 HD
ATOM     13  H   UNL     1      44.615   5.014   8.948  0.00  0.00    +0.000 HD
ENDBRANCH   1  10
BRANCH   5  14
ATOM     14  C   UNL     1      48.100   7.790  13.608  0.00  0.00    +0.000 C 
BRANCH  14  15
ATOM     15  C   UNL     1      49.541   7.687  13.069  0.00  0.00    +0.000 C 
ATOM     16  C   UNL     1      50.488   8.735  13.678  0.00  0.00    +0.000 C 
ATOM     17  C   UNL     1      51.875   8.648  13.052  0.00  0.00    +0.000 C 
ATOM     18  O   UNL     1      51.797   8.770  11.633  0.00  0.00    +0.000 OA
ATOM     19  C   UNL     1      51.041   7.712  11.046  0.00  0.00    +0.000 C 
ATOM     20  C   UNL     1      49.598   7.746  11.535  0.00  0.00    +0.000 C 
ENDBRANCH  14  15
ENDBRANCH   5  14
TORSDOF 3
ENDMDL
MODEL 7
REMARK VINA RESULT:    -4.852      3.920      5.975
REMARK INTER + INTRA:          -6.043
REMARK INTER:                  -5.732
REMARK INTRA:                  -0.311
REMARK UNBOUND:                -0.340
REMARK  Name = 
REMARK  3 active torsions:
REMARK  status: ('A' for Active; 'I' for Inactive)
REMARK    1  A    between atoms: C_2  and  C_4
REMARK    2  A    between atoms: N_8  and  C_9
REMARK    3  A    between atoms: C_9  and  C_10
REMARK                            x       y       z     vdW  Elec       q    Type
REMARK                         _______ _______ _______ _____ _____    ______ ____
ROOT
ATOM      1  C   UNL     1      44.662   5.480  11.670  0.00  0.00    +0.000 A 
ATOM      2  C   UNL     1      44.554   6.829  11.991  0.00  0.00    +0.000 A 
ATOM      3  C   UNL     1      45.537   7.412  12.795  0.00  0.00    +0.000 A 
ATOM      4  C   UNL     1      46.596   6.642  13.277  0.00  0.00    +0.000 A 
ATOM      5  N   UNL     1      47.578   7.288  14.044  0.00  0.00    +0.000 N 
ATOM      6  N   UNL     1      46.706   5.333  12.969  0.00  0.00    +0.000 NA
ATOM      7  C   UNL     1      45.740   4.779  12.190  0.00  0.00    +0.000 A 
ATOM      8  H   UNL     1      47.121   7.872  14.736  0.00  0.00    +0.000 HD
ENDROOT
BRANCH   1  10
ATOM      9  N   UNL     1      43.897   4.748   9.481  0.00  0.00    +0.000 N 
ATOM     10  C   UNL     1      43.676   4.765  10.831  0.00  0.00    +0.000 C 
ATOM     11  O   UNL     1      42.721   4.185  11.324  0.00  0.00    +0.000 OA
ATOM     12  H   UNL     1      43.271   4.169   8.933  0.00  0.00    +0.000 HD
ATOM     13  H   UNL     1      44.788   4.988   9.071  0.00  0.00    +0.000 HD
ENDBRANCH   1  10
BRANCH   5  14
ATOM     14  C   UNL     1      48.592   6.409  14.625  0.00  0.00    +0.000 C 
BRANCH  14  15
ATOM     15  C   UNL     1      48.304   6.110  16.111  0.00  0.00    +0.000 C 
ATOM     16  C   UNL     1      49.513   6.378  17.024  0.00  0.00    +0.000 C 
ATOM     17  C   UNL     1      49.206   5.988  18.465  0.00  0.00    +0.000 C 
ATOM     18  O   UNL     1      48.780   4.629  18.540  0.00  0.00    +0.000 OA
ATOM     19  C   UNL     1      47.572   4.406  17.814  0.00  0.00    +0.000 C 
ATOM     20  C   UNL     1      47.777   4.685  16.330  0.00  0.00    +0.000 C 
ENDBRANCH  14  15
ENDBRANCH   5  14
TORSDOF 3
ENDMDL
MODEL 8
REMARK VINA RESULT:    -4.848      4.103      5.967
REMARK INTER + INTRA:          -6.038
REMARK INTER:                  -5.676
REMARK INTRA:                  -0.363
REMARK UNBOUND:                -0.340
REMARK  Name = 
REMARK  3 active torsions:
REMARK  status: ('A' for Active; 'I' for Inactive)
REMARK    1  A    between atoms: C_2  and  C_4
REMARK    2  A    between atoms: N_8  and  C_9
REMARK    3  A    between atoms: C_9  and  C_10
REMARK                            x       y       z     vdW  Elec       q    Type
REMARK                         _______ _______ _______ _____ _____    ______ ____
ROOT
ATOM      1  C   UNL     1      44.586   4.977  11.980  0.00  0.00    +0.000 A 
ATOM      2  C   UNL     1      45.180   4.714  13.210  0.00  0.00    +0.000 A 
ATOM      3  C   UNL     1      46.427   5.277  13.492  0.00  0.00    +0.000 A 
ATOM      4  C   UNL     1      47.066   6.075  12.542  0.00  0.00    +0.000 A 
ATOM      5  N   UNL     1      48.298   6.651  12.893  0.00  0.00    +0.000 N 
ATOM      6  N   UNL     1      46.495   6.334  11.347  0.00  0.00    +0.000 NA
ATOM      7  C   UNL     1      45.285   5.775  11.086  0.00  0.00    +0.000 A 
ATOM      8  H   UNL     1      48.881   5.940  13.321  0.00  0.00    +0.000 HD
ENDROOT
BRANCH   1  10
ATOM      9  N   UNL     1      42.174   5.216  11.790  0.00  0.00    +0.000 N 
ATOM     10  C   UNL     1      43.273   4.427  11.581  0.00  0.00    +0.000 C 
ATOM     11  O   UNL     1      43.174   3.330  11.055  0.00  0.00    +0.000 OA
ATOM     12  H   UNL     1      41.298   4.868  11.418  0.00  0.00    +0.000 HD
ATOM     13  H   UNL     1      42.241   6.205  11.978  0.00  0.00    +0.000 HD
ENDBRANCH   1  10
BRANCH   5  14
ATOM     14  C   UNL     1      48.977   7.371  11.817  0.00  0.00    +0.000 C 
BRANCH  14  15
ATOM     15  C   UNL     1      49.297   8.826  12.218  0.00  0.00    +0.000 C 
ATOM     16  C   UNL     1      49.563   8.991  13.724  0.00  0.00    +0.000 C 
ATOM     17  C   UNL     1      49.789  10.456  14.081  0.00  0.00    +0.000 C 
ATOM     18  O   UNL     1      48.690  11.255  13.650  0.00  0.00    +0.000 OA
ATOM     19  C   UNL     1      48.529  11.225  12.233  0.00  0.00    +0.000 C 
ATOM     20  C   UNL     1      48.212   9.811  11.758  0.00  0.00    +0.000 C 
ENDBRANCH  14  15
ENDBRANCH   5  14
TORSDOF 3
ENDMDL
MODEL 9
REMARK VINA RESULT:    -4.783      8.647      9.666
REMARK INTER + INTRA:          -5.962
REMARK INTER:                  -5.684
REMARK INTRA:                  -0.278
REMARK UNBOUND:                -0.340
REMARK  Name = 
REMARK  3 active torsions:
REMARK  status: ('A' for Active; 'I' for Inactive)
REMARK    1  A    between atoms: C_2  and  C_4
REMARK    2  A    between atoms: N_8  and  C_9
REMARK    3  A    between atoms: C_9  and  C_10
REMARK                            x       y       z     vdW  Elec       q    Type
REMARK                         _______ _______ _______ _____ _____    ______ ____
ROOT
ATOM      1  C   UNL     1      49.322   3.078  17.403  0.00  0.00    +0.000 A 
ATOM      2  C   UNL     1      47.961   3.052  17.119  0.00  0.00    +0.000 A 
ATOM      3  C   UNL     1      47.155   4.097  17.579  0.00  0.00    +0.000 A 
ATOM      4  C   UNL     1      47.713   5.137  18.324  0.00  0.00    +0.000 A 
ATOM      5  N   UNL     1      46.866   6.183  18.723  0.00  0.00    +0.000 N 
ATOM      6  N   UNL     1      49.033   5.168  18.602  0.00  0.00    +0.000 NA
ATOM      7  C   UNL     1      49.802   4.142  18.153  0.00  0.00    +0.000 A 
ATOM      8  H   UNL     1      46.015   5.786  19.108  0.00  0.00    +0.000 HD
ENDROOT
BRANCH   1  10
ATOM      9  N   UNL     1      51.262   1.677  17.836  0.00  0.00    +0.000 N 
ATOM     10  C   UNL     1      50.261   2.022  16.969  0.00  0.00    +0.000 C 
ATOM     11  O   UNL     1      50.130   1.455  15.895  0.00  0.00    +0.000 OA
ATOM     12  H   UNL     1      51.831   0.884  17.567  0.00  0.00    +0.000 HD
ATOM     13  H   UNL     1      51.250   1.933  18.812  0.00  0.00    +0.000 HD
ENDBRANCH   1  10
BRANCH   5  14
ATOM     14  C   UNL     1      47.478   7.177  19.605  0.00  0.00    +0.000 C 
BRANCH  14  15
ATOM     15  C   UNL     1      47.173   8.616  19.140  0.00  0.00    +0.000 C 
ATOM     16  C   UNL     1      48.208   9.157  18.139  0.00  0.00    +0.000 C 
ATOM     17  C   UNL     1      47.911  10.607  17.776  0.00  0.00    +0.000 C 
ATOM     18  O   UNL     1      47.840  11.416  18.949  0.00  0.00    +0.000 OA
ATOM     19  C   UNL     1      46.781  11.010  19.815  0.00  0.00    +0.000 C 
ATOM     20  C   UNL     1      47.011   9.589  20.317  0.00  0.00    +0.000 C 
ENDBRANCH  14  15
ENDBRANCH   5  14
TORSDOF 3
ENDMDL
