MODEL 1
REMARK VINA RESULT:    -8.548      0.000      0.000
REMARK INTER + INTRA:         -13.145
REMARK INTER:                 -12.296
REMARK INTRA:                  -0.849
REMARK UNBOUND:                -0.849
REMARK  Name = 
REMARK  8 active torsions:
REMARK  status: ('A' for Active; 'I' for Inactive)
REMARK    1  A    between atoms: C_2  and  C_21
REMARK    2  A    between atoms: N_3  and  C_4
REMARK    3  A    between atoms: C_4  and  C_5
REMARK    4  A    between atoms: C_8  and  C_9
REMARK    5  A    between atoms: C_9  and  N_10
REMARK    6  A    between atoms: N_10  and  C_11
REMARK    7  A    between atoms: C_11  and  C_12
REMARK    8  A    between atoms: C_15  and  O_16
REMARK                            x       y       z     vdW  Elec       q    Type
REMARK                         _______ _______ _______ _____ _____    ______ ____
ROOT
ATOM      1  C   UNL     1      47.072   6.136  12.915  0.00  0.00    +0.000 A 
ATOM      2  C   UNL     1      46.835   6.642  11.629  0.00  0.00    +0.000 A 
ATOM      3  C   UNL     1      45.768   6.166  10.867  0.00  0.00    +0.000 A 
ATOM      4  C   UNL     1      44.908   5.188  11.379  0.00  0.00    +0.000 A 
ATOM      5  C   UNL     1      45.109   4.729  12.689  0.00  0.00    +0.000 A 
ATOM      6  C   UNL     1      46.179   5.203  13.452  0.00  0.00    +0.000 A 
ENDROOT
BRANCH   1   7
ATOM      7  C   UNL     1      48.276   6.586  13.697  0.00  0.00    +0.000 C 
BRANCH   7  10
ATOM      8  O   UNL     1      50.229   6.423  15.624  0.00  0.00    +0.000 OA
ATOM      9  C   UNL     1      49.072   6.606  15.994  0.00  0.00    +0.000 C 
ATOM     10  N   UNL     1      48.021   6.627  15.111  0.00  0.00    +0.000 N 
ATOM     11  H   UNL     1      47.122   6.992  15.411  0.00  0.00    +0.000 HD
BRANCH   9  12
ATOM     12  C   UNL     1      48.746   6.775  17.413  0.00  0.00    +0.000 A 
ATOM     13  C   UNL     1      48.365   8.022  17.886  0.00  0.00    +0.000 A 
ATOM     14  S   UNL     1      48.007   8.040  19.552  0.00  0.00    +0.000 S 
ATOM     15  C   UNL     1      48.303   6.369  19.688  0.00  0.00    +0.000 A 
ATOM     16  N   UNL     1      48.129   5.722  20.871  0.00  0.00    +0.000 NA
ATOM     17  C   UNL     1      48.356   4.453  20.818  0.00  0.00    +0.000 A 
ATOM     18  N   UNL     1      48.754   3.772  19.699  0.00  0.00    +0.000 N 
ATOM     19  C   UNL     1      48.984   4.392  18.491  0.00  0.00    +0.000 A 
ATOM     20  O   UNL     1      49.408   3.762  17.528  0.00  0.00    +0.000 OA
ATOM     21  C   UNL     1      48.707   5.813  18.486  0.00  0.00    +0.000 A 
ATOM     22  H   UNL     1      48.936   2.780  19.736  0.00  0.00    +0.000 HD
ENDBRANCH   9  12
ENDBRANCH   7  10
ENDBRANCH   1   7
BRANCH   4  23
ATOM     23  C   UNL     1      43.745   4.684  10.564  0.00  0.00    +0.000 C 
BRANCH  23  24
ATOM     24  N   UNL     1      44.111   4.308   9.186  0.00  0.00    +0.000 NA
ATOM     25  H   UNL     1      44.611   5.089   8.759  0.00  0.00    +0.000 HD
BRANCH  24  26
ATOM     26  C   UNL     1      44.978   3.133   9.261  0.00  0.00    +0.000 C 
BRANCH  26  27
ATOM     27  C   UNL     1      45.459   2.524   7.928  0.00  0.00    +0.000 C 
ATOM     28  C   UNL     1      46.077   3.685   7.123  0.00  0.00    +0.000 C 
ATOM     29  C   UNL     1      46.683   3.250   5.797  0.00  0.00    +0.000 C 
ATOM     30  C   UNL     1      47.687   2.115   5.971  0.00  0.00    +0.000 C 
ATOM     31  C   UNL     1      47.078   0.947   6.747  0.00  0.00    +0.000 C 
ATOM     32  C   UNL     1      46.463   1.371   8.090  0.00  0.00    +0.000 C 
BRANCH  30  33
ATOM     33  O   UNL     1      48.861   2.592   6.626  0.00  0.00    +0.000 OA
ATOM     34  H   UNL     1      49.081   1.989   7.353  0.00  0.00    +0.000 HD
ENDBRANCH  30  33
ENDBRANCH  26  27
ENDBRANCH  24  26
ENDBRANCH  23  24
ENDBRANCH   4  23
TORSDOF 8
ENDMDL
MODEL 2
REMARK VINA RESULT:    -8.494      0.901      1.544
REMARK INTER + INTRA:         -13.067
REMARK INTER:                 -11.973
REMARK INTRA:                  -1.094
REMARK UNBOUND:                -0.849
REMARK  Name = 
REMARK  8 active torsions:
REMARK  status: ('A' for Active; 'I' for Inactive)
REMARK    1  A    between atoms: C_2  and  C_21
REMARK    2  A    between atoms: N_3  and  C_4
REMARK    3  A    between atoms: C_4  and  C_5
REMARK    4  A    between atoms: C_8  and  C_9
REMARK    5  A    between atoms: C_9  and  N_10
REMARK    6  A    between atoms: N_10  and  C_11
REMARK    7  A    between atoms: C_11  and  C_12
REMARK    8  A    between atoms: C_15  and  O_16
REMARK                            x       y       z     vdW  Elec       q    Type
REMARK                         _______ _______ _______ _____ _____    ______ ____
ROOT
ATOM      1  C   UNL     1      47.020   6.130  12.710  0.00  0.00    +0.000 A 
ATOM      2  C   UNL     1      46.592   4.918  13.270  0.00  0.00    +0.000 A 
ATOM      3  C   UNL     1      45.579   4.175  12.664  0.00  0.00    +0.000 A 
ATOM      4  C   UNL     1      44.982   4.622  11.479  0.00  0.00    +0.000 A 
ATOM      5  C   UNL     1      45.454   5.802  10.886  0.00  0.00    +0.000 A 
ATOM      6  C   UNL     1      46.467   6.547  11.493  0.00  0.00    +0.000 A 
ENDROOT
BRANCH   1   7
ATOM      7  C   UNL     1      48.048   6.970  13.415  0.00  0.00    +0.000 C 
BRANCH   7  10
ATOM      8  O   UNL     1      50.143   6.671  15.170  0.00  0.00    +0.000 OA
ATOM      9  C   UNL     1      49.020   6.835  15.639  0.00  0.00    +0.000 C 
ATOM     10  N   UNL     1      47.904   6.921  14.845  0.00  0.00    +0.000 N 
ATOM     11  H   UNL     1      47.034   7.270  15.236  0.00  0.00    +0.000 HD
BRANCH   9  12
ATOM     12  C   UNL     1      48.806   6.913  17.087  0.00  0.00    +0.000 A 
ATOM     13  C   UNL     1      48.454   8.124  17.665  0.00  0.00    +0.000 A 
ATOM     14  S   UNL     1      48.229   8.035  19.353  0.00  0.00    +0.000 S 
ATOM     15  C   UNL     1      48.548   6.363  19.361  0.00  0.00    +0.000 A 
ATOM     16  N   UNL     1      48.475   5.643  20.512  0.00  0.00    +0.000 NA
ATOM     17  C   UNL     1      48.707   4.382  20.362  0.00  0.00    +0.000 A 
ATOM     18  N   UNL     1      49.019   3.777  19.175  0.00  0.00    +0.000 N 
ATOM     19  C   UNL     1      49.148   4.472  17.994  0.00  0.00    +0.000 A 
ATOM     20  O   UNL     1      49.499   3.908  16.962  0.00  0.00    +0.000 OA
ATOM     21  C   UNL     1      48.860   5.887  18.099  0.00  0.00    +0.000 A 
ATOM     22  H   UNL     1      49.212   2.787  19.136  0.00  0.00    +0.000 HD
ENDBRANCH   9  12
ENDBRANCH   7  10
ENDBRANCH   1   7
BRANCH   4  23
ATOM     23  C   UNL     1      43.898   3.814  10.813  0.00  0.00    +0.000 C 
BRANCH  23  24
ATOM     24  N   UNL     1      44.182   2.368  10.775  0.00  0.00    +0.000 NA
ATOM     25  H   UNL     1      43.370   1.869  11.141  0.00  0.00    +0.000 HD
BRANCH  24  26
ATOM     26  C   UNL     1      44.416   1.997   9.380  0.00  0.00    +0.000 C 
BRANCH  26  27
ATOM     27  C   UNL     1      45.772   2.396   8.760  0.00  0.00    +0.000 C 
ATOM     28  C   UNL     1      46.254   1.171   7.958  0.00  0.00    +0.000 C 
ATOM     29  C   UNL     1      47.554   1.412   7.204  0.00  0.00    +0.000 C 
ATOM     30  C   UNL     1      47.479   2.650   6.316  0.00  0.00    +0.000 C 
ATOM     31  C   UNL     1      47.025   3.877   7.106  0.00  0.00    +0.000 C 
ATOM     32  C   UNL     1      45.712   3.649   7.871  0.00  0.00    +0.000 C 
BRANCH  30  33
ATOM     33  O   UNL     1      46.604   2.413   5.214  0.00  0.00    +0.000 OA
ATOM     34  H   UNL     1      47.062   1.859   4.563  0.00  0.00    +0.000 HD
ENDBRANCH  30  33
ENDBRANCH  26  27
ENDBRANCH  24  26
ENDBRANCH  23  24
ENDBRANCH   4  23
TORSDOF 8
ENDMDL
MODEL 3
REMARK VINA RESULT:    -8.330      1.289      2.152
REMARK INTER + INTRA:         -12.832
REMARK INTER:                 -11.946
REMARK INTRA:                  -0.886
REMARK UNBOUND:                -0.849
REMARK  Name = 
REMARK  8 active torsions:
REMARK  status: ('A' for Active; 'I' for Inactive)
REMARK    1  A    between atoms: C_2  and  C_21
REMARK    2  A    between atoms: N_3  and  C_4
REMARK    3  A    between atoms: C_4  and  C_5
REMARK    4  A    between atoms: C_8  and  C_9
REMARK    5  A    between atoms: C_9  and  N_10
REMARK    6  A    between atoms: N_10  and  C_11
REMARK    7  A    between atoms: C_11  and  C_12
REMARK    8  A    between atoms: C_15  and  O_16
REMARK                            x       y       z     vdW  Elec       q    Type
REMARK                         _______ _______ _______ _____ _____    ______ ____
ROOT
ATOM      1  C   UNL     1      46.975   6.173  13.035  0.00  0.00    +0.000 A 
ATOM      2  C   UNL     1      46.227   5.073  13.477  0.00  0.00    +0.000 A 
ATOM      3  C   UNL     1      45.155   4.596  12.722  0.00  0.00    +0.000 A 
ATOM      4  C   UNL     1      44.819   5.199  11.505  0.00  0.00    +0.000 A 
ATOM      5  C   UNL     1      45.607   6.259  11.034  0.00  0.00    +0.000 A 
ATOM      6  C   UNL     1      46.679   6.739  11.790  0.00  0.00    +0.000 A 
ENDROOT
BRANCH   1   7
ATOM      7  C   UNL     1      48.070   6.740  13.895  0.00  0.00    +0.000 C 
BRANCH   7  10
ATOM      8  O   UNL     1      50.152   6.374  15.654  0.00  0.00    +0.000 OA
ATOM      9  C   UNL     1      49.008   6.301  16.095  0.00  0.00    +0.000 C 
ATOM     10  N   UNL     1      47.906   6.397  15.282  0.00  0.00    +0.000 N 
ATOM     11  H   UNL     1      46.991   6.550  15.693  0.00  0.00    +0.000 HD
BRANCH   9  12
ATOM     12  C   UNL     1      48.757   6.069  17.521  0.00  0.00    +0.000 A 
ATOM     13  C   UNL     1      49.049   4.831  18.076  0.00  0.00    +0.000 A 
ATOM     14  S   UNL     1      48.712   4.736  19.744  0.00  0.00    +0.000 S 
ATOM     15  C   UNL     1      48.209   6.361  19.790  0.00  0.00    +0.000 A 
ATOM     16  N   UNL     1      47.825   6.942  20.958  0.00  0.00    +0.000 NA
ATOM     17  C   UNL     1      47.503   8.186  20.849  0.00  0.00    +0.000 A 
ATOM     18  N   UNL     1      47.515   8.901  19.682  0.00  0.00    +0.000 N 
ATOM     19  C   UNL     1      47.855   8.345  18.469  0.00  0.00    +0.000 A 
ATOM     20  O   UNL     1      47.785   8.997  17.433  0.00  0.00    +0.000 OA
ATOM     21  C   UNL     1      48.261   6.957  18.541  0.00  0.00    +0.000 A 
ATOM     22  H   UNL     1      47.228   9.869  19.667  0.00  0.00    +0.000 HD
ENDBRANCH   9  12
ENDBRANCH   7  10
ENDBRANCH   1   7
BRANCH   4  23
ATOM     23  C   UNL     1      43.672   4.675  10.679  0.00  0.00    +0.000 C 
BRANCH  23  24
ATOM     24  N   UNL     1      44.047   4.349   9.291  0.00  0.00    +0.000 NA
ATOM     25  H   UNL     1      44.442   5.184   8.858  0.00  0.00    +0.000 HD
BRANCH  24  26
ATOM     26  C   UNL     1      45.047   3.283   9.340  0.00  0.00    +0.000 C 
BRANCH  26  27
ATOM     27  C   UNL     1      45.472   2.650   7.999  0.00  0.00    +0.000 C 
ATOM     28  C   UNL     1      46.133   3.777   7.181  0.00  0.00    +0.000 C 
ATOM     29  C   UNL     1      46.690   3.312   5.844  0.00  0.00    +0.000 C 
ATOM     30  C   UNL     1      47.637   2.126   6.000  0.00  0.00    +0.000 C 
ATOM     31  C   UNL     1      46.983   0.991   6.789  0.00  0.00    +0.000 C 
ATOM     32  C   UNL     1      46.417   1.447   8.143  0.00  0.00    +0.000 C 
BRANCH  30  33
ATOM     33  O   UNL     1      48.846   2.542   6.632  0.00  0.00    +0.000 OA
ATOM     34  H   UNL     1      48.983   3.486   6.457  0.00  0.00    +0.000 HD
ENDBRANCH  30  33
ENDBRANCH  26  27
ENDBRANCH  24  26
ENDBRANCH  23  24
ENDBRANCH   4  23
TORSDOF 8
ENDMDL
MODEL 4
REMARK VINA RESULT:    -7.539      2.156      2.552
REMARK INTER + INTRA:         -11.693
REMARK INTER:                 -10.480
REMARK INTRA:                  -1.213
REMARK UNBOUND:                -0.849
REMARK  Name = 
REMARK  8 active torsions:
REMARK  status: ('A' for Active; 'I' for Inactive)
REMARK    1  A    between atoms: C_2  and  C_21
REMARK    2  A    between atoms: N_3  and  C_4
REMARK    3  A    between atoms: C_4  and  C_5
REMARK    4  A    between atoms: C_8  and  C_9
REMARK    5  A    between atoms: C_9  and  N_10
REMARK    6  A    between atoms: N_10  and  C_11
REMARK    7  A    between atoms: C_11  and  C_12
REMARK    8  A    between atoms: C_15  and  O_16
REMARK                            x       y       z     vdW  Elec       q    Type
REMARK                         _______ _______ _______ _____ _____    ______ ____
ROOT
ATOM      1  C   UNL     1      46.054   6.128  12.981  0.00  0.00    +0.000 A 
ATOM      2  C   UNL     1      44.733   6.395  12.599  0.00  0.00    +0.000 A 
ATOM      3  C   UNL     1      43.871   5.354  12.252  0.00  0.00    +0.000 A 
ATOM      4  C   UNL     1      44.308   4.025  12.295  0.00  0.00    +0.000 A 
ATOM      5  C   UNL     1      45.611   3.755  12.739  0.00  0.00    +0.000 A 
ATOM      6  C   UNL     1      46.475   4.797  13.084  0.00  0.00    +0.000 A 
ENDROOT
BRANCH   1   7
ATOM      7  C   UNL     1      47.004   7.258  13.266  0.00  0.00    +0.000 C 
BRANCH   7  10
ATOM      8  O   UNL     1      48.286   8.706  15.221  0.00  0.00    +0.000 OA
ATOM      9  C   UNL     1      48.712   7.583  14.966  0.00  0.00    +0.000 C 
ATOM     10  N   UNL     1      48.185   6.815  13.958  0.00  0.00    +0.000 N 
ATOM     11  H   UNL     1      48.405   5.825  13.913  0.00  0.00    +0.000 HD
BRANCH   9  12
ATOM     12  C   UNL     1      49.841   7.013  15.707  0.00  0.00    +0.000 A 
ATOM     13  C   UNL     1      51.074   7.648  15.676  0.00  0.00    +0.000 A 
ATOM     14  S   UNL     1      52.270   6.862  16.602  0.00  0.00    +0.000 S 
ATOM     15  C   UNL     1      51.167   5.671  17.114  0.00  0.00    +0.000 A 
ATOM     16  N   UNL     1      51.545   4.695  17.982  0.00  0.00    +0.000 NA
ATOM     17  C   UNL     1      50.597   3.883  18.309  0.00  0.00    +0.000 A 
ATOM     18  N   UNL     1      49.313   3.945  17.839  0.00  0.00    +0.000 N 
ATOM     19  C   UNL     1      48.896   4.888  16.927  0.00  0.00    +0.000 A 
ATOM     20  O   UNL     1      47.757   4.869  16.474  0.00  0.00    +0.000 OA
ATOM     21  C   UNL     1      49.913   5.849  16.555  0.00  0.00    +0.000 A 
ATOM     22  H   UNL     1      48.628   3.259  18.121  0.00  0.00    +0.000 HD
ENDBRANCH   9  12
ENDBRANCH   7  10
ENDBRANCH   1   7
BRANCH   4  23
ATOM     23  C   UNL     1      43.375   2.897  11.937  0.00  0.00    +0.000 C 
BRANCH  23  24
ATOM     24  N   UNL     1      43.825   2.108  10.776  0.00  0.00    +0.000 NA
ATOM     25  H   UNL     1      43.081   1.459  10.518  0.00  0.00    +0.000 HD
BRANCH  24  26
ATOM     26  C   UNL     1      44.086   3.039   9.679  0.00  0.00    +0.000 C 
BRANCH  26  27
ATOM     27  C   UNL     1      45.496   3.018   9.054  0.00  0.00    +0.000 C 
ATOM     28  C   UNL     1      45.666   1.621   8.425  0.00  0.00    +0.000 C 
ATOM     29  C   UNL     1      46.984   1.444   7.685  0.00  0.00    +0.000 C 
ATOM     30  C   UNL     1      47.209   2.538   6.647  0.00  0.00    +0.000 C 
ATOM     31  C   UNL     1      47.067   3.930   7.265  0.00  0.00    +0.000 C 
ATOM     32  C   UNL     1      45.740   4.123   8.014  0.00  0.00    +0.000 C 
BRANCH  30  33
ATOM     33  O   UNL     1      46.300   2.380   5.559  0.00  0.00    +0.000 OA
ATOM     34  H   UNL     1      45.655   1.693   5.788  0.00  0.00    +0.000 HD
ENDBRANCH  30  33
ENDBRANCH  26  27
ENDBRANCH  24  26
ENDBRANCH  23  24
ENDBRANCH   4  23
TORSDOF 8
ENDMDL
MODEL 5
REMARK VINA RESULT:    -7.536      3.610      8.681
REMARK INTER + INTRA:         -11.689
REMARK INTER:                 -10.024
REMARK INTRA:                  -1.664
REMARK UNBOUND:                -0.849
REMARK  Name = 
REMARK  8 active torsions:
REMARK  status: ('A' for Active; 'I' for Inactive)
REMARK    1  A    between atoms: C_2  and  C_21
REMARK    2  A    between atoms: N_3  and  C_4
REMARK    3  A    between atoms: C_4  and  C_5
REMARK    4  A    between atoms: C_8  and  C_9
REMARK    5  A    between atoms: C_9  and  N_10
REMARK    6  A    between atoms: N_10  and  C_11
REMARK    7  A    between atoms: C_11  and  C_12
REMARK    8  A    between atoms: C_15  and  O_16
REMARK                            x       y       z     vdW  Elec       q    Type
REMARK                         _______ _______ _______ _____ _____    ______ ____
ROOT
ATOM      1  C   UNL     1      48.405   7.985  13.492  0.00  0.00    +0.000 A 
ATOM      2  C   UNL     1      48.610   6.757  14.137  0.00  0.00    +0.000 A 
ATOM      3  C   UNL     1      48.879   6.712  15.505  0.00  0.00    +0.000 A 
ATOM      4  C   UNL     1      48.935   7.890  16.258  0.00  0.00    +0.000 A 
ATOM      5  C   UNL     1      48.668   9.112  15.624  0.00  0.00    +0.000 A 
ATOM      6  C   UNL     1      48.401   9.159  14.253  0.00  0.00    +0.000 A 
ENDROOT
BRANCH   1   7
ATOM      7  C   UNL     1      48.206   8.035  12.002  0.00  0.00    +0.000 C 
BRANCH   7  10
ATOM      8  O   UNL     1      45.473   7.799  11.810  0.00  0.00    +0.000 OA
ATOM      9  C   UNL     1      46.160   6.874  11.386  0.00  0.00    +0.000 C 
ATOM     10  N   UNL     1      47.528   6.868  11.505  0.00  0.00    +0.000 N 
ATOM     11  H   UNL     1      48.077   6.209  10.961  0.00  0.00    +0.000 HD
BRANCH   9  12
ATOM     12  C   UNL     1      45.548   5.699  10.758  0.00  0.00    +0.000 A 
ATOM     13  C   UNL     1      45.745   5.463   9.405  0.00  0.00    +0.000 A 
ATOM     14  S   UNL     1      44.977   4.050   8.841  0.00  0.00    +0.000 S 
ATOM     15  C   UNL     1      44.395   3.680  10.397  0.00  0.00    +0.000 A 
ATOM     16  N   UNL     1      43.682   2.545  10.625  0.00  0.00    +0.000 NA
ATOM     17  C   UNL     1      43.336   2.377  11.857  0.00  0.00    +0.000 A 
ATOM     18  N   UNL     1      43.623   3.242  12.878  0.00  0.00    +0.000 N 
ATOM     19  C   UNL     1      44.305   4.423  12.687  0.00  0.00    +0.000 A 
ATOM     20  O   UNL     1      44.482   5.208  13.613  0.00  0.00    +0.000 OA
ATOM     21  C   UNL     1      44.750   4.642  11.326  0.00  0.00    +0.000 A 
ATOM     22  H   UNL     1      43.299   3.057  13.816  0.00  0.00    +0.000 HD
ENDBRANCH   9  12
ENDBRANCH   7  10
ENDBRANCH   1   7
BRANCH   4  23
ATOM     23  C   UNL     1      49.209   7.843  17.739  0.00  0.00    +0.000 C 
BRANCH  23  24
ATOM     24  N   UNL     1      48.349   6.893  18.467  0.00  0.00    +0.000 NA
ATOM     25  H   UNL     1      47.736   6.430  17.794  0.00  0.00    +0.000 HD
BRANCH  24  26
ATOM     26  C   UNL     1      49.218   5.914  19.117  0.00  0.00    +0.000 C 
BRANCH  26  27
ATOM     27  C   UNL     1      49.039   4.434  18.718  0.00  0.00    +0.000 C 
ATOM     28  C   UNL     1      47.604   4.307  18.169  0.00  0.00    +0.000 C 
ATOM     29  C   UNL     1      47.274   2.917  17.649  0.00  0.00    +0.000 C 
ATOM     30  C   UNL     1      48.293   2.433  16.622  0.00  0.00    +0.000 C 
ATOM     31  C   UNL     1      49.719   2.531  17.164  0.00  0.00    +0.000 C 
ATOM     32  C   UNL     1      50.068   3.931  17.693  0.00  0.00    +0.000 C 
BRANCH  30  33
ATOM     33  O   UNL     1      48.166   3.178  15.413  0.00  0.00    +0.000 OA
ATOM     34  H   UNL     1      48.969   3.058  14.884  0.00  0.00    +0.000 HD
ENDBRANCH  30  33
ENDBRANCH  26  27
ENDBRANCH  24  26
ENDBRANCH  23  24
ENDBRANCH   4  23
TORSDOF 8
ENDMDL
MODEL 6
REMARK VINA RESULT:    -7.455      2.990      9.116
REMARK INTER + INTRA:         -11.573
REMARK INTER:                 -10.051
REMARK INTRA:                  -1.522
REMARK UNBOUND:                -0.849
REMARK  Name = 
REMARK  8 active torsions:
REMARK  status: ('A' for Active; 'I' for Inactive)
REMARK    1  A    between atoms: C_2  and  C_21
REMARK    2  A    between atoms: N_3  and  C_4
REMARK    3  A    between atoms: C_4  and  C_5
REMARK    4  A    between atoms: C_8  and  C_9
REMARK    5  A    between atoms: C_9  and  N_10
REMARK    6  A    between atoms: N_10  and  C_11
REMARK    7  A    between atoms: C_11  and  C_12
REMARK    8  A    between atoms: C_15  and  O_16
REMARK                            x       y       z     vdW  Elec       q    Type
REMARK                         _______ _______ _______ _____ _____    ______ ____
ROOT
ATOM      1  C   UNL     1      47.870   7.890  13.562  0.00  0.00    +0.000 A 
ATOM      2  C   UNL     1      47.723   9.057  14.324  0.00  0.00    +0.000 A 
ATOM      3  C   UNL     1      48.270   9.141  15.605  0.00  0.00    +0.000 A 
ATOM      4  C   UNL     1      48.986   8.066  16.144  0.00  0.00    +0.000 A 
ATOM      5  C   UNL     1      49.186   6.923  15.356  0.00  0.00    +0.000 A 
ATOM      6  C   UNL     1      48.638   6.837  14.074  0.00  0.00    +0.000 A 
ENDROOT
BRANCH   1   7
ATOM      7  C   UNL     1      47.203   7.771  12.220  0.00  0.00    +0.000 C 
BRANCH   7  10
ATOM      8  O   UNL     1      44.520   7.333  11.808  0.00  0.00    +0.000 OA
ATOM      9  C   UNL     1      45.275   6.366  11.752  0.00  0.00    +0.000 C 
ATOM     10  N   UNL     1      46.618   6.474  12.016  0.00  0.00    +0.000 N 
ATOM     11  H   UNL     1      47.243   5.718  11.753  0.00  0.00    +0.000 HD
BRANCH   9  12
ATOM     12  C   UNL     1      44.771   5.026  11.434  0.00  0.00    +0.000 A 
ATOM     13  C   UNL     1      44.008   4.341  12.369  0.00  0.00    +0.000 A 
ATOM     14  S   UNL     1      43.492   2.807  11.833  0.00  0.00    +0.000 S 
ATOM     15  C   UNL     1      44.232   3.027  10.317  0.00  0.00    +0.000 A 
ATOM     16  N   UNL     1      44.128   2.082   9.344  0.00  0.00    +0.000 NA
ATOM     17  C   UNL     1      44.709   2.398   8.236  0.00  0.00    +0.000 A 
ATOM     18  N   UNL     1      45.394   3.562   8.013  0.00  0.00    +0.000 N 
ATOM     19  C   UNL     1      45.561   4.527   8.980  0.00  0.00    +0.000 A 
ATOM     20  O   UNL     1      46.241   5.526   8.767  0.00  0.00    +0.000 OA
ATOM     21  C   UNL     1      44.896   4.239  10.234  0.00  0.00    +0.000 A 
ATOM     22  H   UNL     1      45.844   3.733   7.126  0.00  0.00    +0.000 HD
ENDBRANCH   9  12
ENDBRANCH   7  10
ENDBRANCH   1   7
BRANCH   4  23
ATOM     23  C   UNL     1      49.592   8.159  17.520  0.00  0.00    +0.000 C 
BRANCH  23  24
ATOM     24  N   UNL     1      50.201   6.898  17.981  0.00  0.00    +0.000 NA
ATOM     25  H   UNL     1      51.040   7.121  18.517  0.00  0.00    +0.000 HD
BRANCH  24  26
ATOM     26  C   UNL     1      49.225   6.217  18.831  0.00  0.00    +0.000 C 
BRANCH  26  27
ATOM     27  C   UNL     1      49.000   4.711  18.583  0.00  0.00    +0.000 C 
ATOM     28  C   UNL     1      47.572   4.577  18.018  0.00  0.00    +0.000 C 
ATOM     29  C   UNL     1      47.201   3.152  17.636  0.00  0.00    +0.000 C 
ATOM     30  C   UNL     1      48.221   2.529  16.688  0.00  0.00    +0.000 C 
ATOM     31  C   UNL     1      49.639   2.634  17.249  0.00  0.00    +0.000 C 
ATOM     32  C   UNL     1      50.029   4.069  17.638  0.00  0.00    +0.000 C 
BRANCH  30  33
ATOM     33  O   UNL     1      48.144   3.149  15.405  0.00  0.00    +0.000 OA
ATOM     34  H   UNL     1      47.842   2.494  14.758  0.00  0.00    +0.000 HD
ENDBRANCH  30  33
ENDBRANCH  26  27
ENDBRANCH  24  26
ENDBRANCH  23  24
ENDBRANCH   4  23
TORSDOF 8
ENDMDL
MODEL 7
REMARK VINA RESULT:    -7.282      4.160      9.162
REMARK INTER + INTRA:         -11.323
REMARK INTER:                  -9.108
REMARK INTRA:                  -2.215
REMARK UNBOUND:                -0.849
REMARK  Name = 
REMARK  8 active torsions:
REMARK  status: ('A' for Active; 'I' for Inactive)
REMARK    1  A    between atoms: C_2  and  C_21
REMARK    2  A    between atoms: N_3  and  C_4
REMARK    3  A    between atoms: C_4  and  C_5
REMARK    4  A    between atoms: C_8  and  C_9
REMARK    5  A    between atoms: C_9  and  N_10
REMARK    6  A    between atoms: N_10  and  C_11
REMARK    7  A    between atoms: C_11  and  C_12
REMARK    8  A    between atoms: C_15  and  O_16
REMARK                            x       y       z     vdW  Elec       q    Type
REMARK                         _______ _______ _______ _____ _____    ______ ____
ROOT
ATOM      1  C   UNL     1      48.373   3.834  17.445  0.00  0.00    +0.000 A 
ATOM      2  C   UNL     1      49.638   3.294  17.179  0.00  0.00    +0.000 A 
ATOM      3  C   UNL     1      50.760   3.736  17.881  0.00  0.00    +0.000 A 
ATOM      4  C   UNL     1      50.638   4.716  18.872  0.00  0.00    +0.000 A 
ATOM      5  C   UNL     1      49.362   5.210  19.181  0.00  0.00    +0.000 A 
ATOM      6  C   UNL     1      48.239   4.770  18.477  0.00  0.00    +0.000 A 
ENDROOT
BRANCH   1   7
ATOM      7  C   UNL     1      47.183   3.420  16.625  0.00  0.00    +0.000 C 
BRANCH   7  10
ATOM      8  O   UNL     1      47.197   3.176  13.886  0.00  0.00    +0.000 OA
ATOM      9  C   UNL     1      46.743   4.210  14.368  0.00  0.00    +0.000 C 
ATOM     10  N   UNL     1      46.761   4.454  15.719  0.00  0.00    +0.000 N 
ATOM     11  H   UNL     1      46.192   5.203  16.101  0.00  0.00    +0.000 HD
BRANCH   9  12
ATOM     12  C   UNL     1      46.186   5.265  13.515  0.00  0.00    +0.000 A 
ATOM     13  C   UNL     1      46.954   6.380  13.212  0.00  0.00    +0.000 A 
ATOM     14  S   UNL     1      46.162   7.499  12.200  0.00  0.00    +0.000 S 
ATOM     15  C   UNL     1      44.782   6.509  12.094  0.00  0.00    +0.000 A 
ATOM     16  N   UNL     1      43.721   6.868  11.323  0.00  0.00    +0.000 NA
ATOM     17  C   UNL     1      42.761   6.005  11.310  0.00  0.00    +0.000 A 
ATOM     18  N   UNL     1      42.756   4.826  12.004  0.00  0.00    +0.000 N 
ATOM     19  C   UNL     1      43.788   4.441  12.830  0.00  0.00    +0.000 A 
ATOM     20  O   UNL     1      43.719   3.411  13.492  0.00  0.00    +0.000 OA
ATOM     21  C   UNL     1      44.910   5.357  12.852  0.00  0.00    +0.000 A 
ATOM     22  H   UNL     1      41.959   4.208  11.965  0.00  0.00    +0.000 HD
ENDBRANCH   9  12
ENDBRANCH   7  10
ENDBRANCH   1   7
BRANCH   4  23
ATOM     23  C   UNL     1      51.845   5.184  19.643  0.00  0.00    +0.000 C 
BRANCH  23  24
ATOM     24  N   UNL     1      52.098   6.631  19.518  0.00  0.00    +0.000 NA
ATOM     25  H   UNL     1      52.777   6.903  20.229  0.00  0.00    +0.000 HD
BRANCH  24  26
ATOM     26  C   UNL     1      52.638   6.875  18.182  0.00  0.00    +0.000 C 
BRANCH  26  27
ATOM     27  C   UNL     1      51.811   7.771  17.237  0.00  0.00    +0.000 C 
ATOM     28  C   UNL     1      51.395   6.877  16.051  0.00  0.00    +0.000 C 
ATOM     29  C   UNL     1      50.496   7.581  15.046  0.00  0.00    +0.000 C 
ATOM     30  C   UNL     1      49.273   8.207  15.711  0.00  0.00    +0.000 C 
ATOM     31  C   UNL     1      49.675   9.115  16.873  0.00  0.00    +0.000 C 
ATOM     32  C   UNL     1      50.583   8.417  17.898  0.00  0.00    +0.000 C 
BRANCH  30  33
ATOM     33  O   UNL     1      48.381   7.188  16.159  0.00  0.00    +0.000 OA
ATOM     34  H   UNL     1      48.901   6.438  16.486  0.00  0.00    +0.000 HD
ENDBRANCH  30  33
ENDBRANCH  26  27
ENDBRANCH  24  26
ENDBRANCH  23  24
ENDBRANCH   4  23
TORSDOF 8
ENDMDL
MODEL 8
REMARK VINA RESULT:    -7.059      4.536      9.990
REMARK INTER + INTRA:         -11.003
REMARK INTER:                  -9.975
REMARK INTRA:                  -1.027
REMARK UNBOUND:                -0.849
REMARK  Name = 
REMARK  8 active torsions:
REMARK  status: ('A' for Active; 'I' for Inactive)
REMARK    1  A    between atoms: C_2  and  C_21
REMARK    2  A    between atoms: N_3  and  C_4
REMARK    3  A    between atoms: C_4  and  C_5
REMARK    4  A    between atoms: C_8  and  C_9
REMARK    5  A    between atoms: C_9  and  N_10
REMARK    6  A    between atoms: N_10  and  C_11
REMARK    7  A    between atoms: C_11  and  C_12
REMARK    8  A    between atoms: C_15  and  O_16
REMARK                            x       y       z     vdW  Elec       q    Type
REMARK                         _______ _______ _______ _____ _____    ______ ____
ROOT
ATOM      1  C   UNL     1      48.600   3.543  17.264  0.00  0.00    +0.000 A 
ATOM      2  C   UNL     1      49.620   2.594  17.110  0.00  0.00    +0.000 A 
ATOM      3  C   UNL     1      50.906   2.851  17.586  0.00  0.00    +0.000 A 
ATOM      4  C   UNL     1      51.196   4.056  18.236  0.00  0.00    +0.000 A 
ATOM      5  C   UNL     1      50.160   4.978  18.445  0.00  0.00    +0.000 A 
ATOM      6  C   UNL     1      48.872   4.722  17.968  0.00  0.00    +0.000 A 
ENDROOT
BRANCH   1   7
ATOM      7  C   UNL     1      47.240   3.299  16.671  0.00  0.00    +0.000 C 
BRANCH   7  10
ATOM      8  O   UNL     1      47.247   3.150  13.926  0.00  0.00    +0.000 OA
ATOM      9  C   UNL     1      46.803   4.171  14.444  0.00  0.00    +0.000 C 
ATOM     10  N   UNL     1      46.826   4.368  15.802  0.00  0.00    +0.000 N 
ATOM     11  H   UNL     1      46.265   5.108  16.212  0.00  0.00    +0.000 HD
BRANCH   9  12
ATOM     12  C   UNL     1      46.255   5.260  13.630  0.00  0.00    +0.000 A 
ATOM     13  C   UNL     1      46.995   6.419  13.445  0.00  0.00    +0.000 A 
ATOM     14  S   UNL     1      46.218   7.574  12.462  0.00  0.00    +0.000 S 
ATOM     15  C   UNL     1      44.886   6.545  12.211  0.00  0.00    +0.000 A 
ATOM     16  N   UNL     1      43.856   6.917  11.404  0.00  0.00    +0.000 NA
ATOM     17  C   UNL     1      42.934   6.024  11.280  0.00  0.00    +0.000 A 
ATOM     18  N   UNL     1      42.935   4.801  11.895  0.00  0.00    +0.000 N 
ATOM     19  C   UNL     1      43.933   4.399  12.753  0.00  0.00    +0.000 A 
ATOM     20  O   UNL     1      43.867   3.325  13.343  0.00  0.00    +0.000 OA
ATOM     21  C   UNL     1      45.015   5.351  12.900  0.00  0.00    +0.000 A 
ATOM     22  H   UNL     1      42.165   4.160  11.770  0.00  0.00    +0.000 HD
ENDBRANCH   9  12
ENDBRANCH   7  10
ENDBRANCH   1   7
BRANCH   4  23
ATOM     23  C   UNL     1      52.580   4.331  18.765  0.00  0.00    +0.000 C 
BRANCH  23  24
ATOM     24  N   UNL     1      53.188   3.175  19.449  0.00  0.00    +0.000 NA
ATOM     25  H   UNL     1      52.659   2.338  19.203  0.00  0.00    +0.000 HD
BRANCH  24  26
ATOM     26  C   UNL     1      54.568   3.057  18.980  0.00  0.00    +0.000 C 
BRANCH  26  27
ATOM     27  C   UNL     1      55.013   1.686  18.429  0.00  0.00    +0.000 C 
ATOM     28  C   UNL     1      55.122   0.748  19.648  0.00  0.00    +0.000 C 
ATOM     29  C   UNL     1      55.477  -0.685  19.281  0.00  0.00    +0.000 C 
ATOM     30  C   UNL     1      54.529  -1.261  18.235  0.00  0.00    +0.000 C 
ATOM     31  C   UNL     1      54.432  -0.351  17.010  0.00  0.00    +0.000 C 
ATOM     32  C   UNL     1      54.071   1.100  17.365  0.00  0.00    +0.000 C 
BRANCH  30  33
ATOM     33  O   UNL     1      53.238  -1.472  18.804  0.00  0.00    +0.000 OA
ATOM     34  H   UNL     1      52.566  -1.322  18.121  0.00  0.00    +0.000 HD
ENDBRANCH  30  33
ENDBRANCH  26  27
ENDBRANCH  24  26
ENDBRANCH  23  24
ENDBRANCH   4  23
TORSDOF 8
ENDMDL
MODEL 9
REMARK VINA RESULT:    -6.959      3.929      9.648
REMARK INTER + INTRA:         -10.859
REMARK INTER:                  -8.832
REMARK INTRA:                  -2.026
REMARK UNBOUND:                -0.849
REMARK  Name = 
REMARK  8 active torsions:
REMARK  status: ('A' for Active; 'I' for Inactive)
REMARK    1  A    between atoms: C_2  and  C_21
REMARK    2  A    between atoms: N_3  and  C_4
REMARK    3  A    between atoms: C_4  and  C_5
REMARK    4  A    between atoms: C_8  and  C_9
REMARK    5  A    between atoms: C_9  and  N_10
REMARK    6  A    between atoms: N_10  and  C_11
REMARK    7  A    between atoms: C_11  and  C_12
REMARK    8  A    between atoms: C_15  and  O_16
REMARK                            x       y       z     vdW  Elec       q    Type
REMARK                         _______ _______ _______ _____ _____    ______ ____
ROOT
ATOM      1  C   UNL     1      49.009   6.676  15.413  0.00  0.00    +0.000 A 
ATOM      2  C   UNL     1      48.251   5.666  16.022  0.00  0.00    +0.000 A 
ATOM      3  C   UNL     1      48.818   4.842  16.994  0.00  0.00    +0.000 A 
ATOM      4  C   UNL     1      50.150   5.019  17.387  0.00  0.00    +0.000 A 
ATOM      5  C   UNL     1      50.888   6.070  16.823  0.00  0.00    +0.000 A 
ATOM      6  C   UNL     1      50.321   6.895  15.848  0.00  0.00    +0.000 A 
ENDROOT
BRANCH   1   7
ATOM      7  C   UNL     1      48.420   7.502  14.303  0.00  0.00    +0.000 C 
BRANCH   7  10
ATOM      8  O   UNL     1      47.512   7.534  11.708  0.00  0.00    +0.000 OA
ATOM      9  C   UNL     1      46.795   7.018  12.560  0.00  0.00    +0.000 C 
ATOM     10  N   UNL     1      47.129   7.019  13.892  0.00  0.00    +0.000 N 
ATOM     11  H   UNL     1      46.637   6.406  14.534  0.00  0.00    +0.000 HD
BRANCH   9  12
ATOM     12  C   UNL     1      45.515   6.400  12.203  0.00  0.00    +0.000 A 
ATOM     13  C   UNL     1      44.517   7.173  11.626  0.00  0.00    +0.000 A 
ATOM     14  S   UNL     1      43.101   6.297  11.260  0.00  0.00    +0.000 S 
ATOM     15  C   UNL     1      43.792   4.844  11.817  0.00  0.00    +0.000 A 
ATOM     16  N   UNL     1      43.108   3.671  11.742  0.00  0.00    +0.000 NA
ATOM     17  C   UNL     1      43.768   2.647  12.169  0.00  0.00    +0.000 A 
ATOM     18  N   UNL     1      45.038   2.687  12.676  0.00  0.00    +0.000 N 
ATOM     19  C   UNL     1      45.752   3.857  12.811  0.00  0.00    +0.000 A 
ATOM     20  O   UNL     1      46.861   3.864  13.336  0.00  0.00    +0.000 OA
ATOM     21  C   UNL     1      45.071   5.033  12.311  0.00  0.00    +0.000 A 
ATOM     22  H   UNL     1      45.485   1.847  13.014  0.00  0.00    +0.000 HD
ENDBRANCH   9  12
ENDBRANCH   7  10
ENDBRANCH   1   7
BRANCH   4  23
ATOM     23  C   UNL     1      50.761   4.141  18.448  0.00  0.00    +0.000 C 
BRANCH  23  24
ATOM     24  N   UNL     1      50.039   4.183  19.733  0.00  0.00    +0.000 NA
ATOM     25  H   UNL     1      50.214   3.309  20.231  0.00  0.00    +0.000 HD
BRANCH  24  26
ATOM     26  C   UNL     1      50.560   5.314  20.499  0.00  0.00    +0.000 C 
BRANCH  26  27
ATOM     27  C   UNL     1      49.603   6.499  20.750  0.00  0.00    +0.000 C 
ATOM     28  C   UNL     1      50.102   7.651  19.855  0.00  0.00    +0.000 C 
ATOM     29  C   UNL     1      49.221   8.890  19.913  0.00  0.00    +0.000 C 
ATOM     30  C   UNL     1      47.759   8.568  19.622  0.00  0.00    +0.000 C 
ATOM     31  C   UNL     1      47.247   7.443  20.521  0.00  0.00    +0.000 C 
ATOM     32  C   UNL     1      48.125   6.183  20.471  0.00  0.00    +0.000 C 
BRANCH  30  33
ATOM     33  O   UNL     1      47.596   8.222  18.247  0.00  0.00    +0.000 OA
ATOM     34  H   UNL     1      48.460   8.263  17.809  0.00  0.00    +0.000 HD
ENDBRANCH  30  33
ENDBRANCH  26  27
ENDBRANCH  24  26
ENDBRANCH  23  24
ENDBRANCH   4  23
TORSDOF 8
ENDMDL
