MODEL 1
REMARK VINA RESULT:    -7.860      0.000      0.000
REMARK INTER + INTRA:          -9.737
REMARK INTER:                  -9.238
REMARK INTRA:                  -0.499
REMARK UNBOUND:                -0.499
REMARK  Name = 
REMARK  3 active torsions:
REMARK  status: ('A' for Active; 'I' for Inactive)
REMARK    1  A    between atoms: C_8  and  C_9
REMARK    2  A    between atoms: N_11  and  C_12
REMARK    3  A    between atoms: C_12  and  C_13
REMARK                            x       y       z     vdW  Elec       q    Type
REMARK                         _______ _______ _______ _____ _____    ______ ____
ROOT
ATOM      1  C   UNL     1      46.692   4.115  14.465  0.00  0.00    +0.000 C 
ATOM      2  O   UNL     1      47.177   3.102  13.966  0.00  0.00    +0.000 OA
ATOM      3  N   UNL     1      46.700   4.317  15.820  0.00  0.00    +0.000 N 
ATOM      4  H   UNL     1      46.272   5.150  16.215  0.00  0.00    +0.000 HD
ENDROOT
BRANCH   1  12
ATOM      5  N   UNL     1      43.306   8.029  10.912  0.00  0.00    +0.000 N 
ATOM      6  C   UNL     1      43.493   6.819  11.522  0.00  0.00    +0.000 A 
ATOM      7  N   UNL     1      42.531   5.936  11.401  0.00  0.00    +0.000 NA
ATOM      8  N   UNL     1      42.675   4.712  12.016  0.00  0.00    +0.000 N 
ATOM      9  C   UNL     1      43.742   4.290  12.791  0.00  0.00    +0.000 A 
ATOM     10  O   UNL     1      43.748   3.181  13.321  0.00  0.00    +0.000 OA
ATOM     11  C   UNL     1      44.833   5.246  12.916  0.00  0.00    +0.000 A 
ATOM     12  C   UNL     1      46.099   5.167  13.620  0.00  0.00    +0.000 A 
ATOM     13  C   UNL     1      46.812   6.345  13.420  0.00  0.00    +0.000 A 
ATOM     14  S   UNL     1      46.003   7.494  12.454  0.00  0.00    +0.000 S 
ATOM     15  C   UNL     1      44.676   6.460  12.277  0.00  0.00    +0.000 A 
ATOM     16  H   UNL     1      42.587   8.019  10.200  0.00  0.00    +0.000 HD
ATOM     17  H   UNL     1      44.140   8.550  10.670  0.00  0.00    +0.000 HD
ATOM     18  H   UNL     1      41.898   4.071  11.913  0.00  0.00    +0.000 HD
ENDBRANCH   1  12
BRANCH   3  19
ATOM     19  C   UNL     1      47.337   3.403  16.736  0.00  0.00    +0.000 C 
BRANCH  19  20
ATOM     20  C   UNL     1      48.768   3.759  17.001  0.00  0.00    +0.000 A 
ATOM     21  C   UNL     1      49.703   2.808  17.411  0.00  0.00    +0.000 A 
ATOM     22  C   UNL     1      51.032   3.181  17.612  0.00  0.00    +0.000 A 
ATOM     23  C   UNL     1      51.396   4.513  17.448  0.00  0.00    +0.000 A 
ATOM     24  N   UNL     1      52.726   4.891  17.706  0.00  0.00    +0.000 N 
ATOM     25  C   UNL     1      53.128   6.207  17.992  0.00  0.00    +0.000 A 
ATOM     26  C   UNL     1      52.384   7.002  18.859  0.00  0.00    +0.000 A 
ATOM     27  C   UNL     1      52.794   8.301  19.131  0.00  0.00    +0.000 A 
ATOM     28  C   UNL     1      53.951   8.746  18.533  0.00  0.00    +0.000 A 
ATOM     29  N   UNL     1      54.691   7.963  17.724  0.00  0.00    +0.000 NA
ATOM     30  N   UNL     1      54.278   6.678  17.463  0.00  0.00    +0.000 NA
ATOM     31  N   UNL     1      50.495   5.448  17.074  0.00  0.00    +0.000 NA
ATOM     32  C   UNL     1      49.221   5.060  16.854  0.00  0.00    +0.000 A 
ATOM     33  H   UNL     1      53.370   4.483  17.036  0.00  0.00    +0.000 HD
ENDBRANCH  19  20
ENDBRANCH   3  19
TORSDOF 3
ENDMDL
MODEL 2
REMARK VINA RESULT:    -7.837      1.582      2.243
REMARK INTER + INTRA:          -9.710
REMARK INTER:                  -9.184
REMARK INTRA:                  -0.526
REMARK UNBOUND:                -0.499
REMARK  Name = 
REMARK  3 active torsions:
REMARK  status: ('A' for Active; 'I' for Inactive)
REMARK    1  A    between atoms: C_8  and  C_9
REMARK    2  A    between atoms: N_11  and  C_12
REMARK    3  A    between atoms: C_12  and  C_13
REMARK                            x       y       z     vdW  Elec       q    Type
REMARK                         _______ _______ _______ _____ _____    ______ ____
ROOT
ATOM      1  C   UNL     1      46.776   4.227  14.358  0.00  0.00    +0.000 C 
ATOM      2  O   UNL     1      47.342   3.263  13.846  0.00  0.00    +0.000 OA
ATOM      3  N   UNL     1      46.752   4.403  15.717  0.00  0.00    +0.000 N 
ATOM      4  H   UNL     1      46.259   5.193  16.121  0.00  0.00    +0.000 HD
ENDROOT
BRANCH   1  12
ATOM      5  N   UNL     1      43.136   7.966  10.869  0.00  0.00    +0.000 N 
ATOM      6  C   UNL     1      43.395   6.767  11.472  0.00  0.00    +0.000 A 
ATOM      7  N   UNL     1      42.479   5.835  11.365  0.00  0.00    +0.000 NA
ATOM      8  N   UNL     1      42.695   4.619  11.974  0.00  0.00    +0.000 N 
ATOM      9  C   UNL     1      43.795   4.252  12.732  0.00  0.00    +0.000 A 
ATOM     10  O   UNL     1      43.866   3.144  13.258  0.00  0.00    +0.000 OA
ATOM     11  C   UNL     1      44.836   5.263  12.841  0.00  0.00    +0.000 A 
ATOM     12  C   UNL     1      46.116   5.248  13.525  0.00  0.00    +0.000 A 
ATOM     13  C   UNL     1      46.764   6.462  13.317  0.00  0.00    +0.000 A 
ATOM     14  S   UNL     1      45.881   7.569  12.366  0.00  0.00    +0.000 S 
ATOM     15  C   UNL     1      44.607   6.468  12.208  0.00  0.00    +0.000 A 
ATOM     16  H   UNL     1      42.407   7.921  10.169  0.00  0.00    +0.000 HD
ATOM     17  H   UNL     1      43.938   8.531  10.615  0.00  0.00    +0.000 HD
ATOM     18  H   UNL     1      41.951   3.939  11.882  0.00  0.00    +0.000 HD
ENDBRANCH   1  12
BRANCH   3  19
ATOM     19  C   UNL     1      47.445   3.520  16.623  0.00  0.00    +0.000 C 
BRANCH  19  20
ATOM     20  C   UNL     1      48.754   4.085  17.087  0.00  0.00    +0.000 A 
ATOM     21  C   UNL     1      49.077   5.433  16.925  0.00  0.00    +0.000 A 
ATOM     22  C   UNL     1      50.293   5.919  17.405  0.00  0.00    +0.000 A 
ATOM     23  C   UNL     1      51.190   5.038  17.998  0.00  0.00    +0.000 A 
ATOM     24  N   UNL     1      52.437   5.526  18.430  0.00  0.00    +0.000 N 
ATOM     25  C   UNL     1      53.568   4.718  18.641  0.00  0.00    +0.000 A 
ATOM     26  C   UNL     1      53.901   3.715  17.735  0.00  0.00    +0.000 A 
ATOM     27  C   UNL     1      55.020   2.924  17.960  0.00  0.00    +0.000 A 
ATOM     28  C   UNL     1      55.775   3.185  19.080  0.00  0.00    +0.000 A 
ATOM     29  N   UNL     1      55.473   4.181  19.936  0.00  0.00    +0.000 NA
ATOM     30  N   UNL     1      54.365   4.960  19.704  0.00  0.00    +0.000 NA
ATOM     31  N   UNL     1      50.899   3.726  18.140  0.00  0.00    +0.000 NA
ATOM     32  C   UNL     1      49.704   3.282  17.697  0.00  0.00    +0.000 A 
ATOM     33  H   UNL     1      52.339   6.174  19.204  0.00  0.00    +0.000 HD
ENDBRANCH  19  20
ENDBRANCH   3  19
TORSDOF 3
ENDMDL
MODEL 3
REMARK VINA RESULT:    -7.656      3.546      8.903
REMARK INTER + INTRA:          -9.497
REMARK INTER:                  -8.841
REMARK INTRA:                  -0.657
REMARK UNBOUND:                -0.499
REMARK  Name = 
REMARK  3 active torsions:
REMARK  status: ('A' for Active; 'I' for Inactive)
REMARK    1  A    between atoms: C_8  and  C_9
REMARK    2  A    between atoms: N_11  and  C_12
REMARK    3  A    between atoms: C_12  and  C_13
REMARK                            x       y       z     vdW  Elec       q    Type
REMARK                         _______ _______ _______ _____ _____    ______ ____
ROOT
ATOM      1  C   UNL     1      49.036   7.290  15.355  0.00  0.00    +0.000 C 
ATOM      2  O   UNL     1      49.941   7.144  14.536  0.00  0.00    +0.000 OA
ATOM      3  N   UNL     1      47.993   8.146  15.121  0.00  0.00    +0.000 N 
ATOM      4  H   UNL     1      47.267   8.270  15.821  0.00  0.00    +0.000 HD
ENDROOT
BRANCH   1  12
ATOM      5  N   UNL     1      48.532   3.304  20.179  0.00  0.00    +0.000 N 
ATOM      6  C   UNL     1      48.209   3.700  18.909  0.00  0.00    +0.000 A 
ATOM      7  N   UNL     1      47.407   2.918  18.227  0.00  0.00    +0.000 NA
ATOM      8  N   UNL     1      47.074   3.273  16.939  0.00  0.00    +0.000 N 
ATOM      9  C   UNL     1      47.513   4.387  16.242  0.00  0.00    +0.000 A 
ATOM     10  O   UNL     1      47.175   4.586  15.078  0.00  0.00    +0.000 OA
ATOM     11  C   UNL     1      48.384   5.281  16.991  0.00  0.00    +0.000 A 
ATOM     12  C   UNL     1      49.025   6.528  16.617  0.00  0.00    +0.000 A 
ATOM     13  C   UNL     1      49.751   7.017  17.699  0.00  0.00    +0.000 A 
ATOM     14  S   UNL     1      49.684   6.027  19.086  0.00  0.00    +0.000 S 
ATOM     15  C   UNL     1      48.692   4.915  18.287  0.00  0.00    +0.000 A 
ATOM     16  H   UNL     1      47.902   2.611  20.561  0.00  0.00    +0.000 HD
ATOM     17  H   UNL     1      48.810   4.032  20.825  0.00  0.00    +0.000 HD
ATOM     18  H   UNL     1      46.470   2.629  16.444  0.00  0.00    +0.000 HD
ENDBRANCH   1  12
BRANCH   3  19
ATOM     19  C   UNL     1      47.848   8.871  13.882  0.00  0.00    +0.000 C 
BRANCH  19  20
ATOM     20  C   UNL     1      46.929   8.183  12.918  0.00  0.00    +0.000 A 
ATOM     21  C   UNL     1      45.690   8.721  12.567  0.00  0.00    +0.000 A 
ATOM     22  C   UNL     1      44.884   8.062  11.638  0.00  0.00    +0.000 A 
ATOM     23  C   UNL     1      45.309   6.848  11.112  0.00  0.00    +0.000 A 
ATOM     24  N   UNL     1      44.466   6.163  10.217  0.00  0.00    +0.000 N 
ATOM     25  C   UNL     1      44.556   4.786   9.950  0.00  0.00    +0.000 A 
ATOM     26  C   UNL     1      44.753   3.874  10.983  0.00  0.00    +0.000 A 
ATOM     27  C   UNL     1      44.842   2.517  10.701  0.00  0.00    +0.000 A 
ATOM     28  C   UNL     1      44.710   2.126   9.389  0.00  0.00    +0.000 A 
ATOM     29  N   UNL     1      44.481   3.005   8.394  0.00  0.00    +0.000 NA
ATOM     30  N   UNL     1      44.393   4.346   8.683  0.00  0.00    +0.000 NA
ATOM     31  N   UNL     1      46.496   6.305  11.461  0.00  0.00    +0.000 NA
ATOM     32  C   UNL     1      47.275   6.974  12.337  0.00  0.00    +0.000 A 
ATOM     33  H   UNL     1      44.355   6.667   9.344  0.00  0.00    +0.000 HD
ENDBRANCH  19  20
ENDBRANCH   3  19
TORSDOF 3
ENDMDL
MODEL 4
REMARK VINA RESULT:    -7.529      3.307      9.210
REMARK INTER + INTRA:          -9.349
REMARK INTER:                  -8.621
REMARK INTRA:                  -0.727
REMARK UNBOUND:                -0.499
REMARK  Name = 
REMARK  3 active torsions:
REMARK  status: ('A' for Active; 'I' for Inactive)
REMARK    1  A    between atoms: C_8  and  C_9
REMARK    2  A    between atoms: N_11  and  C_12
REMARK    3  A    between atoms: C_12  and  C_13
REMARK                            x       y       z     vdW  Elec       q    Type
REMARK                         _______ _______ _______ _____ _____    ______ ____
ROOT
ATOM      1  C   UNL     1      50.432   6.407  17.293  0.00  0.00    +0.000 C 
ATOM      2  O   UNL     1      50.067   7.224  18.135  0.00  0.00    +0.000 OA
ATOM      3  N   UNL     1      50.082   6.535  15.975  0.00  0.00    +0.000 N 
ATOM      4  H   UNL     1      50.375   5.836  15.298  0.00  0.00    +0.000 HD
ENDROOT
BRANCH   1  12
ATOM      5  N   UNL     1      53.391   0.970  18.342  0.00  0.00    +0.000 N 
ATOM      6  C   UNL     1      52.299   1.682  17.927  0.00  0.00    +0.000 A 
ATOM      7  N   UNL     1      51.283   0.997  17.460  0.00  0.00    +0.000 NA
ATOM      8  N   UNL     1      50.172   1.680  17.015  0.00  0.00    +0.000 N 
ATOM      9  C   UNL     1      49.997   3.053  16.981  0.00  0.00    +0.000 A 
ATOM     10  O   UNL     1      48.971   3.555  16.530  0.00  0.00    +0.000 OA
ATOM     11  C   UNL     1      51.103   3.831  17.521  0.00  0.00    +0.000 A 
ATOM     12  C   UNL     1      51.285   5.264  17.666  0.00  0.00    +0.000 A 
ATOM     13  C   UNL     1      52.518   5.514  18.260  0.00  0.00    +0.000 A 
ATOM     14  S   UNL     1      53.421   4.111  18.610  0.00  0.00    +0.000 S 
ATOM     15  C   UNL     1      52.200   3.126  17.977  0.00  0.00    +0.000 A 
ATOM     16  H   UNL     1      53.197  -0.008  18.514  0.00  0.00    +0.000 HD
ATOM     17  H   UNL     1      53.990   1.414  19.027  0.00  0.00    +0.000 HD
ATOM     18  H   UNL     1      49.423   1.110  16.643  0.00  0.00    +0.000 HD
ENDBRANCH   1  12
BRANCH   3  19
ATOM     19  C   UNL     1      49.333   7.663  15.479  0.00  0.00    +0.000 C 
BRANCH  19  20
ATOM     20  C   UNL     1      48.395   7.288  14.372  0.00  0.00    +0.000 A 
ATOM     21  C   UNL     1      47.961   8.216  13.424  0.00  0.00    +0.000 A 
ATOM     22  C   UNL     1      47.115   7.811  12.391  0.00  0.00    +0.000 A 
ATOM     23  C   UNL     1      46.675   6.493  12.350  0.00  0.00    +0.000 A 
ATOM     24  N   UNL     1      45.779   6.107  11.337  0.00  0.00    +0.000 N 
ATOM     25  C   UNL     1      44.945   4.977  11.414  0.00  0.00    +0.000 A 
ATOM     26  C   UNL     1      44.264   4.678  12.590  0.00  0.00    +0.000 A 
ATOM     27  C   UNL     1      43.446   3.558  12.649  0.00  0.00    +0.000 A 
ATOM     28  C   UNL     1      43.328   2.789  11.514  0.00  0.00    +0.000 A 
ATOM     29  N   UNL     1      43.957   3.101  10.364  0.00  0.00    +0.000 NA
ATOM     30  N   UNL     1      44.764   4.214  10.315  0.00  0.00    +0.000 NA
ATOM     31  N   UNL     1      47.070   5.591  13.275  0.00  0.00    +0.000 NA
ATOM     32  C   UNL     1      47.914   5.995  14.248  0.00  0.00    +0.000 A 
ATOM     33  H   UNL     1      46.210   6.143  10.420  0.00  0.00    +0.000 HD
ENDBRANCH  19  20
ENDBRANCH   3  19
TORSDOF 3
ENDMDL
MODEL 5
REMARK VINA RESULT:    -7.145      5.603      7.164
REMARK INTER + INTRA:          -8.897
REMARK INTER:                  -8.256
REMARK INTRA:                  -0.641
REMARK UNBOUND:                -0.499
REMARK  Name = 
REMARK  3 active torsions:
REMARK  status: ('A' for Active; 'I' for Inactive)
REMARK    1  A    between atoms: C_8  and  C_9
REMARK    2  A    between atoms: N_11  and  C_12
REMARK    3  A    between atoms: C_12  and  C_13
REMARK                            x       y       z     vdW  Elec       q    Type
REMARK                         _______ _______ _______ _____ _____    ______ ____
ROOT
ATOM      1  C   UNL     1      46.289   8.051  12.453  0.00  0.00    +0.000 C 
ATOM      2  O   UNL     1      45.795   9.038  12.993  0.00  0.00    +0.000 OA
ATOM      3  N   UNL     1      47.621   8.004  12.133  0.00  0.00    +0.000 N 
ATOM      4  H   UNL     1      48.005   7.189  11.665  0.00  0.00    +0.000 HD
ENDROOT
BRANCH   1  12
ATOM      5  N   UNL     1      43.425   2.503  11.800  0.00  0.00    +0.000 N 
ATOM      6  C   UNL     1      44.478   3.268  12.221  0.00  0.00    +0.000 A 
ATOM      7  N   UNL     1      45.449   2.652  12.850  0.00  0.00    +0.000 NA
ATOM      8  N   UNL     1      46.518   3.391  13.305  0.00  0.00    +0.000 N 
ATOM      9  C   UNL     1      46.692   4.761  13.192  0.00  0.00    +0.000 A 
ATOM     10  O   UNL     1      47.676   5.321  13.667  0.00  0.00    +0.000 OA
ATOM     11  C   UNL     1      45.637   5.460  12.472  0.00  0.00    +0.000 A 
ATOM     12  C   UNL     1      45.471   6.864  12.145  0.00  0.00    +0.000 A 
ATOM     13  C   UNL     1      44.293   7.033  11.422  0.00  0.00    +0.000 A 
ATOM     14  S   UNL     1      43.422   5.590  11.163  0.00  0.00    +0.000 S 
ATOM     15  C   UNL     1      44.583   4.697  12.010  0.00  0.00    +0.000 A 
ATOM     16  H   UNL     1      43.631   1.513  11.761  0.00  0.00    +0.000 HD
ATOM     17  H   UNL     1      42.887   2.859  11.019  0.00  0.00    +0.000 HD
ATOM     18  H   UNL     1      47.232   2.876  13.804  0.00  0.00    +0.000 HD
ENDBRANCH   1  12
BRANCH   3  19
ATOM     19  C   UNL     1      48.536   9.066  12.473  0.00  0.00    +0.000 C 
BRANCH  19  20
ATOM     20  C   UNL     1      49.805   9.007  11.678  0.00  0.00    +0.000 A 
ATOM     21  C   UNL     1      50.462  10.160  11.247  0.00  0.00    +0.000 A 
ATOM     22  C   UNL     1      51.660  10.054  10.540  0.00  0.00    +0.000 A 
ATOM     23  C   UNL     1      52.158   8.794  10.232  0.00  0.00    +0.000 A 
ATOM     24  N   UNL     1      53.338   8.696   9.471  0.00  0.00    +0.000 N 
ATOM     25  C   UNL     1      53.713   7.553   8.744  0.00  0.00    +0.000 A 
ATOM     26  C   UNL     1      52.774   6.854   7.990  0.00  0.00    +0.000 A 
ATOM     27  C   UNL     1      53.160   5.726   7.278  0.00  0.00    +0.000 A 
ATOM     28  C   UNL     1      54.484   5.353   7.337  0.00  0.00    +0.000 A 
ATOM     29  N   UNL     1      55.399   6.052   8.036  0.00  0.00    +0.000 NA
ATOM     30  N   UNL     1      55.007   7.169   8.735  0.00  0.00    +0.000 NA
ATOM     31  N   UNL     1      51.520   7.669  10.624  0.00  0.00    +0.000 NA
ATOM     32  C   UNL     1      50.379   7.793  11.334  0.00  0.00    +0.000 A 
ATOM     33  H   UNL     1      54.143   9.048   9.979  0.00  0.00    +0.000 HD
ENDBRANCH  19  20
ENDBRANCH   3  19
TORSDOF 3
ENDMDL
MODEL 6
REMARK VINA RESULT:    -6.718      2.611      3.856
REMARK INTER + INTRA:          -8.394
REMARK INTER:                  -7.669
REMARK INTRA:                  -0.725
REMARK UNBOUND:                -0.499
REMARK  Name = 
REMARK  3 active torsions:
REMARK  status: ('A' for Active; 'I' for Inactive)
REMARK    1  A    between atoms: C_8  and  C_9
REMARK    2  A    between atoms: N_11  and  C_12
REMARK    3  A    between atoms: C_12  and  C_13
REMARK                            x       y       z     vdW  Elec       q    Type
REMARK                         _______ _______ _______ _____ _____    ______ ____
ROOT
ATOM      1  C   UNL     1      47.052   7.954  13.015  0.00  0.00    +0.000 C 
ATOM      2  O   UNL     1      47.656   8.683  12.232  0.00  0.00    +0.000 OA
ATOM      3  N   UNL     1      47.321   7.970  14.358  0.00  0.00    +0.000 N 
ATOM      4  H   UNL     1      46.828   7.343  14.986  0.00  0.00    +0.000 HD
ENDROOT
BRANCH   1  12
ATOM      5  N   UNL     1      42.992   3.378  11.605  0.00  0.00    +0.000 N 
ATOM      6  C   UNL     1      44.172   3.812  12.144  0.00  0.00    +0.000 A 
ATOM      7  N   UNL     1      44.933   2.911  12.717  0.00  0.00    +0.000 NA
ATOM      8  N   UNL     1      46.120   3.312  13.288  0.00  0.00    +0.000 N 
ATOM      9  C   UNL     1      46.620   4.602  13.350  0.00  0.00    +0.000 A 
ATOM     10  O   UNL     1      47.682   4.849  13.917  0.00  0.00    +0.000 OA
ATOM     11  C   UNL     1      45.803   5.614  12.696  0.00  0.00    +0.000 A 
ATOM     12  C   UNL     1      45.993   7.045  12.542  0.00  0.00    +0.000 A 
ATOM     13  C   UNL     1      44.931   7.575  11.815  0.00  0.00    +0.000 A 
ATOM     14  S   UNL     1      43.758   6.426  11.356  0.00  0.00    +0.000 S 
ATOM     15  C   UNL     1      44.625   5.188  12.115  0.00  0.00    +0.000 A 
ATOM     16  H   UNL     1      42.959   2.379  11.449  0.00  0.00    +0.000 HD
ATOM     17  H   UNL     1      42.598   3.940  10.860  0.00  0.00    +0.000 HD
ATOM     18  H   UNL     1      46.663   2.586  13.737  0.00  0.00    +0.000 HD
ENDBRANCH   1  12
BRANCH   3  19
ATOM     19  C   UNL     1      48.268   8.886  14.947  0.00  0.00    +0.000 C 
BRANCH  19  20
ATOM     20  C   UNL     1      49.061   8.261  16.054  0.00  0.00    +0.000 A 
ATOM     21  C   UNL     1      49.266   8.908  17.273  0.00  0.00    +0.000 A 
ATOM     22  C   UNL     1      49.982   8.270  18.287  0.00  0.00    +0.000 A 
ATOM     23  C   UNL     1      50.524   7.013  18.048  0.00  0.00    +0.000 A 
ATOM     24  N   UNL     1      51.290   6.400  19.056  0.00  0.00    +0.000 N 
ATOM     25  C   UNL     1      52.222   5.374  18.822  0.00  0.00    +0.000 A 
ATOM     26  C   UNL     1      53.093   5.442  17.739  0.00  0.00    +0.000 A 
ATOM     27  C   UNL     1      54.007   4.418  17.520  0.00  0.00    +0.000 A 
ATOM     28  C   UNL     1      54.021   3.371  18.413  0.00  0.00    +0.000 A 
ATOM     29  N   UNL     1      53.203   3.325  19.482  0.00  0.00    +0.000 NA
ATOM     30  N   UNL     1      52.305   4.344  19.692  0.00  0.00    +0.000 NA
ATOM     31  N   UNL     1      50.351   6.385  16.864  0.00  0.00    +0.000 NA
ATOM     32  C   UNL     1      49.629   7.006  15.907  0.00  0.00    +0.000 A 
ATOM     33  H   UNL     1      50.726   6.162  19.865  0.00  0.00    +0.000 HD
ENDBRANCH  19  20
ENDBRANCH   3  19
TORSDOF 3
ENDMDL
MODEL 7
REMARK VINA RESULT:    -6.362      3.093      9.210
REMARK INTER + INTRA:          -7.977
REMARK INTER:                  -7.368
REMARK INTRA:                  -0.609
REMARK UNBOUND:                -0.499
REMARK  Name = 
REMARK  3 active torsions:
REMARK  status: ('A' for Active; 'I' for Inactive)
REMARK    1  A    between atoms: C_8  and  C_9
REMARK    2  A    between atoms: N_11  and  C_12
REMARK    3  A    between atoms: C_12  and  C_13
REMARK                            x       y       z     vdW  Elec       q    Type
REMARK                         _______ _______ _______ _____ _____    ______ ____
ROOT
ATOM      1  C   UNL     1      50.312   7.859  15.136  0.00  0.00    +0.000 C 
ATOM      2  O   UNL     1      49.527   8.655  15.644  0.00  0.00    +0.000 OA
ATOM      3  N   UNL     1      50.493   7.801  13.779  0.00  0.00    +0.000 N 
ATOM      4  H   UNL     1      51.130   7.119  13.377  0.00  0.00    +0.000 HD
ENDROOT
BRANCH   1  12
ATOM      5  N   UNL     1      52.843   3.427  18.793  0.00  0.00    +0.000 N 
ATOM      6  C   UNL     1      51.759   4.062  18.251  0.00  0.00    +0.000 A 
ATOM      7  N   UNL     1      50.576   3.581  18.549  0.00  0.00    +0.000 NA
ATOM      8  N   UNL     1      49.461   4.181  18.008  0.00  0.00    +0.000 N 
ATOM      9  C   UNL     1      49.435   5.260  17.140  0.00  0.00    +0.000 A 
ATOM     10  O   UNL     1      48.377   5.694  16.692  0.00  0.00    +0.000 OA
ATOM     11  C   UNL     1      50.737   5.826  16.817  0.00  0.00    +0.000 A 
ATOM     12  C   UNL     1      51.112   6.944  15.971  0.00  0.00    +0.000 A 
ATOM     13  C   UNL     1      52.494   7.102  16.001  0.00  0.00    +0.000 A 
ATOM     14  S   UNL     1      53.305   5.962  16.976  0.00  0.00    +0.000 S 
ATOM     15  C   UNL     1      51.841   5.220  17.384  0.00  0.00    +0.000 A 
ATOM     16  H   UNL     1      52.617   2.841  19.586  0.00  0.00    +0.000 HD
ATOM     17  H   UNL     1      53.688   3.977  18.896  0.00  0.00    +0.000 HD
ATOM     18  H   UNL     1      48.572   3.762  18.248  0.00  0.00    +0.000 HD
ENDBRANCH   1  12
BRANCH   3  19
ATOM     19  C   UNL     1      49.838   8.710  12.872  0.00  0.00    +0.000 C 
BRANCH  19  20
ATOM     20  C   UNL     1      48.451   8.268  12.516  0.00  0.00    +0.000 A 
ATOM     21  C   UNL     1      47.379   9.161  12.467  0.00  0.00    +0.000 A 
ATOM     22  C   UNL     1      46.113   8.707  12.096  0.00  0.00    +0.000 A 
ATOM     23  C   UNL     1      45.927   7.356  11.827  0.00  0.00    +0.000 A 
ATOM     24  N   UNL     1      44.636   6.898  11.507  0.00  0.00    +0.000 N 
ATOM     25  C   UNL     1      44.224   5.559  11.631  0.00  0.00    +0.000 A 
ATOM     26  C   UNL     1      44.572   4.811  12.751  0.00  0.00    +0.000 A 
ATOM     27  C   UNL     1      44.158   3.489  12.856  0.00  0.00    +0.000 A 
ATOM     28  C   UNL     1      43.390   2.975  11.837  0.00  0.00    +0.000 A 
ATOM     29  N   UNL     1      43.021   3.712  10.771  0.00  0.00    +0.000 NA
ATOM     30  N   UNL     1      43.434   5.020  10.677  0.00  0.00    +0.000 NA
ATOM     31  N   UNL     1      46.952   6.477  11.894  0.00  0.00    +0.000 NA
ATOM     32  C   UNL     1      48.176   6.942  12.224  0.00  0.00    +0.000 A 
ATOM     33  H   UNL     1      44.316   7.266  10.618  0.00  0.00    +0.000 HD
ENDBRANCH  19  20
ENDBRANCH   3  19
TORSDOF 3
ENDMDL
MODEL 8
REMARK VINA RESULT:    -6.260      2.617      3.029
REMARK INTER + INTRA:          -7.856
REMARK INTER:                  -7.277
REMARK INTRA:                  -0.579
REMARK UNBOUND:                -0.499
REMARK  Name = 
REMARK  3 active torsions:
REMARK  status: ('A' for Active; 'I' for Inactive)
REMARK    1  A    between atoms: C_8  and  C_9
REMARK    2  A    between atoms: N_11  and  C_12
REMARK    3  A    between atoms: C_12  and  C_13
REMARK                            x       y       z     vdW  Elec       q    Type
REMARK                         _______ _______ _______ _____ _____    ______ ____
ROOT
ATOM      1  C   UNL     1      47.250   6.246  13.169  0.00  0.00    +0.000 C 
ATOM      2  O   UNL     1      48.371   5.884  12.817  0.00  0.00    +0.000 OA
ATOM      3  N   UNL     1      46.520   5.527  14.078  0.00  0.00    +0.000 N 
ATOM      4  H   UNL     1      45.586   5.831  14.338  0.00  0.00    +0.000 HD
ENDROOT
BRANCH   1  12
ATOM      5  N   UNL     1      43.846  10.975  10.832  0.00  0.00    +0.000 N 
ATOM      6  C   UNL     1      44.032   9.646  11.098  0.00  0.00    +0.000 A 
ATOM      7  N   UNL     1      43.060   8.830  10.766  0.00  0.00    +0.000 NA
ATOM      8  N   UNL     1      43.201   7.487  11.034  0.00  0.00    +0.000 N 
ATOM      9  C   UNL     1      44.276   6.870  11.652  0.00  0.00    +0.000 A 
ATOM     10  O   UNL     1      44.280   5.662  11.871  0.00  0.00    +0.000 OA
ATOM     11  C   UNL     1      45.378   7.755  12.005  0.00  0.00    +0.000 A 
ATOM     12  C   UNL     1      46.654   7.487  12.642  0.00  0.00    +0.000 A 
ATOM     13  C   UNL     1      47.375   8.673  12.746  0.00  0.00    +0.000 A 
ATOM     14  S   UNL     1      46.562  10.039  12.131  0.00  0.00    +0.000 S 
ATOM     15  C   UNL     1      45.222   9.095  11.712  0.00  0.00    +0.000 A 
ATOM     16  H   UNL     1      43.116  11.157  10.155  0.00  0.00    +0.000 HD
ATOM     17  H   UNL     1      44.681  11.537  10.721  0.00  0.00    +0.000 HD
ATOM     18  H   UNL     1      42.417   6.900  10.780  0.00  0.00    +0.000 HD
ENDBRANCH   1  12
BRANCH   3  19
ATOM     19  C   UNL     1      47.040   4.351  14.732  0.00  0.00    +0.000 C 
BRANCH  19  20
ATOM     20  C   UNL     1      47.618   4.652  16.081  0.00  0.00    +0.000 A 
ATOM     21  C   UNL     1      47.240   3.943  17.222  0.00  0.00    +0.000 A 
ATOM     22  C   UNL     1      47.833   4.236  18.451  0.00  0.00    +0.000 A 
ATOM     23  C   UNL     1      48.760   5.269  18.529  0.00  0.00    +0.000 A 
ATOM     24  N   UNL     1      49.312   5.594  19.781  0.00  0.00    +0.000 N 
ATOM     25  C   UNL     1      49.904   6.833  20.082  0.00  0.00    +0.000 A 
ATOM     26  C   UNL     1      49.312   8.021  19.663  0.00  0.00    +0.000 A 
ATOM     27  C   UNL     1      49.911   9.237  19.967  0.00  0.00    +0.000 A 
ATOM     28  C   UNL     1      51.075   9.212  20.700  0.00  0.00    +0.000 A 
ATOM     29  N   UNL     1      51.626   8.064  21.138  0.00  0.00    +0.000 NA
ATOM     30  N   UNL     1      51.025   6.865  20.834  0.00  0.00    +0.000 NA
ATOM     31  N   UNL     1      49.117   5.978  17.435  0.00  0.00    +0.000 NA
ATOM     32  C   UNL     1      48.556   5.658  16.251  0.00  0.00    +0.000 A 
ATOM     33  H   UNL     1      49.899   4.847  20.139  0.00  0.00    +0.000 HD
ENDBRANCH  19  20
ENDBRANCH   3  19
TORSDOF 3
ENDMDL
