MODEL 1
REMARK VINA RESULT:    -7.397      0.000      0.000
REMARK INTER + INTRA:         -11.413
REMARK INTER:                 -10.423
REMARK INTRA:                  -0.990
REMARK UNBOUND:                -0.990
REMARK  Name = 
REMARK  8 active torsions:
REMARK  status: ('A' for Active; 'I' for Inactive)
REMARK    1  A    between atoms: C_1  and  C_2
REMARK    2  A    between atoms: C_2  and  C_3
REMARK    3  A    between atoms: C_2  and  C_18
REMARK    4  A    between atoms: C_3  and  C_4
REMARK    5  A    between atoms: C_7  and  C_8
REMARK    6  A    between atoms: C_8  and  N_9
REMARK    7  A    between atoms: N_9  and  C_10
REMARK    8  A    between atoms: C_10  and  C_11
REMARK                            x       y       z     vdW  Elec       q    Type
REMARK                         _______ _______ _______ _____ _____    ______ ____
ROOT
ATOM      1  C   UNL     1      46.319   6.500  12.688  0.00  0.00    +0.000 A 
ATOM      2  C   UNL     1      46.589   6.526  11.318  0.00  0.00    +0.000 A 
ATOM      3  C   UNL     1      45.779   5.818  10.439  0.00  0.00    +0.000 A 
ATOM      4  C   UNL     1      44.732   5.053  10.949  0.00  0.00    +0.000 A 
ATOM      5  N   UNL     1      44.465   4.984  12.279  0.00  0.00    +0.000 NA
ATOM      6  C   UNL     1      45.256   5.702  13.109  0.00  0.00    +0.000 A 
ENDROOT
BRANCH   1   7
ATOM      7  C   UNL     1      47.123   7.314  13.668  0.00  0.00    +0.000 C 
BRANCH   7   9
ATOM      8  C   UNL     1      49.669   7.568  13.497  0.00  0.00    +0.000 C 
ATOM      9  C   UNL     1      48.508   6.710  14.029  0.00  0.00    +0.000 C 
BRANCH   9  10
ATOM     10  C   UNL     1      48.615   6.474  15.532  0.00  0.00    +0.000 A 
ATOM     11  C   UNL     1      49.094   7.400  16.448  0.00  0.00    +0.000 A 
ATOM     12  S   UNL     1      49.041   6.850  18.063  0.00  0.00    +0.000 S 
ATOM     13  C   UNL     1      48.365   5.360  17.595  0.00  0.00    +0.000 A 
ATOM     14  N   UNL     1      48.031   4.417  18.518  0.00  0.00    +0.000 NA
ATOM     15  C   UNL     1      47.522   3.344  18.020  0.00  0.00    +0.000 A 
ATOM     16  N   UNL     1      47.330   3.113  16.677  0.00  0.00    +0.000 N 
ATOM     17  C   UNL     1      47.672   4.024  15.704  0.00  0.00    +0.000 A 
ATOM     18  O   UNL     1      47.521   3.772  14.513  0.00  0.00    +0.000 OA
ATOM     19  C   UNL     1      48.215   5.270  16.222  0.00  0.00    +0.000 A 
ATOM     20  H   UNL     1      46.942   2.240  16.356  0.00  0.00    +0.000 HD
ENDBRANCH   9  10
ENDBRANCH   7   9
ENDBRANCH   1   7
BRANCH   4  21
ATOM     21  C   UNL     1      43.836   4.279  10.002  0.00  0.00    +0.000 C 
BRANCH  21  22
ATOM     22  N   UNL     1      44.217   4.369   8.586  0.00  0.00    +0.000 NA
ATOM     23  H   UNL     1      44.963   5.066   8.530  0.00  0.00    +0.000 HD
BRANCH  22  24
ATOM     24  C   UNL     1      44.739   3.102   8.049  0.00  0.00    +0.000 C 
BRANCH  24  25
ATOM     25  C   UNL     1      46.289   3.175   7.987  0.00  0.00    +0.000 C 
ATOM     26  C   UNL     1      46.954   1.869   7.590  0.00  0.00    +0.000 C 
ATOM     27  C   UNL     1      46.821   1.860   6.081  0.00  0.00    +0.000 C 
ATOM     28  C   UNL     1      46.874   3.333   5.695  0.00  0.00    +0.000 C 
ATOM     29  N   UNL     1      46.760   4.101   6.939  0.00  0.00    +0.000 NA
ATOM     30  H   UNL     1      46.074   4.855   6.845  0.00  0.00    +0.000 HD
ENDBRANCH  24  25
ENDBRANCH  22  24
ENDBRANCH  21  22
ENDBRANCH   4  21
TORSDOF 7
ENDMDL
MODEL 2
REMARK VINA RESULT:    -6.876      3.153      7.719
REMARK INTER + INTRA:         -10.679
REMARK INTER:                  -9.679
REMARK INTRA:                  -1.000
REMARK UNBOUND:                -0.990
REMARK  Name = 
REMARK  8 active torsions:
REMARK  status: ('A' for Active; 'I' for Inactive)
REMARK    1  A    between atoms: C_1  and  C_2
REMARK    2  A    between atoms: C_2  and  C_3
REMARK    3  A    between atoms: C_2  and  C_18
REMARK    4  A    between atoms: C_3  and  C_4
REMARK    5  A    between atoms: C_7  and  C_8
REMARK    6  A    between atoms: C_8  and  N_9
REMARK    7  A    between atoms: N_9  and  C_10
REMARK    8  A    between atoms: C_10  and  C_11
REMARK                            x       y       z     vdW  Elec       q    Type
REMARK                         _______ _______ _______ _____ _____    ______ ____
ROOT
ATOM      1  C   UNL     1      48.325   7.137  12.873  0.00  0.00    +0.000 A 
ATOM      2  C   UNL     1      49.459   7.926  13.074  0.00  0.00    +0.000 A 
ATOM      3  C   UNL     1      50.199   7.788  14.243  0.00  0.00    +0.000 A 
ATOM      4  C   UNL     1      49.767   6.891  15.217  0.00  0.00    +0.000 A 
ATOM      5  N   UNL     1      48.651   6.133  15.061  0.00  0.00    +0.000 NA
ATOM      6  C   UNL     1      47.963   6.271  13.904  0.00  0.00    +0.000 A 
ENDROOT
BRANCH   1   7
ATOM      7  C   UNL     1      47.538   7.197  11.590  0.00  0.00    +0.000 C 
BRANCH   7   9
ATOM      8  C   UNL     1      45.209   8.265  11.470  0.00  0.00    +0.000 C 
ATOM      9  C   UNL     1      46.008   6.983  11.758  0.00  0.00    +0.000 C 
BRANCH   9  10
ATOM     10  C   UNL     1      45.534   5.812  10.902  0.00  0.00    +0.000 A 
ATOM     11  C   UNL     1      45.847   5.631   9.563  0.00  0.00    +0.000 A 
ATOM     12  S   UNL     1      45.202   4.194   8.902  0.00  0.00    +0.000 S 
ATOM     13  C   UNL     1      44.494   3.759  10.386  0.00  0.00    +0.000 A 
ATOM     14  N   UNL     1      43.808   2.592  10.524  0.00  0.00    +0.000 NA
ATOM     15  C   UNL     1      43.335   2.391  11.706  0.00  0.00    +0.000 A 
ATOM     16  N   UNL     1      43.466   3.259  12.764  0.00  0.00    +0.000 N 
ATOM     17  C   UNL     1      44.129   4.461  12.670  0.00  0.00    +0.000 A 
ATOM     18  O   UNL     1      44.196   5.230  13.624  0.00  0.00    +0.000 OA
ATOM     19  C   UNL     1      44.715   4.714  11.364  0.00  0.00    +0.000 A 
ATOM     20  H   UNL     1      43.052   3.046  13.659  0.00  0.00    +0.000 HD
ENDBRANCH   9  10
ENDBRANCH   7   9
ENDBRANCH   1   7
BRANCH   4  21
ATOM     21  C   UNL     1      50.567   6.725  16.494  0.00  0.00    +0.000 C 
BRANCH  21  22
ATOM     22  N   UNL     1      50.760   5.333  16.922  0.00  0.00    +0.000 NA
ATOM     23  H   UNL     1      51.727   5.261  17.245  0.00  0.00    +0.000 HD
BRANCH  22  24
ATOM     24  C   UNL     1      49.880   4.948  18.038  0.00  0.00    +0.000 C 
BRANCH  24  25
ATOM     25  C   UNL     1      49.555   3.433  17.931  0.00  0.00    +0.000 C 
ATOM     26  C   UNL     1      48.256   3.031  18.609  0.00  0.00    +0.000 C 
ATOM     27  C   UNL     1      47.204   3.403  17.584  0.00  0.00    +0.000 C 
ATOM     28  C   UNL     1      47.905   3.205  16.245  0.00  0.00    +0.000 C 
ATOM     29  N   UNL     1      49.328   3.010  16.536  0.00  0.00    +0.000 NA
ATOM     30  H   UNL     1      49.912   3.589  15.927  0.00  0.00    +0.000 HD
ENDBRANCH  24  25
ENDBRANCH  22  24
ENDBRANCH  21  22
ENDBRANCH   4  21
TORSDOF 7
ENDMDL
MODEL 3
REMARK VINA RESULT:    -6.567      1.990      2.496
REMARK INTER + INTRA:         -10.244
REMARK INTER:                  -9.303
REMARK INTRA:                  -0.941
REMARK UNBOUND:                -0.990
REMARK  Name = 
REMARK  8 active torsions:
REMARK  status: ('A' for Active; 'I' for Inactive)
REMARK    1  A    between atoms: C_1  and  C_2
REMARK    2  A    between atoms: C_2  and  C_3
REMARK    3  A    between atoms: C_2  and  C_18
REMARK    4  A    between atoms: C_3  and  C_4
REMARK    5  A    between atoms: C_7  and  C_8
REMARK    6  A    between atoms: C_8  and  N_9
REMARK    7  A    between atoms: N_9  and  C_10
REMARK    8  A    between atoms: C_10  and  C_11
REMARK                            x       y       z     vdW  Elec       q    Type
REMARK                         _______ _______ _______ _____ _____    ______ ____
ROOT
ATOM      1  C   UNL     1      46.842   6.822  13.304  0.00  0.00    +0.000 A 
ATOM      2  C   UNL     1      47.198   5.512  13.630  0.00  0.00    +0.000 A 
ATOM      3  C   UNL     1      46.315   4.470  13.368  0.00  0.00    +0.000 A 
ATOM      4  C   UNL     1      45.066   4.760  12.824  0.00  0.00    +0.000 A 
ATOM      5  N   UNL     1      44.682   6.027  12.526  0.00  0.00    +0.000 NA
ATOM      6  C   UNL     1      45.569   7.019  12.769  0.00  0.00    +0.000 A 
ENDROOT
BRANCH   1   7
ATOM      7  C   UNL     1      47.796   7.971  13.497  0.00  0.00    +0.000 C 
BRANCH   7   9
ATOM      8  C   UNL     1      50.320   8.222  13.874  0.00  0.00    +0.000 C 
ATOM      9  C   UNL     1      49.000   7.663  14.430  0.00  0.00    +0.000 C 
BRANCH   9  10
ATOM     10  C   UNL     1      48.721   8.161  15.845  0.00  0.00    +0.000 A 
ATOM     11  C   UNL     1      48.420   9.474  16.179  0.00  0.00    +0.000 A 
ATOM     12  S   UNL     1      48.113   9.698  17.844  0.00  0.00    +0.000 S 
ATOM     13  C   UNL     1      48.360   8.048  18.173  0.00  0.00    +0.000 A 
ATOM     14  N   UNL     1      48.212   7.550  19.431  0.00  0.00    +0.000 NA
ATOM     15  C   UNL     1      48.422   6.283  19.529  0.00  0.00    +0.000 A 
ATOM     16  N   UNL     1      48.787   5.463  18.487  0.00  0.00    +0.000 N 
ATOM     17  C   UNL     1      48.973   5.920  17.202  0.00  0.00    +0.000 A 
ATOM     18  O   UNL     1      49.334   5.169  16.303  0.00  0.00    +0.000 OA
ATOM     19  C   UNL     1      48.708   7.341  17.035  0.00  0.00    +0.000 A 
ATOM     20  H   UNL     1      48.955   4.480  18.640  0.00  0.00    +0.000 HD
ENDBRANCH   9  10
ENDBRANCH   7   9
ENDBRANCH   1   7
BRANCH   4  21
ATOM     21  C   UNL     1      44.096   3.633  12.528  0.00  0.00    +0.000 C 
BRANCH  21  22
ATOM     22  N   UNL     1      44.548   2.688  11.499  0.00  0.00    +0.000 NA
ATOM     23  H   UNL     1      43.731   2.128  11.240  0.00  0.00    +0.000 HD
BRANCH  22  24
ATOM     24  C   UNL     1      45.043   3.354  10.283  0.00  0.00    +0.000 C 
BRANCH  24  25
ATOM     25  C   UNL     1      44.548   2.574   9.035  0.00  0.00    +0.000 C 
ATOM     26  C   UNL     1      44.871   3.251   7.715  0.00  0.00    +0.000 C 
ATOM     27  C   UNL     1      46.315   2.863   7.474  0.00  0.00    +0.000 C 
ATOM     28  C   UNL     1      46.441   1.486   8.114  0.00  0.00    +0.000 C 
ATOM     29  N   UNL     1      45.219   1.268   8.894  0.00  0.00    +0.000 NA
ATOM     30  H   UNL     1      45.438   0.917   9.830  0.00  0.00    +0.000 HD
ENDBRANCH  24  25
ENDBRANCH  22  24
ENDBRANCH  21  22
ENDBRANCH   4  21
TORSDOF 7
ENDMDL
MODEL 4
REMARK VINA RESULT:    -6.289      3.126      4.244
REMARK INTER + INTRA:          -9.852
REMARK INTER:                  -8.536
REMARK INTRA:                  -1.316
REMARK UNBOUND:                -0.990
REMARK  Name = 
REMARK  8 active torsions:
REMARK  status: ('A' for Active; 'I' for Inactive)
REMARK    1  A    between atoms: C_1  and  C_2
REMARK    2  A    between atoms: C_2  and  C_3
REMARK    3  A    between atoms: C_2  and  C_18
REMARK    4  A    between atoms: C_3  and  C_4
REMARK    5  A    between atoms: C_7  and  C_8
REMARK    6  A    between atoms: C_8  and  N_9
REMARK    7  A    between atoms: N_9  and  C_10
REMARK    8  A    between atoms: C_10  and  C_11
REMARK                            x       y       z     vdW  Elec       q    Type
REMARK                         _______ _______ _______ _____ _____    ______ ____
ROOT
ATOM      1  C   UNL     1      49.397   7.971  14.171  0.00  0.00    +0.000 A 
ATOM      2  C   UNL     1      49.336   7.123  13.063  0.00  0.00    +0.000 A 
ATOM      3  C   UNL     1      48.164   7.041  12.319  0.00  0.00    +0.000 A 
ATOM      4  C   UNL     1      47.053   7.777  12.722  0.00  0.00    +0.000 A 
ATOM      5  N   UNL     1      47.074   8.586  13.813  0.00  0.00    +0.000 NA
ATOM      6  C   UNL     1      48.234   8.664  14.504  0.00  0.00    +0.000 A 
ENDROOT
BRANCH   1   7
ATOM      7  C   UNL     1      50.668   8.150  14.959  0.00  0.00    +0.000 C 
BRANCH   7   9
ATOM      8  C   UNL     1      52.528   6.800  16.096  0.00  0.00    +0.000 C 
ATOM      9  C   UNL     1      51.011   6.972  15.912  0.00  0.00    +0.000 C 
BRANCH   9  10
ATOM     10  C   UNL     1      50.289   7.134  17.246  0.00  0.00    +0.000 A 
ATOM     11  C   UNL     1      50.680   7.997  18.260  0.00  0.00    +0.000 A 
ATOM     12  S   UNL     1      49.634   7.981  19.609  0.00  0.00    +0.000 S 
ATOM     13  C   UNL     1      48.616   6.830  18.879  0.00  0.00    +0.000 A 
ATOM     14  N   UNL     1      47.485   6.396  19.500  0.00  0.00    +0.000 NA
ATOM     15  C   UNL     1      46.808   5.531  18.826  0.00  0.00    +0.000 A 
ATOM     16  N   UNL     1      47.165   5.041  17.592  0.00  0.00    +0.000 N 
ATOM     17  C   UNL     1      48.309   5.429  16.934  0.00  0.00    +0.000 A 
ATOM     18  O   UNL     1      48.618   4.945  15.850  0.00  0.00    +0.000 OA
ATOM     19  C   UNL     1      49.087   6.436  17.639  0.00  0.00    +0.000 A 
ATOM     20  H   UNL     1      46.596   4.349  17.129  0.00  0.00    +0.000 HD
ENDBRANCH   9  10
ENDBRANCH   7   9
ENDBRANCH   1   7
BRANCH   4  21
ATOM     21  C   UNL     1      45.770   7.702  11.917  0.00  0.00    +0.000 C 
BRANCH  21  22
ATOM     22  N   UNL     1      44.605   7.206  12.662  0.00  0.00    +0.000 NA
ATOM     23  H   UNL     1      43.809   7.257  12.022  0.00  0.00    +0.000 HD
BRANCH  22  24
ATOM     24  C   UNL     1      44.751   5.805  13.091  0.00  0.00    +0.000 C 
BRANCH  24  25
ATOM     25  C   UNL     1      43.359   5.116  13.066  0.00  0.00    +0.000 C 
ATOM     26  C   UNL     1      42.680   5.146  11.708  0.00  0.00    +0.000 C 
ATOM     27  C   UNL     1      43.340   4.002  10.968  0.00  0.00    +0.000 C 
ATOM     28  C   UNL     1      43.666   2.992  12.062  0.00  0.00    +0.000 C 
ATOM     29  N   UNL     1      43.449   3.670  13.343  0.00  0.00    +0.000 NA
ATOM     30  H   UNL     1      44.236   3.514  13.979  0.00  0.00    +0.000 HD
ENDBRANCH  24  25
ENDBRANCH  22  24
ENDBRANCH  21  22
ENDBRANCH   4  21
TORSDOF 7
ENDMDL
MODEL 5
REMARK VINA RESULT:    -5.891      3.204      4.548
REMARK INTER + INTRA:          -9.291
REMARK INTER:                  -8.426
REMARK INTRA:                  -0.865
REMARK UNBOUND:                -0.990
REMARK  Name = 
REMARK  8 active torsions:
REMARK  status: ('A' for Active; 'I' for Inactive)
REMARK    1  A    between atoms: C_1  and  C_2
REMARK    2  A    between atoms: C_2  and  C_3
REMARK    3  A    between atoms: C_2  and  C_18
REMARK    4  A    between atoms: C_3  and  C_4
REMARK    5  A    between atoms: C_7  and  C_8
REMARK    6  A    between atoms: C_8  and  N_9
REMARK    7  A    between atoms: N_9  and  C_10
REMARK    8  A    between atoms: C_10  and  C_11
REMARK                            x       y       z     vdW  Elec       q    Type
REMARK                         _______ _______ _______ _____ _____    ______ ____
ROOT
ATOM      1  C   UNL     1      47.499   5.971  14.197  0.00  0.00    +0.000 A 
ATOM      2  C   UNL     1      46.716   6.614  13.236  0.00  0.00    +0.000 A 
ATOM      3  C   UNL     1      45.618   5.961  12.688  0.00  0.00    +0.000 A 
ATOM      4  C   UNL     1      45.343   4.653  13.079  0.00  0.00    +0.000 A 
ATOM      5  N   UNL     1      46.105   3.992  13.989  0.00  0.00    +0.000 NA
ATOM      6  C   UNL     1      47.154   4.659  14.522  0.00  0.00    +0.000 A 
ENDROOT
BRANCH   1   7
ATOM      7  C   UNL     1      48.651   6.667  14.873  0.00  0.00    +0.000 C 
BRANCH   7   9
ATOM      8  C   UNL     1      48.260   9.140  15.431  0.00  0.00    +0.000 C 
ATOM      9  C   UNL     1      48.866   8.141  14.430  0.00  0.00    +0.000 C 
BRANCH   9  10
ATOM     10  C   UNL     1      50.345   8.414  14.177  0.00  0.00    +0.000 A 
ATOM     11  C   UNL     1      51.258   8.797  15.149  0.00  0.00    +0.000 A 
ATOM     12  S   UNL     1      52.849   8.978  14.554  0.00  0.00    +0.000 S 
ATOM     13  C   UNL     1      52.374   8.538  12.981  0.00  0.00    +0.000 A 
ATOM     14  N   UNL     1      53.279   8.455  11.969  0.00  0.00    +0.000 NA
ATOM     15  C   UNL     1      52.778   8.102  10.836  0.00  0.00    +0.000 A 
ATOM     16  N   UNL     1      51.447   7.842  10.611  0.00  0.00    +0.000 N 
ATOM     17  C   UNL     1      50.488   7.935  11.594  0.00  0.00    +0.000 A 
ATOM     18  O   UNL     1      49.303   7.732  11.352  0.00  0.00    +0.000 OA
ATOM     19  C   UNL     1      51.014   8.292  12.902  0.00  0.00    +0.000 A 
ATOM     20  H   UNL     1      51.120   7.590   9.691  0.00  0.00    +0.000 HD
ENDBRANCH   9  10
ENDBRANCH   7   9
ENDBRANCH   1   7
BRANCH   4  21
ATOM     21  C   UNL     1      44.145   3.930  12.495  0.00  0.00    +0.000 C 
BRANCH  21  22
ATOM     22  N   UNL     1      43.982   4.085  11.044  0.00  0.00    +0.000 NA
ATOM     23  H   UNL     1      43.958   5.092  10.861  0.00  0.00    +0.000 HD
BRANCH  22  24
ATOM     24  C   UNL     1      45.098   3.511  10.275  0.00  0.00    +0.000 C 
BRANCH  24  25
ATOM     25  C   UNL     1      44.532   2.744   9.049  0.00  0.00    +0.000 C 
ATOM     26  C   UNL     1      44.849   3.395   7.713  0.00  0.00    +0.000 C 
ATOM     27  C   UNL     1      46.266   2.939   7.436  0.00  0.00    +0.000 C 
ATOM     28  C   UNL     1      46.347   1.563   8.086  0.00  0.00    +0.000 C 
ATOM     29  N   UNL     1      45.139   1.407   8.901  0.00  0.00    +0.000 NA
ATOM     30  H   UNL     1      45.367   1.055   9.835  0.00  0.00    +0.000 HD
ENDBRANCH  24  25
ENDBRANCH  22  24
ENDBRANCH  21  22
ENDBRANCH   4  21
TORSDOF 7
ENDMDL
MODEL 6
REMARK VINA RESULT:    -5.833      3.324      4.584
REMARK INTER + INTRA:          -9.209
REMARK INTER:                  -8.168
REMARK INTRA:                  -1.041
REMARK UNBOUND:                -0.990
REMARK  Name = 
REMARK  8 active torsions:
REMARK  status: ('A' for Active; 'I' for Inactive)
REMARK    1  A    between atoms: C_1  and  C_2
REMARK    2  A    between atoms: C_2  and  C_3
REMARK    3  A    between atoms: C_2  and  C_18
REMARK    4  A    between atoms: C_3  and  C_4
REMARK    5  A    between atoms: C_7  and  C_8
REMARK    6  A    between atoms: C_8  and  N_9
REMARK    7  A    between atoms: N_9  and  C_10
REMARK    8  A    between atoms: C_10  and  C_11
REMARK                            x       y       z     vdW  Elec       q    Type
REMARK                         _______ _______ _______ _____ _____    ______ ____
ROOT
ATOM      1  C   UNL     1      48.978   7.361  14.929  0.00  0.00    +0.000 A 
ATOM      2  C   UNL     1      48.537   8.666  14.700  0.00  0.00    +0.000 A 
ATOM      3  C   UNL     1      47.479   8.896  13.828  0.00  0.00    +0.000 A 
ATOM      4  C   UNL     1      46.904   7.817  13.161  0.00  0.00    +0.000 A 
ATOM      5  N   UNL     1      47.332   6.541  13.340  0.00  0.00    +0.000 NA
ATOM      6  C   UNL     1      48.348   6.344  14.212  0.00  0.00    +0.000 A 
ENDROOT
BRANCH   1   7
ATOM      7  C   UNL     1      50.068   7.058  15.923  0.00  0.00    +0.000 C 
BRANCH   7   9
ATOM      8  C   UNL     1      48.403   7.507  17.821  0.00  0.00    +0.000 C 
ATOM      9  C   UNL     1      49.562   6.624  17.326  0.00  0.00    +0.000 C 
BRANCH   9  10
ATOM     10  C   UNL     1      49.193   5.144  17.329  0.00  0.00    +0.000 A 
ATOM     11  C   UNL     1      47.901   4.649  17.219  0.00  0.00    +0.000 A 
ATOM     12  S   UNL     1      47.826   2.943  17.207  0.00  0.00    +0.000 S 
ATOM     13  C   UNL     1      49.517   2.809  17.335  0.00  0.00    +0.000 A 
ATOM     14  N   UNL     1      50.129   1.593  17.340  0.00  0.00    +0.000 NA
ATOM     15  C   UNL     1      51.413   1.645  17.434  0.00  0.00    +0.000 A 
ATOM     16  N   UNL     1      52.148   2.803  17.544  0.00  0.00    +0.000 N 
ATOM     17  C   UNL     1      51.576   4.054  17.567  0.00  0.00    +0.000 A 
ATOM     18  O   UNL     1      52.257   5.065  17.702  0.00  0.00    +0.000 OA
ATOM     19  C   UNL     1      50.128   4.048  17.423  0.00  0.00    +0.000 A 
ATOM     20  H   UNL     1      53.151   2.768  17.633  0.00  0.00    +0.000 HD
ENDBRANCH   9  10
ENDBRANCH   7   9
ENDBRANCH   1   7
BRANCH   4  21
ATOM     21  C   UNL     1      45.745   8.052  12.211  0.00  0.00    +0.000 C 
BRANCH  21  22
ATOM     22  N   UNL     1      44.481   7.423  12.617  0.00  0.00    +0.000 NA
ATOM     23  H   UNL     1      43.766   8.153  12.569  0.00  0.00    +0.000 HD
BRANCH  22  24
ATOM     24  C   UNL     1      44.071   6.328  11.723  0.00  0.00    +0.000 C 
BRANCH  24  25
ATOM     25  C   UNL     1      43.630   5.110  12.579  0.00  0.00    +0.000 C 
ATOM     26  C   UNL     1      43.084   3.949  11.766  0.00  0.00    +0.000 C 
ATOM     27  C   UNL     1      44.336   3.248  11.283  0.00  0.00    +0.000 C 
ATOM     28  C   UNL     1      45.348   3.488  12.397  0.00  0.00    +0.000 C 
ATOM     29  N   UNL     1      44.763   4.491  13.292  0.00  0.00    +0.000 NA
ATOM     30  H   UNL     1      45.441   5.225  13.515  0.00  0.00    +0.000 HD
ENDBRANCH  24  25
ENDBRANCH  22  24
ENDBRANCH  21  22
ENDBRANCH   4  21
TORSDOF 7
ENDMDL
MODEL 7
REMARK VINA RESULT:    -5.806      3.139      8.463
REMARK INTER + INTRA:          -9.172
REMARK INTER:                  -8.101
REMARK INTRA:                  -1.071
REMARK UNBOUND:                -0.990
REMARK  Name = 
REMARK  8 active torsions:
REMARK  status: ('A' for Active; 'I' for Inactive)
REMARK    1  A    between atoms: C_1  and  C_2
REMARK    2  A    between atoms: C_2  and  C_3
REMARK    3  A    between atoms: C_2  and  C_18
REMARK    4  A    between atoms: C_3  and  C_4
REMARK    5  A    between atoms: C_7  and  C_8
REMARK    6  A    between atoms: C_8  and  N_9
REMARK    7  A    between atoms: N_9  and  C_10
REMARK    8  A    between atoms: C_10  and  C_11
REMARK                            x       y       z     vdW  Elec       q    Type
REMARK                         _______ _______ _______ _____ _____    ______ ____
ROOT
ATOM      1  C   UNL     1      47.742   5.835  14.247  0.00  0.00    +0.000 A 
ATOM      2  C   UNL     1      47.190   4.633  14.694  0.00  0.00    +0.000 A 
ATOM      3  C   UNL     1      47.336   4.257  16.024  0.00  0.00    +0.000 A 
ATOM      4  C   UNL     1      48.074   5.070  16.881  0.00  0.00    +0.000 A 
ATOM      5  N   UNL     1      48.648   6.229  16.467  0.00  0.00    +0.000 NA
ATOM      6  C   UNL     1      48.470   6.582  15.173  0.00  0.00    +0.000 A 
ENDROOT
BRANCH   1   7
ATOM      7  C   UNL     1      47.542   6.320  12.835  0.00  0.00    +0.000 C 
BRANCH   7   9
ATOM      8  C   UNL     1      45.836   8.068  12.055  0.00  0.00    +0.000 C 
ATOM      9  C   UNL     1      46.063   6.599  12.449  0.00  0.00    +0.000 C 
BRANCH   9  10
ATOM     10  C   UNL     1      45.603   5.638  11.358  0.00  0.00    +0.000 A 
ATOM     11  C   UNL     1      45.930   5.749  10.014  0.00  0.00    +0.000 A 
ATOM     12  S   UNL     1      45.298   4.486   9.054  0.00  0.00    +0.000 S 
ATOM     13  C   UNL     1      44.576   3.742  10.403  0.00  0.00    +0.000 A 
ATOM     14  N   UNL     1      43.893   2.571  10.281  0.00  0.00    +0.000 NA
ATOM     15  C   UNL     1      43.409   2.121  11.386  0.00  0.00    +0.000 A 
ATOM     16  N   UNL     1      43.526   2.742  12.608  0.00  0.00    +0.000 N 
ATOM     17  C   UNL     1      44.184   3.938  12.780  0.00  0.00    +0.000 A 
ATOM     18  O   UNL     1      44.239   4.484  13.877  0.00  0.00    +0.000 OA
ATOM     19  C   UNL     1      44.784   4.466  11.565  0.00  0.00    +0.000 A 
ATOM     20  H   UNL     1      43.103   2.342  13.431  0.00  0.00    +0.000 HD
ENDBRANCH   9  10
ENDBRANCH   7   9
ENDBRANCH   1   7
BRANCH   4  21
ATOM     21  C   UNL     1      48.237   4.675  18.336  0.00  0.00    +0.000 C 
BRANCH  21  22
ATOM     22  N   UNL     1      49.012   5.624  19.146  0.00  0.00    +0.000 NA
ATOM     23  H   UNL     1      48.344   6.085  19.770  0.00  0.00    +0.000 HD
BRANCH  22  24
ATOM     24  C   UNL     1      50.032   4.968  19.981  0.00  0.00    +0.000 C 
BRANCH  24  25
ATOM     25  C   UNL     1      51.432   5.527  19.608  0.00  0.00    +0.000 C 
ATOM     26  C   UNL     1      52.546   4.496  19.669  0.00  0.00    +0.000 C 
ATOM     27  C   UNL     1      52.408   3.763  18.351  0.00  0.00    +0.000 C 
ATOM     28  C   UNL     1      51.882   4.823  17.391  0.00  0.00    +0.000 C 
ATOM     29  N   UNL     1      51.495   5.979  18.205  0.00  0.00    +0.000 NA
ATOM     30  H   UNL     1      50.570   6.325  17.938  0.00  0.00    +0.000 HD
ENDBRANCH  24  25
ENDBRANCH  22  24
ENDBRANCH  21  22
ENDBRANCH   4  21
TORSDOF 7
ENDMDL
MODEL 8
REMARK VINA RESULT:    -5.665      2.118      3.099
REMARK INTER + INTRA:          -8.973
REMARK INTER:                  -8.292
REMARK INTRA:                  -0.681
REMARK UNBOUND:                -0.990
REMARK  Name = 
REMARK  8 active torsions:
REMARK  status: ('A' for Active; 'I' for Inactive)
REMARK    1  A    between atoms: C_1  and  C_2
REMARK    2  A    between atoms: C_2  and  C_3
REMARK    3  A    between atoms: C_2  and  C_18
REMARK    4  A    between atoms: C_3  and  C_4
REMARK    5  A    between atoms: C_7  and  C_8
REMARK    6  A    between atoms: C_8  and  N_9
REMARK    7  A    between atoms: N_9  and  C_10
REMARK    8  A    between atoms: C_10  and  C_11
REMARK                            x       y       z     vdW  Elec       q    Type
REMARK                         _______ _______ _______ _____ _____    ______ ____
ROOT
ATOM      1  C   UNL     1      48.757   7.713  14.071  0.00  0.00    +0.000 A 
ATOM      2  C   UNL     1      48.446   8.446  12.924  0.00  0.00    +0.000 A 
ATOM      3  C   UNL     1      47.476   7.978  12.045  0.00  0.00    +0.000 A 
ATOM      4  C   UNL     1      46.861   6.755  12.303  0.00  0.00    +0.000 A 
ATOM      5  N   UNL     1      47.165   6.006  13.394  0.00  0.00    +0.000 NA
ATOM      6  C   UNL     1      48.096   6.497  14.244  0.00  0.00    +0.000 A 
ENDROOT
BRANCH   1   7
ATOM      7  C   UNL     1      49.743   8.219  15.090  0.00  0.00    +0.000 C 
BRANCH   7   9
ATOM      8  C   UNL     1      51.928   7.196  15.960  0.00  0.00    +0.000 C 
ATOM      9  C   UNL     1      50.392   7.114  15.968  0.00  0.00    +0.000 C 
BRANCH   9  10
ATOM     10  C   UNL     1      49.826   7.154  17.384  0.00  0.00    +0.000 A 
ATOM     11  C   UNL     1      49.469   8.311  18.063  0.00  0.00    +0.000 A 
ATOM     12  S   UNL     1      48.821   8.016  19.615  0.00  0.00    +0.000 S 
ATOM     13  C   UNL     1      48.984   6.333  19.428  0.00  0.00    +0.000 A 
ATOM     14  N   UNL     1      48.572   5.474  20.399  0.00  0.00    +0.000 NA
ATOM     15  C   UNL     1      48.749   4.229  20.117  0.00  0.00    +0.000 A 
ATOM     16  N   UNL     1      49.319   3.759  18.957  0.00  0.00    +0.000 N 
ATOM     17  C   UNL     1      49.773   4.586  17.956  0.00  0.00    +0.000 A 
ATOM     18  O   UNL     1      50.311   4.136  16.950  0.00  0.00    +0.000 OA
ATOM     19  C   UNL     1      49.558   6.002  18.213  0.00  0.00    +0.000 A 
ATOM     20  H   UNL     1      49.445   2.769  18.811  0.00  0.00    +0.000 HD
ENDBRANCH   9  10
ENDBRANCH   7   9
ENDBRANCH   1   7
BRANCH   4  21
ATOM     21  C   UNL     1      45.797   6.235  11.356  0.00  0.00    +0.000 C 
BRANCH  21  22
ATOM     22  N   UNL     1      44.887   5.241  11.941  0.00  0.00    +0.000 NA
ATOM     23  H   UNL     1      43.946   5.493  11.631  0.00  0.00    +0.000 HD
BRANCH  22  24
ATOM     24  C   UNL     1      45.163   3.870  11.484  0.00  0.00    +0.000 C 
BRANCH  24  25
ATOM     25  C   UNL     1      44.133   3.480  10.388  0.00  0.00    +0.000 C 
ATOM     26  C   UNL     1      44.359   4.171   9.055  0.00  0.00    +0.000 C 
ATOM     27  C   UNL     1      45.456   3.341   8.420  0.00  0.00    +0.000 C 
ATOM     28  C   UNL     1      45.212   1.934   8.953  0.00  0.00    +0.000 C 
ATOM     29  N   UNL     1      44.220   2.053  10.025  0.00  0.00    +0.000 NA
ATOM     30  H   UNL     1      44.509   1.528  10.855  0.00  0.00    +0.000 HD
ENDBRANCH  24  25
ENDBRANCH  22  24
ENDBRANCH  21  22
ENDBRANCH   4  21
TORSDOF 7
ENDMDL
MODEL 9
REMARK VINA RESULT:    -5.632      2.587      3.348
REMARK INTER + INTRA:          -8.926
REMARK INTER:                  -8.757
REMARK INTRA:                  -0.169
REMARK UNBOUND:                -0.990
REMARK  Name = 
REMARK  8 active torsions:
REMARK  status: ('A' for Active; 'I' for Inactive)
REMARK    1  A    between atoms: C_1  and  C_2
REMARK    2  A    between atoms: C_2  and  C_3
REMARK    3  A    between atoms: C_2  and  C_18
REMARK    4  A    between atoms: C_3  and  C_4
REMARK    5  A    between atoms: C_7  and  C_8
REMARK    6  A    between atoms: C_8  and  N_9
REMARK    7  A    between atoms: N_9  and  C_10
REMARK    8  A    between atoms: C_10  and  C_11
REMARK                            x       y       z     vdW  Elec       q    Type
REMARK                         _______ _______ _______ _____ _____    ______ ____
ROOT
ATOM      1  C   UNL     1      47.598   6.121  13.163  0.00  0.00    +0.000 A 
ATOM      2  C   UNL     1      46.650   6.684  12.307  0.00  0.00    +0.000 A 
ATOM      3  C   UNL     1      45.378   6.129  12.221  0.00  0.00    +0.000 A 
ATOM      4  C   UNL     1      45.086   4.987  12.964  0.00  0.00    +0.000 A 
ATOM      5  N   UNL     1      45.998   4.400  13.782  0.00  0.00    +0.000 NA
ATOM      6  C   UNL     1      47.220   4.975  13.863  0.00  0.00    +0.000 A 
ENDROOT
BRANCH   1   7
ATOM      7  C   UNL     1      48.961   6.735  13.346  0.00  0.00    +0.000 C 
BRANCH   7   9
ATOM      8  C   UNL     1      47.799   8.484  14.819  0.00  0.00    +0.000 C 
ATOM      9  C   UNL     1      49.087   7.679  14.574  0.00  0.00    +0.000 C 
BRANCH   9  10
ATOM     10  C   UNL     1      49.513   6.894  15.811  0.00  0.00    +0.000 A 
ATOM     11  C   UNL     1      48.642   6.270  16.693  0.00  0.00    +0.000 A 
ATOM     12  S   UNL     1      49.435   5.432  17.953  0.00  0.00    +0.000 S 
ATOM     13  C   UNL     1      50.968   5.864  17.355  0.00  0.00    +0.000 A 
ATOM     14  N   UNL     1      52.107   5.432  17.960  0.00  0.00    +0.000 NA
ATOM     15  C   UNL     1      53.194   5.830  17.393  0.00  0.00    +0.000 A 
ATOM     16  N   UNL     1      53.251   6.640  16.284  0.00  0.00    +0.000 N 
ATOM     17  C   UNL     1      52.129   7.123  15.650  0.00  0.00    +0.000 A 
ATOM     18  O   UNL     1      52.215   7.874  14.684  0.00  0.00    +0.000 OA
ATOM     19  C   UNL     1      50.876   6.667  16.231  0.00  0.00    +0.000 A 
ATOM     20  H   UNL     1      54.139   6.929  15.903  0.00  0.00    +0.000 HD
ENDBRANCH   9  10
ENDBRANCH   7   9
ENDBRANCH   1   7
BRANCH   4  21
ATOM     21  C   UNL     1      43.701   4.374  12.885  0.00  0.00    +0.000 C 
BRANCH  21  22
ATOM     22  N   UNL     1      43.526   3.388  11.811  0.00  0.00    +0.000 NA
ATOM     23  H   UNL     1      42.697   3.676  11.286  0.00  0.00    +0.000 HD
BRANCH  22  24
ATOM     24  C   UNL     1      44.663   3.349  10.876  0.00  0.00    +0.000 C 
BRANCH  24  25
ATOM     25  C   UNL     1      44.165   2.861   9.488  0.00  0.00    +0.000 C 
ATOM     26  C   UNL     1      44.558   3.771   8.337  0.00  0.00    +0.000 C 
ATOM     27  C   UNL     1      45.988   3.361   8.048  0.00  0.00    +0.000 C 
ATOM     28  C   UNL     1      46.027   1.879   8.401  0.00  0.00    +0.000 C 
ATOM     29  N   UNL     1      44.775   1.576   9.099  0.00  0.00    +0.000 NA
ATOM     30  H   UNL     1      44.949   1.033   9.949  0.00  0.00    +0.000 HD
ENDBRANCH  24  25
ENDBRANCH  22  24
ENDBRANCH  21  22
ENDBRANCH   4  21
TORSDOF 7
ENDMDL
