MODEL 1
REMARK VINA RESULT:    -7.521      0.000      0.000
REMARK INTER + INTRA:         -11.770
REMARK INTER:                 -10.818
REMARK INTRA:                  -0.952
REMARK UNBOUND:                -0.952
REMARK  Name = 
REMARK  8 active torsions:
REMARK  status: ('A' for Active; 'I' for Inactive)
REMARK    1  A    between atoms: C_2  and  C_21
REMARK    2  A    between atoms: N_3  and  C_4
REMARK    3  A    between atoms: C_4  and  C_5
REMARK    4  A    between atoms: C_8  and  C_9
REMARK    5  A    between atoms: C_9  and  O_10
REMARK    6  A    between atoms: C_9  and  C_11
REMARK    7  A    between atoms: C_11  and  C_12
REMARK    8  A    between atoms: C_12  and  N_13
REMARK                            x       y       z     vdW  Elec       q    Type
REMARK                         _______ _______ _______ _____ _____    ______ ____
ROOT
ATOM      1  C   UNL     1      47.134   6.225  12.985  0.00  0.00    +0.000 A 
ATOM      2  C   UNL     1      46.469   5.167  13.619  0.00  0.00    +0.000 A 
ATOM      3  C   UNL     1      45.359   4.560  13.022  0.00  0.00    +0.000 A 
ATOM      4  C   UNL     1      44.912   4.981  11.762  0.00  0.00    +0.000 A 
ATOM      5  C   UNL     1      45.589   6.040  11.137  0.00  0.00    +0.000 A 
ATOM      6  C   UNL     1      46.700   6.639  11.727  0.00  0.00    +0.000 A 
ENDROOT
BRANCH   1   7
ATOM      7  C   UNL     1      48.268   6.925  13.674  0.00  0.00    +0.000 C 
BRANCH   7  10
ATOM      8  O   UNL     1      50.356   6.738  15.455  0.00  0.00    +0.000 OA
ATOM      9  C   UNL     1      49.214   6.917  15.906  0.00  0.00    +0.000 C 
ATOM     10  N   UNL     1      48.114   6.985  15.097  0.00  0.00    +0.000 N 
ATOM     11  H   UNL     1      47.260   7.414  15.456  0.00  0.00    +0.000 HD
BRANCH   9  12
ATOM     12  C   UNL     1      48.984   7.038  17.338  0.00  0.00    +0.000 A 
ATOM     13  C   UNL     1      48.672   8.246  17.935  0.00  0.00    +0.000 A 
ATOM     14  S   UNL     1      48.397   8.108  19.617  0.00  0.00    +0.000 S 
ATOM     15  C   UNL     1      48.673   6.427  19.583  0.00  0.00    +0.000 A 
ATOM     16  N   UNL     1      48.566   5.663  20.701  0.00  0.00    +0.000 NA
ATOM     17  C   UNL     1      48.789   4.406  20.507  0.00  0.00    +0.000 A 
ATOM     18  N   UNL     1      49.110   3.836  19.307  0.00  0.00    +0.000 N 
ATOM     19  C   UNL     1      49.293   4.569  18.171  0.00  0.00    +0.000 A 
ATOM     20  O   UNL     1      49.709   4.040  17.136  0.00  0.00    +0.000 OA
ATOM     21  C   UNL     1      49.011   5.985  18.317  0.00  0.00    +0.000 A 
ATOM     22  H   UNL     1      49.318   2.854  19.229  0.00  0.00    +0.000 HD
ENDBRANCH   9  12
ENDBRANCH   7  10
ENDBRANCH   1   7
BRANCH   4  23
ATOM     23  C   UNL     1      43.736   4.330  11.069  0.00  0.00    +0.000 C 
BRANCH  23  24
ATOM     24  O   UNL     1      43.399   5.118   9.920  0.00  0.00    +0.000 OA
ATOM     25  H   UNL     1      43.215   4.503   9.190  0.00  0.00    +0.000 HD
ENDBRANCH  23  24
BRANCH  23  26
ATOM     26  C   UNL     1      43.988   2.883  10.577  0.00  0.00    +0.000 C 
BRANCH  26  27
ATOM     27  C   UNL     1      45.301   2.686   9.788  0.00  0.00    +0.000 C 
BRANCH  27  28
ATOM     28  N   UNL     1      45.117   2.314   8.370  0.00  0.00    +0.000 NA
ATOM     29  C   UNL     1      45.974   1.217   7.878  0.00  0.00    +0.000 C 
ATOM     30  C   UNL     1      47.437   1.570   7.508  0.00  0.00    +0.000 C 
ATOM     31  N   UNL     1      47.618   2.814   6.736  0.00  0.00    +0.000 NA
ATOM     32  C   UNL     1      46.767   3.902   7.244  0.00  0.00    +0.000 C 
ATOM     33  C   UNL     1      45.299   3.482   7.482  0.00  0.00    +0.000 C 
ATOM     34  H   UNL     1      47.336   2.625   5.772  0.00  0.00    +0.000 HD
ENDBRANCH  27  28
ENDBRANCH  26  27
ENDBRANCH  23  26
ENDBRANCH   4  23
TORSDOF 8
ENDMDL
MODEL 2
REMARK VINA RESULT:    -7.264      1.496      2.282
REMARK INTER + INTRA:         -11.401
REMARK INTER:                 -10.266
REMARK INTRA:                  -1.135
REMARK UNBOUND:                -0.952
REMARK  Name = 
REMARK  8 active torsions:
REMARK  status: ('A' for Active; 'I' for Inactive)
REMARK    1  A    between atoms: C_2  and  C_21
REMARK    2  A    between atoms: N_3  and  C_4
REMARK    3  A    between atoms: C_4  and  C_5
REMARK    4  A    between atoms: C_8  and  C_9
REMARK    5  A    between atoms: C_9  and  O_10
REMARK    6  A    between atoms: C_9  and  C_11
REMARK    7  A    between atoms: C_11  and  C_12
REMARK    8  A    between atoms: C_12  and  N_13
REMARK                            x       y       z     vdW  Elec       q    Type
REMARK                         _______ _______ _______ _____ _____    ______ ____
ROOT
ATOM      1  C   UNL     1      47.120   5.975  13.182  0.00  0.00    +0.000 A 
ATOM      2  C   UNL     1      46.482   4.824  13.662  0.00  0.00    +0.000 A 
ATOM      3  C   UNL     1      45.392   4.273  12.981  0.00  0.00    +0.000 A 
ATOM      4  C   UNL     1      44.938   4.848  11.786  0.00  0.00    +0.000 A 
ATOM      5  C   UNL     1      45.588   5.999  11.314  0.00  0.00    +0.000 A 
ATOM      6  C   UNL     1      46.680   6.543  11.987  0.00  0.00    +0.000 A 
ENDROOT
BRANCH   1   7
ATOM      7  C   UNL     1      48.232   6.605  13.967  0.00  0.00    +0.000 C 
BRANCH   7  10
ATOM      8  O   UNL     1      50.155   6.267  15.903  0.00  0.00    +0.000 OA
ATOM      9  C   UNL     1      48.995   6.514  16.266  0.00  0.00    +0.000 C 
ATOM     10  N   UNL     1      47.969   6.661  15.374  0.00  0.00    +0.000 N 
ATOM     11  H   UNL     1      47.118   7.140  15.671  0.00  0.00    +0.000 HD
BRANCH   9  12
ATOM     12  C   UNL     1      48.660   6.635  17.677  0.00  0.00    +0.000 A 
ATOM     13  C   UNL     1      48.787   5.576  18.558  0.00  0.00    +0.000 A 
ATOM     14  S   UNL     1      48.381   5.994  20.166  0.00  0.00    +0.000 S 
ATOM     15  C   UNL     1      48.042   7.604  19.724  0.00  0.00    +0.000 A 
ATOM     16  N   UNL     1      47.664   8.532  20.640  0.00  0.00    +0.000 NA
ATOM     17  C   UNL     1      47.460   9.710  20.150  0.00  0.00    +0.000 A 
ATOM     18  N   UNL     1      47.596  10.052  18.834  0.00  0.00    +0.000 N 
ATOM     19  C   UNL     1      47.910   9.142  17.867  0.00  0.00    +0.000 A 
ATOM     20  O   UNL     1      47.897   9.456  16.673  0.00  0.00    +0.000 OA
ATOM     21  C   UNL     1      48.196   7.809  18.365  0.00  0.00    +0.000 A 
ATOM     22  H   UNL     1      47.378  10.978  18.505  0.00  0.00    +0.000 HD
ENDBRANCH   9  12
ENDBRANCH   7  10
ENDBRANCH   1   7
BRANCH   4  23
ATOM     23  C   UNL     1      43.783   4.265  11.003  0.00  0.00    +0.000 C 
BRANCH  23  24
ATOM     24  O   UNL     1      43.532   5.112   9.874  0.00  0.00    +0.000 OA
ATOM     25  H   UNL     1      44.386   5.485   9.595  0.00  0.00    +0.000 HD
ENDBRANCH  23  24
BRANCH  23  26
ATOM     26  C   UNL     1      44.019   2.834  10.460  0.00  0.00    +0.000 C 
BRANCH  26  27
ATOM     27  C   UNL     1      45.353   2.637   9.708  0.00  0.00    +0.000 C 
BRANCH  27  28
ATOM     28  N   UNL     1      45.209   2.227   8.296  0.00  0.00    +0.000 NA
ATOM     29  C   UNL     1      46.141   1.180   7.832  0.00  0.00    +0.000 C 
ATOM     30  C   UNL     1      47.582   1.623   7.469  0.00  0.00    +0.000 C 
ATOM     31  N   UNL     1      47.688   2.861   6.674  0.00  0.00    +0.000 NA
ATOM     32  C   UNL     1      46.762   3.899   7.153  0.00  0.00    +0.000 C 
ATOM     33  C   UNL     1      45.322   3.387   7.386  0.00  0.00    +0.000 C 
ATOM     34  H   UNL     1      47.428   2.635   5.711  0.00  0.00    +0.000 HD
ENDBRANCH  27  28
ENDBRANCH  26  27
ENDBRANCH  23  26
ENDBRANCH   4  23
TORSDOF 8
ENDMDL
MODEL 3
REMARK VINA RESULT:    -6.986      2.277      2.645
REMARK INTER + INTRA:         -11.001
REMARK INTER:                  -9.869
REMARK INTRA:                  -1.132
REMARK UNBOUND:                -0.952
REMARK  Name = 
REMARK  8 active torsions:
REMARK  status: ('A' for Active; 'I' for Inactive)
REMARK    1  A    between atoms: C_2  and  C_21
REMARK    2  A    between atoms: N_3  and  C_4
REMARK    3  A    between atoms: C_4  and  C_5
REMARK    4  A    between atoms: C_8  and  C_9
REMARK    5  A    between atoms: C_9  and  O_10
REMARK    6  A    between atoms: C_9  and  C_11
REMARK    7  A    between atoms: C_11  and  C_12
REMARK    8  A    between atoms: C_12  and  N_13
REMARK                            x       y       z     vdW  Elec       q    Type
REMARK                         _______ _______ _______ _____ _____    ______ ____
ROOT
ATOM      1  C   UNL     1      47.581   7.172  13.129  0.00  0.00    +0.000 A 
ATOM      2  C   UNL     1      47.609   5.799  13.403  0.00  0.00    +0.000 A 
ATOM      3  C   UNL     1      46.441   5.031  13.333  0.00  0.00    +0.000 A 
ATOM      4  C   UNL     1      45.227   5.620  12.957  0.00  0.00    +0.000 A 
ATOM      5  C   UNL     1      45.213   6.997  12.683  0.00  0.00    +0.000 A 
ATOM      6  C   UNL     1      46.377   7.760  12.743  0.00  0.00    +0.000 A 
ENDROOT
BRANCH   1   7
ATOM      7  C   UNL     1      48.821   8.000  13.292  0.00  0.00    +0.000 C 
BRANCH   7  10
ATOM      8  O   UNL     1      50.270   9.123  15.342  0.00  0.00    +0.000 OA
ATOM      9  C   UNL     1      50.511   7.947  15.029  0.00  0.00    +0.000 C 
ATOM     10  N   UNL     1      49.865   7.320  13.999  0.00  0.00    +0.000 N 
ATOM     11  H   UNL     1      49.870   6.301  13.958  0.00  0.00    +0.000 HD
BRANCH   9  12
ATOM     12  C   UNL     1      51.523   7.176  15.735  0.00  0.00    +0.000 A 
ATOM     13  C   UNL     1      52.871   7.479  15.654  0.00  0.00    +0.000 A 
ATOM     14  S   UNL     1      53.844   6.456  16.619  0.00  0.00    +0.000 S 
ATOM     15  C   UNL     1      52.486   5.594  17.178  0.00  0.00    +0.000 A 
ATOM     16  N   UNL     1      52.602   4.581  18.075  0.00  0.00    +0.000 NA
ATOM     17  C   UNL     1      51.479   4.039  18.413  0.00  0.00    +0.000 A 
ATOM     18  N   UNL     1      50.250   4.408  17.941  0.00  0.00    +0.000 N 
ATOM     19  C   UNL     1      50.088   5.375  16.992  0.00  0.00    +0.000 A 
ATOM     20  O   UNL     1      48.979   5.593  16.493  0.00  0.00    +0.000 OA
ATOM     21  C   UNL     1      51.312   6.052  16.607  0.00  0.00    +0.000 A 
ATOM     22  H   UNL     1      49.414   3.916  18.208  0.00  0.00    +0.000 HD
ENDBRANCH   9  12
ENDBRANCH   7  10
ENDBRANCH   1   7
BRANCH   4  23
ATOM     23  C   UNL     1      43.949   4.819  12.839  0.00  0.00    +0.000 C 
BRANCH  23  24
ATOM     24  O   UNL     1      42.875   5.605  13.373  0.00  0.00    +0.000 OA
ATOM     25  H   UNL     1      42.534   5.138  14.154  0.00  0.00    +0.000 HD
ENDBRANCH  23  24
BRANCH  23  26
ATOM     26  C   UNL     1      43.557   4.426  11.393  0.00  0.00    +0.000 C 
BRANCH  26  27
ATOM     27  C   UNL     1      44.584   3.537  10.661  0.00  0.00    +0.000 C 
BRANCH  27  28
ATOM     28  N   UNL     1      44.150   3.061   9.331  0.00  0.00    +0.000 NA
ATOM     29  C   UNL     1      44.603   1.707   8.953  0.00  0.00    +0.000 C 
ATOM     30  C   UNL     1      46.057   1.565   8.436  0.00  0.00    +0.000 C 
ATOM     31  N   UNL     1      46.497   2.593   7.474  0.00  0.00    +0.000 NA
ATOM     32  C   UNL     1      46.048   3.938   7.868  0.00  0.00    +0.000 C 
ATOM     33  C   UNL     1      44.557   4.003   8.266  0.00  0.00    +0.000 C 
ATOM     34  H   UNL     1      46.069   2.377   6.571  0.00  0.00    +0.000 HD
ENDBRANCH  27  28
ENDBRANCH  26  27
ENDBRANCH  23  26
ENDBRANCH   4  23
TORSDOF 8
ENDMDL
MODEL 4
REMARK VINA RESULT:    -6.916      2.907      8.919
REMARK INTER + INTRA:         -10.900
REMARK INTER:                  -9.430
REMARK INTRA:                  -1.470
REMARK UNBOUND:                -0.952
REMARK  Name = 
REMARK  8 active torsions:
REMARK  status: ('A' for Active; 'I' for Inactive)
REMARK    1  A    between atoms: C_2  and  C_21
REMARK    2  A    between atoms: N_3  and  C_4
REMARK    3  A    between atoms: C_4  and  C_5
REMARK    4  A    between atoms: C_8  and  C_9
REMARK    5  A    between atoms: C_9  and  O_10
REMARK    6  A    between atoms: C_9  and  C_11
REMARK    7  A    between atoms: C_11  and  C_12
REMARK    8  A    between atoms: C_12  and  N_13
REMARK                            x       y       z     vdW  Elec       q    Type
REMARK                         _______ _______ _______ _____ _____    ______ ____
ROOT
ATOM      1  C   UNL     1      48.296   8.054  13.101  0.00  0.00    +0.000 A 
ATOM      2  C   UNL     1      47.668   8.609  14.223  0.00  0.00    +0.000 A 
ATOM      3  C   UNL     1      48.343   8.707  15.445  0.00  0.00    +0.000 A 
ATOM      4  C   UNL     1      49.672   8.278  15.558  0.00  0.00    +0.000 A 
ATOM      5  C   UNL     1      50.290   7.727  14.424  0.00  0.00    +0.000 A 
ATOM      6  C   UNL     1      49.622   7.637  13.206  0.00  0.00    +0.000 A 
ENDROOT
BRANCH   1   7
ATOM      7  C   UNL     1      47.534   7.875  11.822  0.00  0.00    +0.000 C 
BRANCH   7  10
ATOM      8  O   UNL     1      44.804   7.537  11.839  0.00  0.00    +0.000 OA
ATOM      9  C   UNL     1      45.519   6.532  11.707  0.00  0.00    +0.000 C 
ATOM     10  N   UNL     1      46.884   6.601  11.724  0.00  0.00    +0.000 N 
ATOM     11  H   UNL     1      47.425   5.831  11.331  0.00  0.00    +0.000 HD
BRANCH   9  12
ATOM     12  C   UNL     1      44.932   5.209  11.553  0.00  0.00    +0.000 A 
ATOM     13  C   UNL     1      44.247   4.582  12.579  0.00  0.00    +0.000 A 
ATOM     14  S   UNL     1      43.609   3.062  12.124  0.00  0.00    +0.000 S 
ATOM     15  C   UNL     1      44.220   3.214  10.541  0.00  0.00    +0.000 A 
ATOM     16  N   UNL     1      44.005   2.261   9.598  0.00  0.00    +0.000 NA
ATOM     17  C   UNL     1      44.518   2.532   8.443  0.00  0.00    +0.000 A 
ATOM     18  N   UNL     1      45.227   3.660   8.138  0.00  0.00    +0.000 N 
ATOM     19  C   UNL     1      45.524   4.614   9.068  0.00  0.00    +0.000 A 
ATOM     20  O   UNL     1      46.276   5.554   8.792  0.00  0.00    +0.000 OA
ATOM     21  C   UNL     1      44.935   4.386  10.374  0.00  0.00    +0.000 A 
ATOM     22  H   UNL     1      45.642   3.792   7.231  0.00  0.00    +0.000 HD
ENDBRANCH   9  12
ENDBRANCH   7  10
ENDBRANCH   1   7
BRANCH   4  23
ATOM     23  C   UNL     1      50.446   8.396  16.852  0.00  0.00    +0.000 C 
BRANCH  23  24
ATOM     24  O   UNL     1      49.634   9.101  17.800  0.00  0.00    +0.000 OA
ATOM     25  H   UNL     1      50.223   9.679  18.315  0.00  0.00    +0.000 HD
ENDBRANCH  23  24
BRANCH  23  26
ATOM     26  C   UNL     1      50.842   7.046  17.500  0.00  0.00    +0.000 C 
BRANCH  26  27
ATOM     27  C   UNL     1      49.655   6.132  17.872  0.00  0.00    +0.000 C 
BRANCH  27  28
ATOM     28  N   UNL     1      49.449   4.988  16.961  0.00  0.00    +0.000 NA
ATOM     29  C   UNL     1      48.134   4.925  16.294  0.00  0.00    +0.000 C 
ATOM     30  C   UNL     1      46.945   4.371  17.120  0.00  0.00    +0.000 C 
ATOM     31  N   UNL     1      47.229   3.162  17.917  0.00  0.00    +0.000 NA
ATOM     32  C   UNL     1      48.538   3.243  18.584  0.00  0.00    +0.000 C 
ATOM     33  C   UNL     1      49.682   3.702  17.653  0.00  0.00    +0.000 C 
ATOM     34  H   UNL     1      47.258   2.367  17.275  0.00  0.00    +0.000 HD
ENDBRANCH  27  28
ENDBRANCH  26  27
ENDBRANCH  23  26
ENDBRANCH   4  23
TORSDOF 8
ENDMDL
MODEL 5
REMARK VINA RESULT:    -6.876      4.851      9.686
REMARK INTER + INTRA:         -10.843
REMARK INTER:                  -9.992
REMARK INTRA:                  -0.851
REMARK UNBOUND:                -0.952
REMARK  Name = 
REMARK  8 active torsions:
REMARK  status: ('A' for Active; 'I' for Inactive)
REMARK    1  A    between atoms: C_2  and  C_21
REMARK    2  A    between atoms: N_3  and  C_4
REMARK    3  A    between atoms: C_4  and  C_5
REMARK    4  A    between atoms: C_8  and  C_9
REMARK    5  A    between atoms: C_9  and  O_10
REMARK    6  A    between atoms: C_9  and  C_11
REMARK    7  A    between atoms: C_11  and  C_12
REMARK    8  A    between atoms: C_12  and  N_13
REMARK                            x       y       z     vdW  Elec       q    Type
REMARK                         _______ _______ _______ _____ _____    ______ ____
ROOT
ATOM      1  C   UNL     1      48.699   3.289  16.985  0.00  0.00    +0.000 A 
ATOM      2  C   UNL     1      49.339   4.441  17.458  0.00  0.00    +0.000 A 
ATOM      3  C   UNL     1      50.686   4.408  17.834  0.00  0.00    +0.000 A 
ATOM      4  C   UNL     1      51.428   3.225  17.713  0.00  0.00    +0.000 A 
ATOM      5  C   UNL     1      50.773   2.078  17.235  0.00  0.00    +0.000 A 
ATOM      6  C   UNL     1      49.434   2.113  16.853  0.00  0.00    +0.000 A 
ENDROOT
BRANCH   1   7
ATOM      7  C   UNL     1      47.233   3.316  16.669  0.00  0.00    +0.000 C 
BRANCH   7  10
ATOM      8  O   UNL     1      47.203   3.147  13.924  0.00  0.00    +0.000 OA
ATOM      9  C   UNL     1      46.843   4.211  14.450  0.00  0.00    +0.000 C 
ATOM     10  N   UNL     1      46.860   4.396  15.805  0.00  0.00    +0.000 N 
ATOM     11  H   UNL     1      46.299   5.146  16.210  0.00  0.00    +0.000 HD
BRANCH   9  12
ATOM     12  C   UNL     1      46.404   5.337  13.640  0.00  0.00    +0.000 A 
ATOM     13  C   UNL     1      47.184   6.466  13.461  0.00  0.00    +0.000 A 
ATOM     14  S   UNL     1      46.463   7.618  12.422  0.00  0.00    +0.000 S 
ATOM     15  C   UNL     1      45.098   6.627  12.175  0.00  0.00    +0.000 A 
ATOM     16  N   UNL     1      44.085   7.000  11.352  0.00  0.00    +0.000 NA
ATOM     17  C   UNL     1      43.132   6.133  11.258  0.00  0.00    +0.000 A 
ATOM     18  N   UNL     1      43.090   4.931  11.907  0.00  0.00    +0.000 N 
ATOM     19  C   UNL     1      44.051   4.541  12.794  0.00  0.00    +0.000 A 
ATOM     20  O   UNL     1      43.918   3.510  13.459  0.00  0.00    +0.000 OA
ATOM     21  C   UNL     1      45.172   5.455  12.906  0.00  0.00    +0.000 A 
ATOM     22  H   UNL     1      42.296   4.318  11.828  0.00  0.00    +0.000 HD
ENDBRANCH   9  12
ENDBRANCH   7  10
ENDBRANCH   1   7
BRANCH   4  23
ATOM     23  C   UNL     1      52.894   3.155  18.078  0.00  0.00    +0.000 C 
BRANCH  23  24
ATOM     24  O   UNL     1      52.995   2.989  19.498  0.00  0.00    +0.000 OA
ATOM     25  H   UNL     1      52.403   2.259  19.749  0.00  0.00    +0.000 HD
ENDBRANCH  23  24
BRANCH  23  26
ATOM     26  C   UNL     1      53.674   1.990  17.421  0.00  0.00    +0.000 C 
BRANCH  26  27
ATOM     27  C   UNL     1      53.924   0.776  18.341  0.00  0.00    +0.000 C 
BRANCH  27  28
ATOM     28  N   UNL     1      55.203   0.075  18.102  0.00  0.00    +0.000 NA
ATOM     29  C   UNL     1      55.506  -0.246  16.693  0.00  0.00    +0.000 C 
ATOM     30  C   UNL     1      54.808  -1.488  16.082  0.00  0.00    +0.000 C 
ATOM     31  N   UNL     1      54.778  -2.689  16.938  0.00  0.00    +0.000 NA
ATOM     32  C   UNL     1      54.464  -2.356  18.336  0.00  0.00    +0.000 C 
ATOM     33  C   UNL     1      55.286  -1.172  18.892  0.00  0.00    +0.000 C 
ATOM     34  H   UNL     1      55.712  -3.105  16.921  0.00  0.00    +0.000 HD
ENDBRANCH  27  28
ENDBRANCH  26  27
ENDBRANCH  23  26
ENDBRANCH   4  23
TORSDOF 8
ENDMDL
MODEL 6
REMARK VINA RESULT:    -6.583      2.742      3.556
REMARK INTER + INTRA:         -10.421
REMARK INTER:                  -8.801
REMARK INTRA:                  -1.619
REMARK UNBOUND:                -0.952
REMARK  Name = 
REMARK  8 active torsions:
REMARK  status: ('A' for Active; 'I' for Inactive)
REMARK    1  A    between atoms: C_2  and  C_21
REMARK    2  A    between atoms: N_3  and  C_4
REMARK    3  A    between atoms: C_4  and  C_5
REMARK    4  A    between atoms: C_8  and  C_9
REMARK    5  A    between atoms: C_9  and  O_10
REMARK    6  A    between atoms: C_9  and  C_11
REMARK    7  A    between atoms: C_11  and  C_12
REMARK    8  A    between atoms: C_12  and  N_13
REMARK                            x       y       z     vdW  Elec       q    Type
REMARK                         _______ _______ _______ _____ _____    ______ ____
ROOT
ATOM      1  C   UNL     1      48.064   8.083  13.375  0.00  0.00    +0.000 A 
ATOM      2  C   UNL     1      48.277   7.175  12.330  0.00  0.00    +0.000 A 
ATOM      3  C   UNL     1      47.233   6.816  11.471  0.00  0.00    +0.000 A 
ATOM      4  C   UNL     1      45.961   7.383  11.623  0.00  0.00    +0.000 A 
ATOM      5  C   UNL     1      45.762   8.294  12.673  0.00  0.00    +0.000 A 
ATOM      6  C   UNL     1      46.803   8.659  13.523  0.00  0.00    +0.000 A 
ENDROOT
BRANCH   1   7
ATOM      7  C   UNL     1      49.167   8.394  14.342  0.00  0.00    +0.000 C 
BRANCH   7  10
ATOM      8  O   UNL     1      48.278   8.705  16.926  0.00  0.00    +0.000 OA
ATOM      9  C   UNL     1      48.814   7.631  16.616  0.00  0.00    +0.000 C 
ATOM     10  N   UNL     1      49.318   7.402  15.365  0.00  0.00    +0.000 N 
ATOM     11  H   UNL     1      49.479   6.441  15.063  0.00  0.00    +0.000 HD
BRANCH   9  12
ATOM     12  C   UNL     1      48.959   6.557  17.587  0.00  0.00    +0.000 A 
ATOM     13  C   UNL     1      49.553   6.753  18.821  0.00  0.00    +0.000 A 
ATOM     14  S   UNL     1      49.550   5.348  19.795  0.00  0.00    +0.000 S 
ATOM     15  C   UNL     1      48.738   4.448  18.597  0.00  0.00    +0.000 A 
ATOM     16  N   UNL     1      48.387   3.152  18.792  0.00  0.00    +0.000 NA
ATOM     17  C   UNL     1      47.764   2.615  17.796  0.00  0.00    +0.000 A 
ATOM     18  N   UNL     1      47.458   3.245  16.623  0.00  0.00    +0.000 N 
ATOM     19  C   UNL     1      47.846   4.526  16.354  0.00  0.00    +0.000 A 
ATOM     20  O   UNL     1      47.668   5.020  15.237  0.00  0.00    +0.000 OA
ATOM     21  C   UNL     1      48.512   5.197  17.455  0.00  0.00    +0.000 A 
ATOM     22  H   UNL     1      47.011   2.758  15.864  0.00  0.00    +0.000 HD
ENDBRANCH   9  12
ENDBRANCH   7  10
ENDBRANCH   1   7
BRANCH   4  23
ATOM     23  C   UNL     1      44.815   7.045  10.696  0.00  0.00    +0.000 C 
BRANCH  23  24
ATOM     24  O   UNL     1      45.226   5.965   9.848  0.00  0.00    +0.000 OA
ATOM     25  H   UNL     1      45.504   6.351   9.000  0.00  0.00    +0.000 HD
ENDBRANCH  23  24
BRANCH  23  26
ATOM     26  C   UNL     1      43.511   6.602  11.406  0.00  0.00    +0.000 C 
BRANCH  26  27
ATOM     27  C   UNL     1      42.964   5.229  10.959  0.00  0.00    +0.000 C 
BRANCH  27  28
ATOM     28  N   UNL     1      42.913   4.209  12.027  0.00  0.00    +0.000 NA
ATOM     29  C   UNL     1      43.403   4.641  13.352  0.00  0.00    +0.000 C 
ATOM     30  C   UNL     1      44.938   4.668  13.566  0.00  0.00    +0.000 C 
ATOM     31  N   UNL     1      45.676   3.500  13.047  0.00  0.00    +0.000 NA
ATOM     32  C   UNL     1      45.185   3.088  11.722  0.00  0.00    +0.000 C 
ATOM     33  C   UNL     1      43.646   2.986  11.635  0.00  0.00    +0.000 C 
ATOM     34  H   UNL     1      45.519   2.722  13.691  0.00  0.00    +0.000 HD
ENDBRANCH  27  28
ENDBRANCH  26  27
ENDBRANCH  23  26
ENDBRANCH   4  23
TORSDOF 8
ENDMDL
MODEL 7
REMARK VINA RESULT:    -6.333      3.074      4.658
REMARK INTER + INTRA:         -10.061
REMARK INTER:                  -8.851
REMARK INTRA:                  -1.210
REMARK UNBOUND:                -0.952
REMARK  Name = 
REMARK  8 active torsions:
REMARK  status: ('A' for Active; 'I' for Inactive)
REMARK    1  A    between atoms: C_2  and  C_21
REMARK    2  A    between atoms: N_3  and  C_4
REMARK    3  A    between atoms: C_4  and  C_5
REMARK    4  A    between atoms: C_8  and  C_9
REMARK    5  A    between atoms: C_9  and  O_10
REMARK    6  A    between atoms: C_9  and  C_11
REMARK    7  A    between atoms: C_11  and  C_12
REMARK    8  A    between atoms: C_12  and  N_13
REMARK                            x       y       z     vdW  Elec       q    Type
REMARK                         _______ _______ _______ _____ _____    ______ ____
ROOT
ATOM      1  C   UNL     1      48.860   7.805  16.064  0.00  0.00    +0.000 A 
ATOM      2  C   UNL     1      48.812   6.631  15.303  0.00  0.00    +0.000 A 
ATOM      3  C   UNL     1      48.154   6.605  14.068  0.00  0.00    +0.000 A 
ATOM      4  C   UNL     1      47.557   7.765  13.557  0.00  0.00    +0.000 A 
ATOM      5  C   UNL     1      47.615   8.937  14.330  0.00  0.00    +0.000 A 
ATOM      6  C   UNL     1      48.278   8.965  15.556  0.00  0.00    +0.000 A 
ENDROOT
BRANCH   1   7
ATOM      7  C   UNL     1      49.492   7.798  17.425  0.00  0.00    +0.000 C 
BRANCH   7  10
ATOM      8  O   UNL     1      49.621   5.948  19.456  0.00  0.00    +0.000 OA
ATOM      9  C   UNL     1      50.501   5.923  18.583  0.00  0.00    +0.000 C 
ATOM     10  N   UNL     1      50.537   6.827  17.557  0.00  0.00    +0.000 N 
ATOM     11  H   UNL     1      51.078   6.607  16.721  0.00  0.00    +0.000 HD
BRANCH   9  12
ATOM     12  C   UNL     1      51.569   4.934  18.622  0.00  0.00    +0.000 A 
ATOM     13  C   UNL     1      52.781   5.182  19.241  0.00  0.00    +0.000 A 
ATOM     14  S   UNL     1      53.841   3.840  19.194  0.00  0.00    +0.000 S 
ATOM     15  C   UNL     1      52.697   2.892  18.360  0.00  0.00    +0.000 A 
ATOM     16  N   UNL     1      52.949   1.601  18.024  0.00  0.00    +0.000 NA
ATOM     17  C   UNL     1      51.976   1.013  17.410  0.00  0.00    +0.000 A 
ATOM     18  N   UNL     1      50.777   1.589  17.095  0.00  0.00    +0.000 N 
ATOM     19  C   UNL     1      50.503   2.900  17.353  0.00  0.00    +0.000 A 
ATOM     20  O   UNL     1      49.462   3.422  16.940  0.00  0.00    +0.000 OA
ATOM     21  C   UNL     1      51.542   3.601  18.084  0.00  0.00    +0.000 A 
ATOM     22  H   UNL     1      50.075   1.092  16.573  0.00  0.00    +0.000 HD
ENDBRANCH   9  12
ENDBRANCH   7  10
ENDBRANCH   1   7
BRANCH   4  23
ATOM     23  C   UNL     1      46.864   7.787  12.213  0.00  0.00    +0.000 C 
BRANCH  23  24
ATOM     24  O   UNL     1      47.248   6.610  11.491  0.00  0.00    +0.000 OA
ATOM     25  H   UNL     1      47.440   5.917  12.146  0.00  0.00    +0.000 HD
ENDBRANCH  23  24
BRANCH  23  26
ATOM     26  C   UNL     1      45.317   7.804  12.278  0.00  0.00    +0.000 C 
BRANCH  26  27
ATOM     27  C   UNL     1      44.622   6.683  11.476  0.00  0.00    +0.000 C 
BRANCH  27  28
ATOM     28  N   UNL     1      43.899   5.693  12.302  0.00  0.00    +0.000 NA
ATOM     29  C   UNL     1      44.739   4.840  13.166  0.00  0.00    +0.000 C 
ATOM     30  C   UNL     1      45.451   3.636  12.497  0.00  0.00    +0.000 C 
ATOM     31  N   UNL     1      44.629   2.849  11.558  0.00  0.00    +0.000 NA
ATOM     32  C   UNL     1      43.805   3.711  10.696  0.00  0.00    +0.000 C 
ATOM     33  C   UNL     1      43.049   4.817  11.467  0.00  0.00    +0.000 C 
ATOM     34  H   UNL     1      43.995   2.269  12.112  0.00  0.00    +0.000 HD
ENDBRANCH  27  28
ENDBRANCH  26  27
ENDBRANCH  23  26
ENDBRANCH   4  23
TORSDOF 8
ENDMDL
MODEL 8
REMARK VINA RESULT:    -6.316      3.990      9.142
REMARK INTER + INTRA:         -10.037
REMARK INTER:                  -9.067
REMARK INTRA:                  -0.969
REMARK UNBOUND:                -0.952
REMARK  Name = 
REMARK  8 active torsions:
REMARK  status: ('A' for Active; 'I' for Inactive)
REMARK    1  A    between atoms: C_2  and  C_21
REMARK    2  A    between atoms: N_3  and  C_4
REMARK    3  A    between atoms: C_4  and  C_5
REMARK    4  A    between atoms: C_8  and  C_9
REMARK    5  A    between atoms: C_9  and  O_10
REMARK    6  A    between atoms: C_9  and  C_11
REMARK    7  A    between atoms: C_11  and  C_12
REMARK    8  A    between atoms: C_12  and  N_13
REMARK                            x       y       z     vdW  Elec       q    Type
REMARK                         _______ _______ _______ _____ _____    ______ ____
ROOT
ATOM      1  C   UNL     1      48.580   3.470  17.115  0.00  0.00    +0.000 A 
ATOM      2  C   UNL     1      49.013   4.585  17.843  0.00  0.00    +0.000 A 
ATOM      3  C   UNL     1      50.314   4.645  18.354  0.00  0.00    +0.000 A 
ATOM      4  C   UNL     1      51.218   3.600  18.118  0.00  0.00    +0.000 A 
ATOM      5  C   UNL     1      50.771   2.489  17.385  0.00  0.00    +0.000 A 
ATOM      6  C   UNL     1      49.479   2.433  16.868  0.00  0.00    +0.000 A 
ENDROOT
BRANCH   1   7
ATOM      7  C   UNL     1      47.158   3.379  16.648  0.00  0.00    +0.000 C 
BRANCH   7  10
ATOM      8  O   UNL     1      47.226   3.180  13.906  0.00  0.00    +0.000 OA
ATOM      9  C   UNL     1      46.819   4.239  14.407  0.00  0.00    +0.000 C 
ATOM     10  N   UNL     1      46.785   4.439  15.759  0.00  0.00    +0.000 N 
ATOM     11  H   UNL     1      46.190   5.177  16.137  0.00  0.00    +0.000 HD
BRANCH   9  12
ATOM     12  C   UNL     1      46.377   5.344  13.570  0.00  0.00    +0.000 A 
ATOM     13  C   UNL     1      47.180   6.440  13.310  0.00  0.00    +0.000 A 
ATOM     14  S   UNL     1      46.446   7.570  12.256  0.00  0.00    +0.000 S 
ATOM     15  C   UNL     1      45.046   6.612  12.109  0.00  0.00    +0.000 A 
ATOM     16  N   UNL     1      44.008   6.981  11.314  0.00  0.00    +0.000 NA
ATOM     17  C   UNL     1      43.028   6.140  11.297  0.00  0.00    +0.000 A 
ATOM     18  N   UNL     1      42.980   4.967  11.997  0.00  0.00    +0.000 N 
ATOM     19  C   UNL     1      43.968   4.585  12.858  0.00  0.00    +0.000 A 
ATOM     20  O   UNL     1      43.835   3.586  13.571  0.00  0.00    +0.000 OA
ATOM     21  C   UNL     1      45.118   5.469  12.884  0.00  0.00    +0.000 A 
ATOM     22  H   UNL     1      42.167   4.375  11.978  0.00  0.00    +0.000 HD
ENDBRANCH   9  12
ENDBRANCH   7  10
ENDBRANCH   1   7
BRANCH   4  23
ATOM     23  C   UNL     1      52.642   3.641  18.626  0.00  0.00    +0.000 C 
BRANCH  23  24
ATOM     24  O   UNL     1      53.389   2.622  17.948  0.00  0.00    +0.000 OA
ATOM     25  H   UNL     1      53.893   3.055  17.237  0.00  0.00    +0.000 HD
ENDBRANCH  23  24
BRANCH  23  26
ATOM     26  C   UNL     1      53.379   4.983  18.394  0.00  0.00    +0.000 C 
BRANCH  26  27
ATOM     27  C   UNL     1      53.441   5.444  16.922  0.00  0.00    +0.000 C 
BRANCH  27  28
ATOM     28  N   UNL     1      54.247   6.660  16.691  0.00  0.00    +0.000 NA
ATOM     29  C   UNL     1      53.511   7.829  16.169  0.00  0.00    +0.000 C 
ATOM     30  C   UNL     1      53.198   7.850  14.651  0.00  0.00    +0.000 C 
ATOM     31  N   UNL     1      54.305   7.442  13.765  0.00  0.00    +0.000 NA
ATOM     32  C   UNL     1      55.022   6.270  14.291  0.00  0.00    +0.000 C 
ATOM     33  C   UNL     1      55.386   6.386  15.789  0.00  0.00    +0.000 C 
ATOM     34  H   UNL     1      54.969   8.217  13.720  0.00  0.00    +0.000 HD
ENDBRANCH  27  28
ENDBRANCH  26  27
ENDBRANCH  23  26
ENDBRANCH   4  23
TORSDOF 8
ENDMDL
MODEL 9
REMARK VINA RESULT:    -5.945      2.493      4.251
REMARK INTER + INTRA:          -9.504
REMARK INTER:                  -8.400
REMARK INTRA:                  -1.104
REMARK UNBOUND:                -0.952
REMARK  Name = 
REMARK  8 active torsions:
REMARK  status: ('A' for Active; 'I' for Inactive)
REMARK    1  A    between atoms: C_2  and  C_21
REMARK    2  A    between atoms: N_3  and  C_4
REMARK    3  A    between atoms: C_4  and  C_5
REMARK    4  A    between atoms: C_8  and  C_9
REMARK    5  A    between atoms: C_9  and  O_10
REMARK    6  A    between atoms: C_9  and  C_11
REMARK    7  A    between atoms: C_11  and  C_12
REMARK    8  A    between atoms: C_12  and  N_13
REMARK                            x       y       z     vdW  Elec       q    Type
REMARK                         _______ _______ _______ _____ _____    ______ ____
ROOT
ATOM      1  C   UNL     1      46.925   5.214  14.078  0.00  0.00    +0.000 A 
ATOM      2  C   UNL     1      46.488   6.230  13.219  0.00  0.00    +0.000 A 
ATOM      3  C   UNL     1      45.623   5.947  12.157  0.00  0.00    +0.000 A 
ATOM      4  C   UNL     1      45.154   4.643  11.951  0.00  0.00    +0.000 A 
ATOM      5  C   UNL     1      45.599   3.633  12.821  0.00  0.00    +0.000 A 
ATOM      6  C   UNL     1      46.453   3.917  13.885  0.00  0.00    +0.000 A 
ENDROOT
BRANCH   1   7
ATOM      7  C   UNL     1      47.920   5.514  15.159  0.00  0.00    +0.000 C 
BRANCH   7  10
ATOM      8  O   UNL     1      50.459   6.270  15.899  0.00  0.00    +0.000 OA
ATOM      9  C   UNL     1      49.683   7.146  15.488  0.00  0.00    +0.000 C 
ATOM     10  N   UNL     1      48.392   6.867  15.133  0.00  0.00    +0.000 N 
ATOM     11  H   UNL     1      47.887   7.526  14.540  0.00  0.00    +0.000 HD
BRANCH   9  12
ATOM     12  C   UNL     1      50.105   8.535  15.387  0.00  0.00    +0.000 A 
ATOM     13  C   UNL     1      50.418   9.294  16.500  0.00  0.00    +0.000 A 
ATOM     14  S   UNL     1      50.937  10.875  16.106  0.00  0.00    +0.000 S 
ATOM     15  C   UNL     1      50.770  10.577  14.437  0.00  0.00    +0.000 A 
ATOM     16  N   UNL     1      51.084  11.516  13.509  0.00  0.00    +0.000 NA
ATOM     17  C   UNL     1      50.919  11.131  12.287  0.00  0.00    +0.000 A 
ATOM     18  N   UNL     1      50.470   9.899  11.900  0.00  0.00    +0.000 N 
ATOM     19  C   UNL     1      50.080   8.945  12.795  0.00  0.00    +0.000 A 
ATOM     20  O   UNL     1      49.558   7.894  12.413  0.00  0.00    +0.000 OA
ATOM     21  C   UNL     1      50.286   9.305  14.186  0.00  0.00    +0.000 A 
ATOM     22  H   UNL     1      50.318   9.674  10.931  0.00  0.00    +0.000 HD
ENDBRANCH   9  12
ENDBRANCH   7  10
ENDBRANCH   1   7
BRANCH   4  23
ATOM     23  C   UNL     1      44.194   4.301  10.834  0.00  0.00    +0.000 C 
BRANCH  23  24
ATOM     24  O   UNL     1      44.444   5.192   9.739  0.00  0.00    +0.000 OA
ATOM     25  H   UNL     1      44.517   4.651   8.935  0.00  0.00    +0.000 HD
ENDBRANCH  23  24
BRANCH  23  26
ATOM     26  C   UNL     1      44.316   2.856  10.289  0.00  0.00    +0.000 C 
BRANCH  26  27
ATOM     27  C   UNL     1      45.631   2.555   9.538  0.00  0.00    +0.000 C 
BRANCH  27  28
ATOM     28  N   UNL     1      45.454   2.095   8.146  0.00  0.00    +0.000 NA
ATOM     29  C   UNL     1      46.451   1.121   7.658  0.00  0.00    +0.000 C 
ATOM     30  C   UNL     1      47.827   1.678   7.210  0.00  0.00    +0.000 C 
ATOM     31  N   UNL     1      47.783   2.898   6.383  0.00  0.00    +0.000 NA
ATOM     32  C   UNL     1      46.794   3.864   6.885  0.00  0.00    +0.000 C 
ATOM     33  C   UNL     1      45.419   3.235   7.205  0.00  0.00    +0.000 C 
ATOM     34  H   UNL     1      47.497   2.624   5.441  0.00  0.00    +0.000 HD
ENDBRANCH  27  28
ENDBRANCH  26  27
ENDBRANCH  23  26
ENDBRANCH   4  23
TORSDOF 8
ENDMDL
