MODEL 1
REMARK VINA RESULT:    -7.920      0.000      0.000
REMARK INTER + INTRA:         -10.274
REMARK INTER:                  -9.772
REMARK INTRA:                  -0.502
REMARK UNBOUND:                -0.502
REMARK  Name = 
REMARK  4 active torsions:
REMARK  status: ('A' for Active; 'I' for Inactive)
REMARK    1  A    between atoms: C_5  and  O_6
REMARK    2  A    between atoms: O_6  and  C_7
REMARK    3  A    between atoms: C_7  and  C_8
REMARK    4  A    between atoms: C_12  and  C_13
REMARK                            x       y       z     vdW  Elec       q    Type
REMARK                         _______ _______ _______ _____ _____    ______ ____
ROOT
ATOM      1  C   UNL     1      44.378   3.303  10.758  0.00  0.00    +0.000 A 
ATOM      2  C   UNL     1      43.405   3.063  11.721  0.00  0.00    +0.000 A 
ATOM      3  N   UNL     1      43.440   3.617  12.950  0.00  0.00    +0.000 NA
ATOM      4  C   UNL     1      44.487   4.448  13.177  0.00  0.00    +0.000 A 
ATOM      5  C   UNL     1      45.479   4.721  12.233  0.00  0.00    +0.000 A 
ATOM      6  N   UNL     1      45.425   4.142  11.003  0.00  0.00    +0.000 NA
ENDROOT
BRANCH   5   7
ATOM      7  C   UNL     1      46.600   5.637  12.490  0.00  0.00    +0.000 A 
ATOM      8  C   UNL     1      46.909   6.701  11.628  0.00  0.00    +0.000 A 
ATOM      9  C   UNL     1      47.947   7.582  11.930  0.00  0.00    +0.000 A 
ATOM     10  C   UNL     1      48.670   7.376  13.089  0.00  0.00    +0.000 A 
ATOM     11  N   UNL     1      48.435   6.358  13.941  0.00  0.00    +0.000 NA
ATOM     12  C   UNL     1      47.419   5.520  13.617  0.00  0.00    +0.000 A 
ENDBRANCH   5   7
BRANCH   1  13
ATOM     13  C   UNL     1      44.291   2.629   9.410  0.00  0.00    +0.000 C 
BRANCH  13  14
ATOM     14  O   UNL     1      45.484   1.877   9.179  0.00  0.00    +0.000 OA
BRANCH  14  19
ATOM     15  C   UNL     1      46.822   3.380   6.068  0.00  0.00    +0.000 A 
ATOM     16  C   UNL     1      47.662   2.333   5.728  0.00  0.00    +0.000 A 
ATOM     17  N   UNL     1      47.782   1.208   6.460  0.00  0.00    +0.000 NA
ATOM     18  C   UNL     1      47.024   1.133   7.582  0.00  0.00    +0.000 A 
ATOM     19  C   UNL     1      46.153   2.127   8.017  0.00  0.00    +0.000 A 
ATOM     20  C   UNL     1      46.054   3.273   7.229  0.00  0.00    +0.000 A 
ENDBRANCH  14  19
ENDBRANCH  13  14
ENDBRANCH   1  13
TORSDOF 4
ENDMDL
MODEL 2
REMARK VINA RESULT:    -7.775      1.261      1.439
REMARK INTER + INTRA:         -10.094
REMARK INTER:                  -9.607
REMARK INTRA:                  -0.487
REMARK UNBOUND:                -0.502
REMARK  Name = 
REMARK  4 active torsions:
REMARK  status: ('A' for Active; 'I' for Inactive)
REMARK    1  A    between atoms: C_5  and  O_6
REMARK    2  A    between atoms: O_6  and  C_7
REMARK    3  A    between atoms: C_7  and  C_8
REMARK    4  A    between atoms: C_12  and  C_13
REMARK                            x       y       z     vdW  Elec       q    Type
REMARK                         _______ _______ _______ _____ _____    ______ ____
ROOT
ATOM      1  C   UNL     1      44.278   4.752  10.464  0.00  0.00    +0.000 A 
ATOM      2  C   UNL     1      43.161   4.881  11.281  0.00  0.00    +0.000 A 
ATOM      3  N   UNL     1      43.212   5.439  12.508  0.00  0.00    +0.000 NA
ATOM      4  C   UNL     1      44.433   5.888  12.886  0.00  0.00    +0.000 A 
ATOM      5  C   UNL     1      45.578   5.784  12.091  0.00  0.00    +0.000 A 
ATOM      6  N   UNL     1      45.501   5.209  10.860  0.00  0.00    +0.000 NA
ENDROOT
BRANCH   5   7
ATOM      7  C   UNL     1      46.893   6.289  12.510  0.00  0.00    +0.000 A 
ATOM      8  C   UNL     1      47.608   7.229  11.751  0.00  0.00    +0.000 A 
ATOM      9  C   UNL     1      48.831   7.727  12.204  0.00  0.00    +0.000 A 
ATOM     10  C   UNL     1      49.324   7.265  13.409  0.00  0.00    +0.000 A 
ATOM     11  N   UNL     1      48.693   6.346  14.167  0.00  0.00    +0.000 NA
ATOM     12  C   UNL     1      47.508   5.883  13.697  0.00  0.00    +0.000 A 
ENDBRANCH   5   7
BRANCH   1  13
ATOM     13  C   UNL     1      44.155   4.093   9.112  0.00  0.00    +0.000 C 
BRANCH  13  14
ATOM     14  O   UNL     1      45.311   4.397   8.330  0.00  0.00    +0.000 OA
BRANCH  14  19
ATOM     15  C   UNL     1      47.431   2.185   6.248  0.00  0.00    +0.000 A 
ATOM     16  C   UNL     1      47.231   1.026   6.981  0.00  0.00    +0.000 A 
ATOM     17  N   UNL     1      46.451   0.967   8.079  0.00  0.00    +0.000 NA
ATOM     18  C   UNL     1      45.849   2.122   8.455  0.00  0.00    +0.000 A 
ATOM     19  C   UNL     1      45.985   3.339   7.794  0.00  0.00    +0.000 A 
ATOM     20  C   UNL     1      46.796   3.357   6.660  0.00  0.00    +0.000 A 
ENDBRANCH  14  19
ENDBRANCH  13  14
ENDBRANCH   1  13
TORSDOF 4
ENDMDL
MODEL 3
REMARK VINA RESULT:    -7.593      1.675      6.029
REMARK INTER + INTRA:          -9.871
REMARK INTER:                  -9.287
REMARK INTRA:                  -0.583
REMARK UNBOUND:                -0.502
REMARK  Name = 
REMARK  4 active torsions:
REMARK  status: ('A' for Active; 'I' for Inactive)
REMARK    1  A    between atoms: C_5  and  O_6
REMARK    2  A    between atoms: O_6  and  C_7
REMARK    3  A    between atoms: C_7  and  C_8
REMARK    4  A    between atoms: C_12  and  C_13
REMARK                            x       y       z     vdW  Elec       q    Type
REMARK                         _______ _______ _______ _____ _____    ______ ____
ROOT
ATOM      1  C   UNL     1      44.082   4.758  10.771  0.00  0.00    +0.000 A 
ATOM      2  C   UNL     1      43.338   3.813  11.468  0.00  0.00    +0.000 A 
ATOM      3  N   UNL     1      43.328   2.505  11.142  0.00  0.00    +0.000 NA
ATOM      4  C   UNL     1      44.115   2.167  10.091  0.00  0.00    +0.000 A 
ATOM      5  C   UNL     1      44.883   3.086   9.371  0.00  0.00    +0.000 A 
ATOM      6  N   UNL     1      44.869   4.402   9.716  0.00  0.00    +0.000 NA
ENDROOT
BRANCH   5   7
ATOM      7  C   UNL     1      45.743   2.701   8.243  0.00  0.00    +0.000 A 
ATOM      8  C   UNL     1      46.058   3.592   7.206  0.00  0.00    +0.000 A 
ATOM      9  C   UNL     1      46.920   3.211   6.177  0.00  0.00    +0.000 A 
ATOM     10  C   UNL     1      47.445   1.933   6.198  0.00  0.00    +0.000 A 
ATOM     11  N   UNL     1      47.159   1.027   7.155  0.00  0.00    +0.000 NA
ATOM     12  C   UNL     1      46.318   1.431   8.139  0.00  0.00    +0.000 A 
ENDBRANCH   5   7
BRANCH   1  13
ATOM     13  C   UNL     1      44.026   6.212  11.174  0.00  0.00    +0.000 C 
BRANCH  13  14
ATOM     14  O   UNL     1      44.584   6.363  12.480  0.00  0.00    +0.000 OA
BRANCH  14  19
ATOM     15  C   UNL     1      48.066   7.583  12.141  0.00  0.00    +0.000 A 
ATOM     16  C   UNL     1      48.660   6.607  12.925  0.00  0.00    +0.000 A 
ATOM     17  N   UNL     1      47.972   5.613  13.521  0.00  0.00    +0.000 NA
ATOM     18  C   UNL     1      46.631   5.600  13.320  0.00  0.00    +0.000 A 
ATOM     19  C   UNL     1      45.936   6.532  12.556  0.00  0.00    +0.000 A 
ATOM     20  C   UNL     1      46.684   7.542  11.953  0.00  0.00    +0.000 A 
ENDBRANCH  14  19
ENDBRANCH  13  14
ENDBRANCH   1  13
TORSDOF 4
ENDMDL
MODEL 4
REMARK VINA RESULT:    -7.514      1.682      2.070
REMARK INTER + INTRA:          -9.773
REMARK INTER:                  -9.346
REMARK INTRA:                  -0.427
REMARK UNBOUND:                -0.502
REMARK  Name = 
REMARK  4 active torsions:
REMARK  status: ('A' for Active; 'I' for Inactive)
REMARK    1  A    between atoms: C_5  and  O_6
REMARK    2  A    between atoms: O_6  and  C_7
REMARK    3  A    between atoms: C_7  and  C_8
REMARK    4  A    between atoms: C_12  and  C_13
REMARK                            x       y       z     vdW  Elec       q    Type
REMARK                         _______ _______ _______ _____ _____    ______ ____
ROOT
ATOM      1  C   UNL     1      44.880   4.373  11.113  0.00  0.00    +0.000 A 
ATOM      2  C   UNL     1      44.897   3.602  12.269  0.00  0.00    +0.000 A 
ATOM      3  N   UNL     1      45.546   3.978  13.390  0.00  0.00    +0.000 NA
ATOM      4  C   UNL     1      46.169   5.180  13.318  0.00  0.00    +0.000 A 
ATOM      5  C   UNL     1      46.168   5.987  12.178  0.00  0.00    +0.000 A 
ATOM      6  N   UNL     1      45.513   5.580  11.057  0.00  0.00    +0.000 NA
ENDROOT
BRANCH   5   7
ATOM      7  C   UNL     1      46.837   7.294  12.121  0.00  0.00    +0.000 A 
ATOM      8  C   UNL     1      48.202   7.423  11.822  0.00  0.00    +0.000 A 
ATOM      9  C   UNL     1      48.794   8.683  11.725  0.00  0.00    +0.000 A 
ATOM     10  C   UNL     1      48.007   9.798  11.942  0.00  0.00    +0.000 A 
ATOM     11  N   UNL     1      46.698   9.734  12.257  0.00  0.00    +0.000 NA
ATOM     12  C   UNL     1      46.155   8.494  12.343  0.00  0.00    +0.000 A 
ENDBRANCH   5   7
BRANCH   1  13
ATOM     13  C   UNL     1      44.156   3.879   9.884  0.00  0.00    +0.000 C 
BRANCH  13  14
ATOM     14  O   UNL     1      44.882   4.267   8.717  0.00  0.00    +0.000 OA
BRANCH  14  19
ATOM     15  C   UNL     1      47.361   2.440   6.658  0.00  0.00    +0.000 A 
ATOM     16  C   UNL     1      47.154   1.191   7.220  0.00  0.00    +0.000 A 
ATOM     17  N   UNL     1      46.261   0.957   8.202  0.00  0.00    +0.000 NA
ATOM     18  C   UNL     1      45.547   2.024   8.637  0.00  0.00    +0.000 A 
ATOM     19  C   UNL     1      45.679   3.319   8.145  0.00  0.00    +0.000 A 
ATOM     20  C   UNL     1      46.610   3.518   7.127  0.00  0.00    +0.000 A 
ENDBRANCH  14  19
ENDBRANCH  13  14
ENDBRANCH   1  13
TORSDOF 4
ENDMDL
MODEL 5
REMARK VINA RESULT:    -6.858      1.957      6.160
REMARK INTER + INTRA:          -8.963
REMARK INTER:                  -8.438
REMARK INTRA:                  -0.525
REMARK UNBOUND:                -0.502
REMARK  Name = 
REMARK  4 active torsions:
REMARK  status: ('A' for Active; 'I' for Inactive)
REMARK    1  A    between atoms: C_5  and  O_6
REMARK    2  A    between atoms: O_6  and  C_7
REMARK    3  A    between atoms: C_7  and  C_8
REMARK    4  A    between atoms: C_12  and  C_13
REMARK                            x       y       z     vdW  Elec       q    Type
REMARK                         _______ _______ _______ _____ _____    ______ ____
ROOT
ATOM      1  C   UNL     1      44.331   4.558  11.953  0.00  0.00    +0.000 A 
ATOM      2  C   UNL     1      43.405   3.610  12.372  0.00  0.00    +0.000 A 
ATOM      3  N   UNL     1      43.134   2.491  11.669  0.00  0.00    +0.000 NA
ATOM      4  C   UNL     1      43.846   2.344  10.525  0.00  0.00    +0.000 A 
ATOM      5  C   UNL     1      44.789   3.270  10.074  0.00  0.00    +0.000 A 
ATOM      6  N   UNL     1      45.039   4.394  10.799  0.00  0.00    +0.000 NA
ENDROOT
BRANCH   5   7
ATOM      7  C   UNL     1      45.564   3.088   8.839  0.00  0.00    +0.000 A 
ATOM      8  C   UNL     1      46.041   1.831   8.434  0.00  0.00    +0.000 A 
ATOM      9  C   UNL     1      46.728   1.685   7.229  0.00  0.00    +0.000 A 
ATOM     10  C   UNL     1      46.938   2.807   6.450  0.00  0.00    +0.000 A 
ATOM     11  N   UNL     1      46.524   4.042   6.799  0.00  0.00    +0.000 NA
ATOM     12  C   UNL     1      45.860   4.148   7.977  0.00  0.00    +0.000 A 
ENDBRANCH   5   7
BRANCH   1  13
ATOM     13  C   UNL     1      44.567   5.801  12.777  0.00  0.00    +0.000 C 
BRANCH  13  14
ATOM     14  O   UNL     1      45.881   5.758  13.333  0.00  0.00    +0.000 OA
BRANCH  14  19
ATOM     15  C   UNL     1      48.892   7.616  12.232  0.00  0.00    +0.000 A 
ATOM     16  C   UNL     1      48.265   8.832  12.016  0.00  0.00    +0.000 A 
ATOM     17  N   UNL     1      46.949   9.036  12.221  0.00  0.00    +0.000 NA
ATOM     18  C   UNL     1      46.233   7.972  12.661  0.00  0.00    +0.000 A 
ATOM     19  C   UNL     1      46.762   6.708  12.906  0.00  0.00    +0.000 A 
ATOM     20  C   UNL     1      48.128   6.540  12.686  0.00  0.00    +0.000 A 
ENDBRANCH  14  19
ENDBRANCH  13  14
ENDBRANCH   1  13
TORSDOF 4
ENDMDL
MODEL 6
REMARK VINA RESULT:    -6.822      1.859      6.485
REMARK INTER + INTRA:          -8.919
REMARK INTER:                  -8.599
REMARK INTRA:                  -0.320
REMARK UNBOUND:                -0.502
REMARK  Name = 
REMARK  4 active torsions:
REMARK  status: ('A' for Active; 'I' for Inactive)
REMARK    1  A    between atoms: C_5  and  O_6
REMARK    2  A    between atoms: O_6  and  C_7
REMARK    3  A    between atoms: C_7  and  C_8
REMARK    4  A    between atoms: C_12  and  C_13
REMARK                            x       y       z     vdW  Elec       q    Type
REMARK                         _______ _______ _______ _____ _____    ______ ____
ROOT
ATOM      1  C   UNL     1      44.602   4.519  11.629  0.00  0.00    +0.000 A 
ATOM      2  C   UNL     1      43.563   3.717  12.087  0.00  0.00    +0.000 A 
ATOM      3  N   UNL     1      43.154   2.608  11.438  0.00  0.00    +0.000 NA
ATOM      4  C   UNL     1      43.844   2.314  10.309  0.00  0.00    +0.000 A 
ATOM      5  C   UNL     1      44.898   3.091   9.820  0.00  0.00    +0.000 A 
ATOM      6  N   UNL     1      45.286   4.209  10.489  0.00  0.00    +0.000 NA
ENDROOT
BRANCH   5   7
ATOM      7  C   UNL     1      45.645   2.750   8.601  0.00  0.00    +0.000 A 
ATOM      8  C   UNL     1      45.959   3.708   7.625  0.00  0.00    +0.000 A 
ATOM      9  C   UNL     1      46.716   3.362   6.505  0.00  0.00    +0.000 A 
ATOM     10  C   UNL     1      47.137   2.053   6.375  0.00  0.00    +0.000 A 
ATOM     11  N   UNL     1      46.845   1.085   7.267  0.00  0.00    +0.000 NA
ATOM     12  C   UNL     1      46.108   1.456   8.343  0.00  0.00    +0.000 A 
ENDBRANCH   5   7
BRANCH   1  13
ATOM     13  C   UNL     1      44.992   5.762  12.391  0.00  0.00    +0.000 C 
BRANCH  13  14
ATOM     14  O   UNL     1      46.416   5.849  12.459  0.00  0.00    +0.000 OA
BRANCH  14  19
ATOM     15  C   UNL     1      48.436   5.984  15.561  0.00  0.00    +0.000 A 
ATOM     16  C   UNL     1      47.935   4.827  16.135  0.00  0.00    +0.000 A 
ATOM     17  N   UNL     1      47.004   4.050  15.547  0.00  0.00    +0.000 NA
ATOM     18  C   UNL     1      46.558   4.454  14.333  0.00  0.00    +0.000 A 
ATOM     19  C   UNL     1      46.991   5.599  13.671  0.00  0.00    +0.000 A 
ATOM     20  C   UNL     1      47.958   6.373  14.309  0.00  0.00    +0.000 A 
ENDBRANCH  14  19
ENDBRANCH  13  14
ENDBRANCH   1  13
TORSDOF 4
ENDMDL
MODEL 7
REMARK VINA RESULT:    -6.520      2.584      6.938
REMARK INTER + INTRA:          -8.546
REMARK INTER:                  -8.177
REMARK INTRA:                  -0.369
REMARK UNBOUND:                -0.502
REMARK  Name = 
REMARK  4 active torsions:
REMARK  status: ('A' for Active; 'I' for Inactive)
REMARK    1  A    between atoms: C_5  and  O_6
REMARK    2  A    between atoms: O_6  and  C_7
REMARK    3  A    between atoms: C_7  and  C_8
REMARK    4  A    between atoms: C_12  and  C_13
REMARK                            x       y       z     vdW  Elec       q    Type
REMARK                         _______ _______ _______ _____ _____    ______ ____
ROOT
ATOM      1  C   UNL     1      45.161   5.078  12.820  0.00  0.00    +0.000 A 
ATOM      2  C   UNL     1      43.840   5.492  12.936  0.00  0.00    +0.000 A 
ATOM      3  N   UNL     1      42.930   5.321  11.955  0.00  0.00    +0.000 NA
ATOM      4  C   UNL     1      43.391   4.693  10.846  0.00  0.00    +0.000 A 
ATOM      5  C   UNL     1      44.709   4.256  10.694  0.00  0.00    +0.000 A 
ATOM      6  N   UNL     1      45.609   4.449  11.695  0.00  0.00    +0.000 NA
ENDROOT
BRANCH   5   7
ATOM      7  C   UNL     1      45.189   3.564   9.489  0.00  0.00    +0.000 A 
ATOM      8  C   UNL     1      45.625   4.260   8.351  0.00  0.00    +0.000 A 
ATOM      9  C   UNL     1      46.125   3.573   7.244  0.00  0.00    +0.000 A 
ATOM     10  C   UNL     1      46.168   2.193   7.291  0.00  0.00    +0.000 A 
ATOM     11  N   UNL     1      45.741   1.471   8.346  0.00  0.00    +0.000 NA
ATOM     12  C   UNL     1      45.261   2.171   9.405  0.00  0.00    +0.000 A 
ENDBRANCH   5   7
BRANCH   1  13
ATOM     13  C   UNL     1      46.134   5.325  13.947  0.00  0.00    +0.000 C 
BRANCH  13  14
ATOM     14  O   UNL     1      46.429   4.089  14.598  0.00  0.00    +0.000 OA
BRANCH  14  19
ATOM     15  C   UNL     1      48.836   3.240  17.284  0.00  0.00    +0.000 A 
ATOM     16  C   UNL     1      49.459   4.475  17.344  0.00  0.00    +0.000 A 
ATOM     17  N   UNL     1      49.114   5.520  16.564  0.00  0.00    +0.000 NA
ATOM     18  C   UNL     1      48.101   5.312  15.688  0.00  0.00    +0.000 A 
ATOM     19  C   UNL     1      47.412   4.111  15.544  0.00  0.00    +0.000 A 
ATOM     20  C   UNL     1      47.795   3.058  16.372  0.00  0.00    +0.000 A 
ENDBRANCH  14  19
ENDBRANCH  13  14
ENDBRANCH   1  13
TORSDOF 4
ENDMDL
MODEL 8
REMARK VINA RESULT:    -6.310      3.037      7.220
REMARK INTER + INTRA:          -8.287
REMARK INTER:                  -7.815
REMARK INTRA:                  -0.473
REMARK UNBOUND:                -0.502
REMARK  Name = 
REMARK  4 active torsions:
REMARK  status: ('A' for Active; 'I' for Inactive)
REMARK    1  A    between atoms: C_5  and  O_6
REMARK    2  A    between atoms: O_6  and  C_7
REMARK    3  A    between atoms: C_7  and  C_8
REMARK    4  A    between atoms: C_12  and  C_13
REMARK                            x       y       z     vdW  Elec       q    Type
REMARK                         _______ _______ _______ _____ _____    ______ ____
ROOT
ATOM      1  C   UNL     1      46.754   6.966  12.941  0.00  0.00    +0.000 A 
ATOM      2  C   UNL     1      46.016   8.142  12.892  0.00  0.00    +0.000 A 
ATOM      3  N   UNL     1      44.990   8.327  12.035  0.00  0.00    +0.000 NA
ATOM      4  C   UNL     1      44.714   7.271  11.232  0.00  0.00    +0.000 A 
ATOM      5  C   UNL     1      45.428   6.070  11.257  0.00  0.00    +0.000 A 
ATOM      6  N   UNL     1      46.463   5.912  12.125  0.00  0.00    +0.000 NA
ENDROOT
BRANCH   5   7
ATOM      7  C   UNL     1      45.106   4.928  10.389  0.00  0.00    +0.000 A 
ATOM      8  C   UNL     1      45.569   4.841   9.067  0.00  0.00    +0.000 A 
ATOM      9  C   UNL     1      45.288   3.718   8.287  0.00  0.00    +0.000 A 
ATOM     10  C   UNL     1      44.535   2.703   8.843  0.00  0.00    +0.000 A 
ATOM     11  N   UNL     1      44.043   2.743  10.097  0.00  0.00    +0.000 NA
ATOM     12  C   UNL     1      44.334   3.848  10.827  0.00  0.00    +0.000 A 
ENDBRANCH   5   7
BRANCH   1  13
ATOM     13  C   UNL     1      47.907   6.835  13.907  0.00  0.00    +0.000 C 
BRANCH  13  14
ATOM     14  O   UNL     1      48.107   5.457  14.223  0.00  0.00    +0.000 OA
BRANCH  14  19
ATOM     15  C   UNL     1      48.342   5.199  17.911  0.00  0.00    +0.000 A 
ATOM     16  C   UNL     1      47.445   4.154  18.061  0.00  0.00    +0.000 A 
ATOM     17  N   UNL     1      46.809   3.567  17.027  0.00  0.00    +0.000 NA
ATOM     18  C   UNL     1      47.087   4.052  15.792  0.00  0.00    +0.000 A 
ATOM     19  C   UNL     1      47.966   5.099  15.532  0.00  0.00    +0.000 A 
ATOM     20  C   UNL     1      48.607   5.675  16.627  0.00  0.00    +0.000 A 
ENDBRANCH  14  19
ENDBRANCH  13  14
ENDBRANCH   1  13
TORSDOF 4
ENDMDL
MODEL 9
REMARK VINA RESULT:    -5.485      4.098      7.510
REMARK INTER + INTRA:          -7.269
REMARK INTER:                  -6.728
REMARK INTRA:                  -0.541
REMARK UNBOUND:                -0.502
REMARK  Name = 
REMARK  4 active torsions:
REMARK  status: ('A' for Active; 'I' for Inactive)
REMARK    1  A    between atoms: C_5  and  O_6
REMARK    2  A    between atoms: O_6  and  C_7
REMARK    3  A    between atoms: C_7  and  C_8
REMARK    4  A    between atoms: C_12  and  C_13
REMARK                            x       y       z     vdW  Elec       q    Type
REMARK                         _______ _______ _______ _____ _____    ______ ____
ROOT
ATOM      1  C   UNL     1      47.675   7.218  13.893  0.00  0.00    +0.000 A 
ATOM      2  C   UNL     1      47.270   8.530  13.683  0.00  0.00    +0.000 A 
ATOM      3  N   UNL     1      46.148   8.851  13.006  0.00  0.00    +0.000 NA
ATOM      4  C   UNL     1      45.426   7.796  12.557  0.00  0.00    +0.000 A 
ATOM      5  C   UNL     1      45.796   6.463  12.753  0.00  0.00    +0.000 A 
ATOM      6  N   UNL     1      46.936   6.167  13.433  0.00  0.00    +0.000 NA
ENDROOT
BRANCH   5   7
ATOM      7  C   UNL     1      44.993   5.329  12.272  0.00  0.00    +0.000 A 
ATOM      8  C   UNL     1      45.340   3.998  12.548  0.00  0.00    +0.000 A 
ATOM      9  C   UNL     1      44.527   2.947  12.120  0.00  0.00    +0.000 A 
ATOM     10  C   UNL     1      43.382   3.249  11.409  0.00  0.00    +0.000 A 
ATOM     11  N   UNL     1      43.012   4.506  11.094  0.00  0.00    +0.000 NA
ATOM     12  C   UNL     1      43.825   5.503  11.525  0.00  0.00    +0.000 A 
ENDBRANCH   5   7
BRANCH   1  13
ATOM     13  C   UNL     1      48.956   6.931  14.637  0.00  0.00    +0.000 C 
BRANCH  13  14
ATOM     14  O   UNL     1      48.662   6.704  16.017  0.00  0.00    +0.000 OA
BRANCH  14  19
ATOM     15  C   UNL     1      47.938   3.183  16.914  0.00  0.00    +0.000 A 
ATOM     16  C   UNL     1      49.197   2.875  17.401  0.00  0.00    +0.000 A 
ATOM     17  N   UNL     1      50.215   3.757  17.441  0.00  0.00    +0.000 NA
ATOM     18  C   UNL     1      49.955   5.002  16.970  0.00  0.00    +0.000 A 
ATOM     19  C   UNL     1      48.729   5.414  16.456  0.00  0.00    +0.000 A 
ATOM     20  C   UNL     1      47.701   4.473  16.437  0.00  0.00    +0.000 A 
ENDBRANCH  14  19
ENDBRANCH  13  14
ENDBRANCH   1  13
TORSDOF 4
ENDMDL
