MODEL 1
REMARK VINA RESULT:    -6.255      0.000      0.000
REMARK INTER + INTRA:          -7.565
REMARK INTER:                  -7.352
REMARK INTRA:                  -0.213
REMARK UNBOUND:                -0.213
REMARK  Name = 
REMARK  4 active torsions:
REMARK  status: ('A' for Active; 'I' for Inactive)
REMARK    1  A    between atoms: C_9  and  C_10
REMARK    2  A    between atoms: C_10  and  O_11
REMARK    3  A    between atoms: C_12  and  C_13
REMARK    4  A    between atoms: C_13  and  O_14
REMARK                            x       y       z     vdW  Elec       q    Type
REMARK                         _______ _______ _______ _____ _____    ______ ____
ROOT
ATOM      1  N   UNL     1      43.847   2.212  12.278  0.00  0.00    +0.000 NA
ATOM      2  C   UNL     1      43.753   3.479  12.045  0.00  0.00    +0.000 C 
ATOM      3  N   UNL     1      43.043   4.257  12.904  0.00  0.00    +0.000 N 
ATOM      4  N   UNL     1      44.296   4.151  10.985  0.00  0.00    +0.000 N 
ATOM      5  C   UNL     1      44.755   5.550  11.037  0.00  0.00    +0.000 C 
ATOM      6  C   UNL     1      45.343   5.913   9.664  0.00  0.00    +0.000 C 
ATOM      7  C   UNL     1      45.626   4.562   9.109  0.00  0.00    +0.000 A 
ATOM      8  C   UNL     1      46.341   4.244   7.966  0.00  0.00    +0.000 A 
ATOM      9  C   UNL     1      46.446   2.897   7.560  0.00  0.00    +0.000 A 
ATOM     10  C   UNL     1      45.808   1.894   8.333  0.00  0.00    +0.000 A 
ATOM     11  C   UNL     1      45.082   2.265   9.493  0.00  0.00    +0.000 A 
ATOM     12  C   UNL     1      44.998   3.592   9.884  0.00  0.00    +0.000 A 
ATOM     13  H   UNL     1      43.373   1.978  13.150  0.00  0.00    +0.000 HD
ATOM     14  H   UNL     1      42.450   3.744  13.540  0.00  0.00    +0.000 HD
ATOM     15  H   UNL     1      42.506   4.970  12.423  0.00  0.00    +0.000 HD
ENDROOT
BRANCH   9  16
ATOM     16  C   UNL     1      47.250   2.629   6.309  0.00  0.00    +0.000 C 
BRANCH  16  17
ATOM     17  O   UNL     1      48.570   2.206   6.641  0.00  0.00    +0.000 OA
ATOM     18  H   UNL     1      48.730   1.365   6.178  0.00  0.00    +0.000 HD
ENDBRANCH  16  17
ENDBRANCH   9  16
BRANCH  10  19
ATOM     19  C   UNL     1      45.819   0.421   7.988  0.00  0.00    +0.000 C 
BRANCH  19  20
ATOM     20  O   UNL     1      47.139  -0.109   7.984  0.00  0.00    +0.000 OA
ATOM     21  H   UNL     1      47.081  -1.064   8.154  0.00  0.00    +0.000 HD
ENDBRANCH  19  20
ENDBRANCH  10  19
TORSDOF 4
ENDMDL
MODEL 2
REMARK VINA RESULT:    -6.230      3.792      5.915
REMARK INTER + INTRA:          -7.535
REMARK INTER:                  -7.265
REMARK INTRA:                  -0.271
REMARK UNBOUND:                -0.213
REMARK  Name = 
REMARK  4 active torsions:
REMARK  status: ('A' for Active; 'I' for Inactive)
REMARK    1  A    between atoms: C_9  and  C_10
REMARK    2  A    between atoms: C_10  and  O_11
REMARK    3  A    between atoms: C_12  and  C_13
REMARK    4  A    between atoms: C_13  and  O_14
REMARK                            x       y       z     vdW  Elec       q    Type
REMARK                         _______ _______ _______ _____ _____    ______ ____
ROOT
ATOM      1  N   UNL     1      47.188   4.764   7.334  0.00  0.00    +0.000 NA
ATOM      2  C   UNL     1      46.536   3.659   7.183  0.00  0.00    +0.000 C 
ATOM      3  N   UNL     1      46.721   2.934   6.049  0.00  0.00    +0.000 N 
ATOM      4  N   UNL     1      45.635   3.123   8.061  0.00  0.00    +0.000 N 
ATOM      5  C   UNL     1      45.409   1.677   8.236  0.00  0.00    +0.000 C 
ATOM      6  C   UNL     1      44.361   1.487   9.345  0.00  0.00    +0.000 C 
ATOM      7  C   UNL     1      44.448   2.796  10.046  0.00  0.00    +0.000 A 
ATOM      8  C   UNL     1      43.872   3.155  11.253  0.00  0.00    +0.000 A 
ATOM      9  C   UNL     1      44.011   4.476  11.728  0.00  0.00    +0.000 A 
ATOM     10  C   UNL     1      44.737   5.414  10.950  0.00  0.00    +0.000 A 
ATOM     11  C   UNL     1      45.305   5.005   9.718  0.00  0.00    +0.000 A 
ATOM     12  C   UNL     1      45.168   3.700   9.271  0.00  0.00    +0.000 A 
ATOM     13  H   UNL     1      47.812   4.915   6.543  0.00  0.00    +0.000 HD
ATOM     14  H   UNL     1      47.187   3.432   5.304  0.00  0.00    +0.000 HD
ATOM     15  H   UNL     1      45.858   2.526   5.707  0.00  0.00    +0.000 HD
ENDROOT
BRANCH   9  16
ATOM     16  C   UNL     1      43.363   4.789  13.057  0.00  0.00    +0.000 C 
BRANCH  16  17
ATOM     17  O   UNL     1      42.222   5.623  12.875  0.00  0.00    +0.000 OA
ATOM     18  H   UNL     1      41.457   5.041  12.730  0.00  0.00    +0.000 HD
ENDBRANCH  16  17
ENDBRANCH   9  16
BRANCH  10  19
ATOM     19  C   UNL     1      44.930   6.865  11.333  0.00  0.00    +0.000 C 
BRANCH  19  20
ATOM     20  O   UNL     1      43.737   7.619  11.156  0.00  0.00    +0.000 OA
ATOM     21  H   UNL     1      43.981   8.490  10.797  0.00  0.00    +0.000 HD
ENDBRANCH  19  20
ENDBRANCH  10  19
TORSDOF 4
ENDMDL
MODEL 3
REMARK VINA RESULT:    -5.994      3.591      4.357
REMARK INTER + INTRA:          -7.259
REMARK INTER:                  -7.161
REMARK INTRA:                  -0.098
REMARK UNBOUND:                -0.213
REMARK  Name = 
REMARK  4 active torsions:
REMARK  status: ('A' for Active; 'I' for Inactive)
REMARK    1  A    between atoms: C_9  and  C_10
REMARK    2  A    between atoms: C_10  and  O_11
REMARK    3  A    between atoms: C_12  and  C_13
REMARK    4  A    between atoms: C_13  and  O_14
REMARK                            x       y       z     vdW  Elec       q    Type
REMARK                         _______ _______ _______ _____ _____    ______ ____
ROOT
ATOM      1  N   UNL     1      46.874   3.687  15.372  0.00  0.00    +0.000 NA
ATOM      2  C   UNL     1      47.264   4.891  15.116  0.00  0.00    +0.000 C 
ATOM      3  N   UNL     1      47.935   5.585  16.073  0.00  0.00    +0.000 N 
ATOM      4  N   UNL     1      47.059   5.580  13.953  0.00  0.00    +0.000 N 
ATOM      5  C   UNL     1      47.986   6.592  13.414  0.00  0.00    +0.000 C 
ATOM      6  C   UNL     1      47.423   7.092  12.074  0.00  0.00    +0.000 C 
ATOM      7  C   UNL     1      46.499   5.980  11.720  0.00  0.00    +0.000 A 
ATOM      8  C   UNL     1      45.840   5.770  10.520  0.00  0.00    +0.000 A 
ATOM      9  C   UNL     1      44.945   4.686  10.395  0.00  0.00    +0.000 A 
ATOM     10  C   UNL     1      44.734   3.836  11.511  0.00  0.00    +0.000 A 
ATOM     11  C   UNL     1      45.425   4.092  12.721  0.00  0.00    +0.000 A 
ATOM     12  C   UNL     1      46.310   5.154  12.824  0.00  0.00    +0.000 A 
ATOM     13  H   UNL     1      47.181   3.407  16.302  0.00  0.00    +0.000 HD
ATOM     14  H   UNL     1      47.879   5.183  16.998  0.00  0.00    +0.000 HD
ATOM     15  H   UNL     1      47.667   6.562  16.100  0.00  0.00    +0.000 HD
ENDROOT
BRANCH   9  16
ATOM     16  C   UNL     1      44.272   4.517   9.053  0.00  0.00    +0.000 C 
BRANCH  16  17
ATOM     17  O   UNL     1      45.232   4.560   8.001  0.00  0.00    +0.000 OA
ATOM     18  H   UNL     1      46.110   4.452   8.405  0.00  0.00    +0.000 HD
ENDBRANCH  16  17
ENDBRANCH   9  16
BRANCH  10  19
ATOM     19  C   UNL     1      43.778   2.664  11.516  0.00  0.00    +0.000 C 
BRANCH  19  20
ATOM     20  O   UNL     1      43.508   2.210  12.837  0.00  0.00    +0.000 OA
ATOM     21  H   UNL     1      43.204   2.971  13.360  0.00  0.00    +0.000 HD
ENDBRANCH  19  20
ENDBRANCH  10  19
TORSDOF 4
ENDMDL
MODEL 4
REMARK VINA RESULT:    -5.706      4.648      6.042
REMARK INTER + INTRA:          -6.920
REMARK INTER:                  -6.802
REMARK INTRA:                  -0.117
REMARK UNBOUND:                -0.213
REMARK  Name = 
REMARK  4 active torsions:
REMARK  status: ('A' for Active; 'I' for Inactive)
REMARK    1  A    between atoms: C_9  and  C_10
REMARK    2  A    between atoms: C_10  and  O_11
REMARK    3  A    between atoms: C_12  and  C_13
REMARK    4  A    between atoms: C_13  and  O_14
REMARK                            x       y       z     vdW  Elec       q    Type
REMARK                         _______ _______ _______ _____ _____    ______ ____
ROOT
ATOM      1  N   UNL     1      44.902   9.621  12.810  0.00  0.00    +0.000 NA
ATOM      2  C   UNL     1      46.119   9.191  12.857  0.00  0.00    +0.000 C 
ATOM      3  N   UNL     1      47.135  10.091  12.912  0.00  0.00    +0.000 N 
ATOM      4  N   UNL     1      46.518   7.883  12.843  0.00  0.00    +0.000 N 
ATOM      5  C   UNL     1      47.724   7.377  13.522  0.00  0.00    +0.000 C 
ATOM      6  C   UNL     1      47.790   5.856  13.310  0.00  0.00    +0.000 C 
ATOM      7  C   UNL     1      46.375   5.554  12.963  0.00  0.00    +0.000 A 
ATOM      8  C   UNL     1      45.774   4.313  12.846  0.00  0.00    +0.000 A 
ATOM      9  C   UNL     1      44.426   4.225  12.439  0.00  0.00    +0.000 A 
ATOM     10  C   UNL     1      43.715   5.419  12.150  0.00  0.00    +0.000 A 
ATOM     11  C   UNL     1      44.372   6.668  12.279  0.00  0.00    +0.000 A 
ATOM     12  C   UNL     1      45.694   6.737  12.691  0.00  0.00    +0.000 A 
ATOM     13  H   UNL     1      44.886  10.639  12.862  0.00  0.00    +0.000 HD
ATOM     14  H   UNL     1      46.869  11.038  12.682  0.00  0.00    +0.000 HD
ATOM     15  H   UNL     1      47.932   9.808  12.353  0.00  0.00    +0.000 HD
ENDROOT
BRANCH   9  16
ATOM     16  C   UNL     1      43.837   2.837  12.343  0.00  0.00    +0.000 C 
BRANCH  16  17
ATOM     17  O   UNL     1      43.887   2.361  11.001  0.00  0.00    +0.000 OA
ATOM     18  H   UNL     1      44.056   1.404  11.038  0.00  0.00    +0.000 HD
ENDBRANCH  16  17
ENDBRANCH   9  16
BRANCH  10  19
ATOM     19  C   UNL     1      42.279   5.458  11.676  0.00  0.00    +0.000 C 
BRANCH  19  20
ATOM     20  O   UNL     1      41.759   6.782  11.682  0.00  0.00    +0.000 OA
ATOM     21  H   UNL     1      42.419   7.367  11.272  0.00  0.00    +0.000 HD
ENDBRANCH  19  20
ENDBRANCH  10  19
TORSDOF 4
ENDMDL
MODEL 5
REMARK VINA RESULT:    -5.621      4.437      5.794
REMARK INTER + INTRA:          -6.820
REMARK INTER:                  -6.721
REMARK INTRA:                  -0.099
REMARK UNBOUND:                -0.213
REMARK  Name = 
REMARK  4 active torsions:
REMARK  status: ('A' for Active; 'I' for Inactive)
REMARK    1  A    between atoms: C_9  and  C_10
REMARK    2  A    between atoms: C_10  and  O_11
REMARK    3  A    between atoms: C_12  and  C_13
REMARK    4  A    between atoms: C_13  and  O_14
REMARK                            x       y       z     vdW  Elec       q    Type
REMARK                         _______ _______ _______ _____ _____    ______ ____
ROOT
ATOM      1  N   UNL     1      45.594   2.846  12.786  0.00  0.00    +0.000 NA
ATOM      2  C   UNL     1      44.557   3.254  12.135  0.00  0.00    +0.000 C 
ATOM      3  N   UNL     1      43.629   2.344  11.736  0.00  0.00    +0.000 N 
ATOM      4  N   UNL     1      44.281   4.543  11.774  0.00  0.00    +0.000 N 
ATOM      5  C   UNL     1      42.920   5.097  11.651  0.00  0.00    +0.000 C 
ATOM      6  C   UNL     1      43.039   6.583  11.278  0.00  0.00    +0.000 C 
ATOM      7  C   UNL     1      44.434   6.874  11.706  0.00  0.00    +0.000 A 
ATOM      8  C   UNL     1      45.058   8.107  11.797  0.00  0.00    +0.000 A 
ATOM      9  C   UNL     1      46.419   8.177  12.162  0.00  0.00    +0.000 A 
ATOM     10  C   UNL     1      47.124   6.973  12.422  0.00  0.00    +0.000 A 
ATOM     11  C   UNL     1      46.447   5.733  12.312  0.00  0.00    +0.000 A 
ATOM     12  C   UNL     1      45.106   5.682  11.963  0.00  0.00    +0.000 A 
ATOM     13  H   UNL     1      45.538   1.841  12.946  0.00  0.00    +0.000 HD
ATOM     14  H   UNL     1      43.937   1.384  11.783  0.00  0.00    +0.000 HD
ATOM     15  H   UNL     1      43.262   2.547  10.813  0.00  0.00    +0.000 HD
ENDROOT
BRANCH   9  16
ATOM     16  C   UNL     1      47.026   9.558  12.248  0.00  0.00    +0.000 C 
BRANCH  16  17
ATOM     17  O   UNL     1      46.016  10.536  12.480  0.00  0.00    +0.000 OA
ATOM     18  H   UNL     1      45.158  10.118  12.291  0.00  0.00    +0.000 HD
ENDBRANCH  16  17
ENDBRANCH   9  16
BRANCH  10  19
ATOM     19  C   UNL     1      48.590   6.911  12.789  0.00  0.00    +0.000 C 
BRANCH  19  20
ATOM     20  O   UNL     1      48.795   6.232  14.022  0.00  0.00    +0.000 OA
ATOM     21  H   UNL     1      47.926   6.074  14.428  0.00  0.00    +0.000 HD
ENDBRANCH  19  20
ENDBRANCH  10  19
TORSDOF 4
ENDMDL
MODEL 6
REMARK VINA RESULT:    -5.611      5.213      6.724
REMARK INTER + INTRA:          -6.809
REMARK INTER:                  -6.688
REMARK INTRA:                  -0.121
REMARK UNBOUND:                -0.213
REMARK  Name = 
REMARK  4 active torsions:
REMARK  status: ('A' for Active; 'I' for Inactive)
REMARK    1  A    between atoms: C_9  and  C_10
REMARK    2  A    between atoms: C_10  and  O_11
REMARK    3  A    between atoms: C_12  and  C_13
REMARK    4  A    between atoms: C_13  and  O_14
REMARK                            x       y       z     vdW  Elec       q    Type
REMARK                         _______ _______ _______ _____ _____    ______ ____
ROOT
ATOM      1  N   UNL     1      43.134   5.488  10.623  0.00  0.00    +0.000 NA
ATOM      2  C   UNL     1      43.589   4.572  11.410  0.00  0.00    +0.000 C 
ATOM      3  N   UNL     1      42.979   3.357  11.431  0.00  0.00    +0.000 N 
ATOM      4  N   UNL     1      44.646   4.692  12.270  0.00  0.00    +0.000 N 
ATOM      5  C   UNL     1      45.542   3.583  12.642  0.00  0.00    +0.000 C 
ATOM      6  C   UNL     1      46.625   4.136  13.582  0.00  0.00    +0.000 C 
ATOM      7  C   UNL     1      46.556   5.590  13.272  0.00  0.00    +0.000 A 
ATOM      8  C   UNL     1      47.428   6.588  13.672  0.00  0.00    +0.000 A 
ATOM      9  C   UNL     1      47.157   7.930  13.332  0.00  0.00    +0.000 A 
ATOM     10  C   UNL     1      45.986   8.229  12.588  0.00  0.00    +0.000 A 
ATOM     11  C   UNL     1      45.119   7.176  12.203  0.00  0.00    +0.000 A 
ATOM     12  C   UNL     1      45.405   5.861  12.537  0.00  0.00    +0.000 A 
ATOM     13  H   UNL     1      42.357   5.126  10.071  0.00  0.00    +0.000 HD
ATOM     14  H   UNL     1      42.070   3.338  10.990  0.00  0.00    +0.000 HD
ATOM     15  H   UNL     1      42.921   2.971  12.366  0.00  0.00    +0.000 HD
ENDROOT
BRANCH   9  16
ATOM     16  C   UNL     1      48.160   8.961  13.796  0.00  0.00    +0.000 C 
BRANCH  16  17
ATOM     17  O   UNL     1      47.808   9.458  15.085  0.00  0.00    +0.000 OA
ATOM     18  H   UNL     1      46.845   9.594  15.091  0.00  0.00    +0.000 HD
ENDBRANCH  16  17
ENDBRANCH   9  16
BRANCH  10  19
ATOM     19  C   UNL     1      45.568   9.626  12.189  0.00  0.00    +0.000 C 
BRANCH  19  20
ATOM     20  O   UNL     1      44.288   9.962  12.713  0.00  0.00    +0.000 OA
ATOM     21  H   UNL     1      44.377  10.078  13.674  0.00  0.00    +0.000 HD
ENDBRANCH  19  20
ENDBRANCH  10  19
TORSDOF 4
ENDMDL
MODEL 7
REMARK VINA RESULT:    -5.592      4.415      5.869
REMARK INTER + INTRA:          -6.785
REMARK INTER:                  -6.667
REMARK INTRA:                  -0.119
REMARK UNBOUND:                -0.213
REMARK  Name = 
REMARK  4 active torsions:
REMARK  status: ('A' for Active; 'I' for Inactive)
REMARK    1  A    between atoms: C_9  and  C_10
REMARK    2  A    between atoms: C_10  and  O_11
REMARK    3  A    between atoms: C_12  and  C_13
REMARK    4  A    between atoms: C_13  and  O_14
REMARK                            x       y       z     vdW  Elec       q    Type
REMARK                         _______ _______ _______ _____ _____    ______ ____
ROOT
ATOM      1  N   UNL     1      44.127   2.545  12.531  0.00  0.00    +0.000 NA
ATOM      2  C   UNL     1      44.401   3.322  11.537  0.00  0.00    +0.000 C 
ATOM      3  N   UNL     1      43.819   3.082  10.332  0.00  0.00    +0.000 N 
ATOM      4  N   UNL     1      45.254   4.391  11.554  0.00  0.00    +0.000 N 
ATOM      5  C   UNL     1      45.088   5.597  10.723  0.00  0.00    +0.000 C 
ATOM      6  C   UNL     1      46.218   6.578  11.072  0.00  0.00    +0.000 C 
ATOM      7  C   UNL     1      46.633   6.072  12.409  0.00  0.00    +0.000 A 
ATOM      8  C   UNL     1      47.492   6.669  13.316  0.00  0.00    +0.000 A 
ATOM      9  C   UNL     1      47.820   5.998  14.513  0.00  0.00    +0.000 A 
ATOM     10  C   UNL     1      47.264   4.716  14.757  0.00  0.00    +0.000 A 
ATOM     11  C   UNL     1      46.393   4.140  13.799  0.00  0.00    +0.000 A 
ATOM     12  C   UNL     1      46.072   4.818  12.632  0.00  0.00    +0.000 A 
ATOM     13  H   UNL     1      43.441   1.845  12.253  0.00  0.00    +0.000 HD
ATOM     14  H   UNL     1      43.389   2.172  10.249  0.00  0.00    +0.000 HD
ATOM     15  H   UNL     1      44.456   3.238   9.559  0.00  0.00    +0.000 HD
ENDROOT
BRANCH   9  16
ATOM     16  C   UNL     1      48.756   6.717  15.457  0.00  0.00    +0.000 C 
BRANCH  16  17
ATOM     17  O   UNL     1      50.102   6.621  14.999  0.00  0.00    +0.000 OA
ATOM     18  H   UNL     1      50.184   5.783  14.513  0.00  0.00    +0.000 HD
ENDBRANCH  16  17
ENDBRANCH   9  16
BRANCH  10  19
ATOM     19  C   UNL     1      47.561   3.882  15.984  0.00  0.00    +0.000 C 
BRANCH  19  20
ATOM     20  O   UNL     1      48.315   2.720  15.660  0.00  0.00    +0.000 OA
ATOM     21  H   UNL     1      49.251   2.977  15.594  0.00  0.00    +0.000 HD
ENDBRANCH  19  20
ENDBRANCH  10  19
TORSDOF 4
ENDMDL
MODEL 8
REMARK VINA RESULT:    -5.384      4.166      6.172
REMARK INTER + INTRA:          -6.541
REMARK INTER:                  -6.270
REMARK INTRA:                  -0.271
REMARK UNBOUND:                -0.213
REMARK  Name = 
REMARK  4 active torsions:
REMARK  status: ('A' for Active; 'I' for Inactive)
REMARK    1  A    between atoms: C_9  and  C_10
REMARK    2  A    between atoms: C_10  and  O_11
REMARK    3  A    between atoms: C_12  and  C_13
REMARK    4  A    between atoms: C_13  and  O_14
REMARK                            x       y       z     vdW  Elec       q    Type
REMARK                         _______ _______ _______ _____ _____    ______ ____
ROOT
ATOM      1  N   UNL     1      45.994   5.327   8.732  0.00  0.00    +0.000 NA
ATOM      2  C   UNL     1      45.085   4.907   9.547  0.00  0.00    +0.000 C 
ATOM      3  N   UNL     1      43.963   4.330   9.042  0.00  0.00    +0.000 N 
ATOM      4  N   UNL     1      45.115   4.994  10.911  0.00  0.00    +0.000 N 
ATOM      5  C   UNL     1      44.491   4.014  11.818  0.00  0.00    +0.000 C 
ATOM      6  C   UNL     1      44.792   4.440  13.264  0.00  0.00    +0.000 C 
ATOM      7  C   UNL     1      45.967   5.330  13.060  0.00  0.00    +0.000 A 
ATOM      8  C   UNL     1      46.803   5.869  14.023  0.00  0.00    +0.000 A 
ATOM      9  C   UNL     1      47.833   6.753  13.638  0.00  0.00    +0.000 A 
ATOM     10  C   UNL     1      47.985   7.077  12.265  0.00  0.00    +0.000 A 
ATOM     11  C   UNL     1      47.102   6.506  11.314  0.00  0.00    +0.000 A 
ATOM     12  C   UNL     1      46.102   5.630  11.708  0.00  0.00    +0.000 A 
ATOM     13  H   UNL     1      45.733   5.113   7.770  0.00  0.00    +0.000 HD
ATOM     14  H   UNL     1      43.824   4.478   8.052  0.00  0.00    +0.000 HD
ATOM     15  H   UNL     1      43.129   4.595   9.554  0.00  0.00    +0.000 HD
ENDROOT
BRANCH   9  16
ATOM     16  C   UNL     1      48.711   7.292  14.744  0.00  0.00    +0.000 C 
BRANCH  16  17
ATOM     17  O   UNL     1      50.009   6.707  14.685  0.00  0.00    +0.000 OA
ATOM     18  H   UNL     1      50.227   6.580  13.746  0.00  0.00    +0.000 HD
ENDBRANCH  16  17
ENDBRANCH   9  16
BRANCH  10  19
ATOM     19  C   UNL     1      49.026   8.034  11.729  0.00  0.00    +0.000 C 
BRANCH  19  20
ATOM     20  O   UNL     1      50.331   7.468  11.769  0.00  0.00    +0.000 OA
ATOM     21  H   UNL     1      50.866   7.991  12.391  0.00  0.00    +0.000 HD
ENDBRANCH  19  20
ENDBRANCH  10  19
TORSDOF 4
ENDMDL
MODEL 9
REMARK VINA RESULT:    -5.015      4.813      5.876
REMARK INTER + INTRA:          -6.108
REMARK INTER:                  -5.995
REMARK INTRA:                  -0.113
REMARK UNBOUND:                -0.213
REMARK  Name = 
REMARK  4 active torsions:
REMARK  status: ('A' for Active; 'I' for Inactive)
REMARK    1  A    between atoms: C_9  and  C_10
REMARK    2  A    between atoms: C_10  and  O_11
REMARK    3  A    between atoms: C_12  and  C_13
REMARK    4  A    between atoms: C_13  and  O_14
REMARK                            x       y       z     vdW  Elec       q    Type
REMARK                         _______ _______ _______ _____ _____    ______ ____
ROOT
ATOM      1  N   UNL     1      48.989   5.840  15.888  0.00  0.00    +0.000 NA
ATOM      2  C   UNL     1      49.319   6.918  15.259  0.00  0.00    +0.000 C 
ATOM      3  N   UNL     1      50.195   7.779  15.842  0.00  0.00    +0.000 N 
ATOM      4  N   UNL     1      48.860   7.317  14.035  0.00  0.00    +0.000 N 
ATOM      5  C   UNL     1      49.647   8.106  13.071  0.00  0.00    +0.000 C 
ATOM      6  C   UNL     1      48.798   8.301  11.804  0.00  0.00    +0.000 C 
ATOM      7  C   UNL     1      47.810   7.198  11.951  0.00  0.00    +0.000 A 
ATOM      8  C   UNL     1      46.894   6.746  11.016  0.00  0.00    +0.000 A 
ATOM      9  C   UNL     1      45.986   5.724  11.365  0.00  0.00    +0.000 A 
ATOM     10  C   UNL     1      46.028   5.185  12.676  0.00  0.00    +0.000 A 
ATOM     11  C   UNL     1      46.979   5.681  13.603  0.00  0.00    +0.000 A 
ATOM     12  C   UNL     1      47.871   6.678  13.240  0.00  0.00    +0.000 A 
ATOM     13  H   UNL     1      49.498   5.774  16.768  0.00  0.00    +0.000 HD
ATOM     14  H   UNL     1      50.348   7.618  16.827  0.00  0.00    +0.000 HD
ATOM     15  H   UNL     1      49.947   8.748  15.681  0.00  0.00    +0.000 HD
ENDROOT
BRANCH   9  16
ATOM     16  C   UNL     1      45.024   5.277  10.288  0.00  0.00    +0.000 C 
BRANCH  16  17
ATOM     17  O   UNL     1      45.579   5.502   8.995  0.00  0.00    +0.000 OA
ATOM     18  H   UNL     1      46.546   5.535   9.096  0.00  0.00    +0.000 HD
ENDBRANCH  16  17
ENDBRANCH   9  16
BRANCH  10  19
ATOM     19  C   UNL     1      45.090   4.112  13.183  0.00  0.00    +0.000 C 
BRANCH  19  20
ATOM     20  O   UNL     1      45.488   2.817  12.748  0.00  0.00    +0.000 OA
ATOM     21  H   UNL     1      46.101   2.925  12.001  0.00  0.00    +0.000 HD
ENDBRANCH  19  20
ENDBRANCH  10  19
TORSDOF 4
ENDMDL
