MODEL 1
REMARK VINA RESULT:    -8.667      0.000      0.000
REMARK INTER + INTRA:         -14.098
REMARK INTER:                 -12.466
REMARK INTRA:                  -1.632
REMARK UNBOUND:                -1.632
REMARK  Name = 
REMARK  8 active torsions:
REMARK  status: ('A' for Active; 'I' for Inactive)
REMARK    1  A    between atoms: C_2  and  C_4
REMARK    2  A    between atoms: N_8  and  C_9
REMARK    3  A    between atoms: C_9  and  C_10
REMARK    4  A    between atoms: C_10  and  C_11
REMARK    5  A    between atoms: C_10  and  C_13
REMARK    6  A    between atoms: C_11  and  O_12
REMARK    7  A    between atoms: C_15  and  C_16
REMARK    8  A    between atoms: C_19  and  C_20
REMARK                            x       y       z     vdW  Elec       q    Type
REMARK                         _______ _______ _______ _____ _____    ______ ____
ROOT
ATOM      1  C   UNL     1      43.808   4.909  12.447  0.00  0.00    +0.000 C 
ENDROOT
BRANCH   1   2
ATOM      2  C   UNL     1      45.194   5.212  13.013  0.00  0.00    +0.000 A 
ATOM      3  C   UNL     1      45.989   6.224  12.474  0.00  0.00    +0.000 A 
ATOM      4  C   UNL     1      47.269   6.483  12.996  0.00  0.00    +0.000 A 
ATOM      5  C   UNL     1      47.694   5.671  14.051  0.00  0.00    +0.000 A 
ATOM      6  C   UNL     1      46.857   4.671  14.519  0.00  0.00    +0.000 A 
ATOM      7  N   UNL     1      45.622   4.432  14.025  0.00  0.00    +0.000 NA
BRANCH   4   8
ATOM      8  C   UNL     1      48.119   7.558  12.434  0.00  0.00    +0.000 A 
ATOM      9  C   UNL     1      47.664   8.886  12.340  0.00  0.00    +0.000 A 
ATOM     10  C   UNL     1      48.453   9.900  11.783  0.00  0.00    +0.000 A 
ATOM     11  C   UNL     1      49.740   9.621  11.314  0.00  0.00    +0.000 A 
ATOM     12  C   UNL     1      50.217   8.308  11.412  0.00  0.00    +0.000 A 
ATOM     13  C   UNL     1      49.418   7.294  11.958  0.00  0.00    +0.000 A 
BRANCH  11  14
ATOM     14  C   UNL     1      50.610  10.697  10.714  0.00  0.00    +0.000 C 
ATOM     15  F   UNL     1      51.656  10.211   9.990  0.00  0.00    +0.000 F 
ATOM     16  F   UNL     1      49.918  11.512   9.872  0.00  0.00    +0.000 F 
ATOM     17  F   UNL     1      51.157  11.512  11.660  0.00  0.00    +0.000 F 
ENDBRANCH  11  14
ENDBRANCH   4   8
ENDBRANCH   1   2
BRANCH   1  18
ATOM     18  C   UNL     1      43.814   5.162  10.923  0.00  0.00    +0.000 C 
BRANCH  18  23
ATOM     19  C   UNL     1      46.670   2.688   7.469  0.00  0.00    +0.000 A 
ATOM     20  C   UNL     1      46.478   4.056   7.633  0.00  0.00    +0.000 A 
ATOM     21  C   UNL     1      45.529   4.507   8.555  0.00  0.00    +0.000 A 
ATOM     22  C   UNL     1      44.801   3.586   9.302  0.00  0.00    +0.000 A 
ATOM     23  N   UNL     1      43.773   3.926  10.157  0.00  0.00    +0.000 N 
ATOM     24  N   UNL     1      45.001   2.260   9.172  0.00  0.00    +0.000 NA
ATOM     25  C   UNL     1      45.909   1.836   8.253  0.00  0.00    +0.000 A 
ATOM     26  H   UNL     1      43.513   3.071  10.645  0.00  0.00    +0.000 HD
BRANCH  19  28
ATOM     27  N   UNL     1      48.076   2.943   5.501  0.00  0.00    +0.000 N 
ATOM     28  C   UNL     1      47.589   2.108   6.468  0.00  0.00    +0.000 C 
ATOM     29  O   UNL     1      47.924   0.932   6.512  0.00  0.00    +0.000 OA
ATOM     30  H   UNL     1      48.766   2.548   4.873  0.00  0.00    +0.000 HD
ATOM     31  H   UNL     1      48.018   3.949   5.560  0.00  0.00    +0.000 HD
ENDBRANCH  19  28
ENDBRANCH  18  23
ENDBRANCH   1  18
BRANCH   1  32
ATOM     32  C   UNL     1      43.374   3.480  12.807  0.00  0.00    +0.000 C 
BRANCH  32  33
ATOM     33  O   UNL     1      44.361   2.502  12.481  0.00  0.00    +0.000 OA
ATOM     34  H   UNL     1      44.138   1.673  12.941  0.00  0.00    +0.000 HD
ENDBRANCH  32  33
ENDBRANCH   1  32
TORSDOF 8
ENDMDL
MODEL 2
REMARK VINA RESULT:    -8.469      3.830      4.976
REMARK INTER + INTRA:         -13.814
REMARK INTER:                 -12.471
REMARK INTRA:                  -1.342
REMARK UNBOUND:                -1.632
REMARK  Name = 
REMARK  8 active torsions:
REMARK  status: ('A' for Active; 'I' for Inactive)
REMARK    1  A    between atoms: C_2  and  C_4
REMARK    2  A    between atoms: N_8  and  C_9
REMARK    3  A    between atoms: C_9  and  C_10
REMARK    4  A    between atoms: C_10  and  C_11
REMARK    5  A    between atoms: C_10  and  C_13
REMARK    6  A    between atoms: C_11  and  O_12
REMARK    7  A    between atoms: C_15  and  C_16
REMARK    8  A    between atoms: C_19  and  C_20
REMARK                            x       y       z     vdW  Elec       q    Type
REMARK                         _______ _______ _______ _____ _____    ______ ____
ROOT
ATOM      1  C   UNL     1      43.780   4.844  12.213  0.00  0.00    +0.000 C 
ENDROOT
BRANCH   1   2
ATOM      2  C   UNL     1      45.198   5.346  12.475  0.00  0.00    +0.000 A 
ATOM      3  C   UNL     1      45.823   5.135  13.705  0.00  0.00    +0.000 A 
ATOM      4  C   UNL     1      47.124   5.616  13.938  0.00  0.00    +0.000 A 
ATOM      5  C   UNL     1      47.731   6.318  12.894  0.00  0.00    +0.000 A 
ATOM      6  C   UNL     1      47.039   6.507  11.709  0.00  0.00    +0.000 A 
ATOM      7  N   UNL     1      45.794   6.034  11.481  0.00  0.00    +0.000 NA
BRANCH   4   8
ATOM      8  C   UNL     1      47.798   5.392  15.238  0.00  0.00    +0.000 A 
ATOM      9  C   UNL     1      47.486   4.288  16.052  0.00  0.00    +0.000 A 
ATOM     10  C   UNL     1      48.101   4.089  17.294  0.00  0.00    +0.000 A 
ATOM     11  C   UNL     1      49.067   4.984  17.760  0.00  0.00    +0.000 A 
ATOM     12  C   UNL     1      49.403   6.082  16.958  0.00  0.00    +0.000 A 
ATOM     13  C   UNL     1      48.775   6.285  15.721  0.00  0.00    +0.000 A 
BRANCH  11  14
ATOM     14  C   UNL     1      49.745   4.788  19.092  0.00  0.00    +0.000 C 
ATOM     15  F   UNL     1      50.096   5.955  19.702  0.00  0.00    +0.000 F 
ATOM     16  F   UNL     1      48.957   4.124  19.982  0.00  0.00    +0.000 F 
ATOM     17  F   UNL     1      50.892   4.060  18.991  0.00  0.00    +0.000 F 
ENDBRANCH  11  14
ENDBRANCH   4   8
ENDBRANCH   1   2
BRANCH   1  18
ATOM     18  C   UNL     1      43.475   4.944  10.702  0.00  0.00    +0.000 C 
BRANCH  18  23
ATOM     19  C   UNL     1      46.696   2.644   7.455  0.00  0.00    +0.000 A 
ATOM     20  C   UNL     1      46.321   3.983   7.521  0.00  0.00    +0.000 A 
ATOM     21  C   UNL     1      45.304   4.365   8.400  0.00  0.00    +0.000 A 
ATOM     22  C   UNL     1      44.692   3.407   9.203  0.00  0.00    +0.000 A 
ATOM     23  N   UNL     1      43.612   3.665  10.023  0.00  0.00    +0.000 N 
ATOM     24  N   UNL     1      45.069   2.115   9.169  0.00  0.00    +0.000 NA
ATOM     25  C   UNL     1      46.041   1.755   8.290  0.00  0.00    +0.000 A 
ATOM     26  H   UNL     1      43.460   2.818  10.568  0.00  0.00    +0.000 HD
BRANCH  19  28
ATOM     27  N   UNL     1      48.007   2.904   5.422  0.00  0.00    +0.000 N 
ATOM     28  C   UNL     1      47.702   2.126   6.504  0.00  0.00    +0.000 C 
ATOM     29  O   UNL     1      48.262   1.054   6.688  0.00  0.00    +0.000 OA
ATOM     30  H   UNL     1      48.755   2.570   4.826  0.00  0.00    +0.000 HD
ATOM     31  H   UNL     1      47.753   3.878   5.353  0.00  0.00    +0.000 HD
ENDBRANCH  19  28
ENDBRANCH  18  23
ENDBRANCH   1  18
BRANCH   1  32
ATOM     32  C   UNL     1      43.597   3.420  12.760  0.00  0.00    +0.000 C 
BRANCH  32  33
ATOM     33  O   UNL     1      44.655   2.541  12.380  0.00  0.00    +0.000 OA
ATOM     34  H   UNL     1      45.448   3.076  12.192  0.00  0.00    +0.000 HD
ENDBRANCH  32  33
ENDBRANCH   1  32
TORSDOF 8
ENDMDL
MODEL 3
REMARK VINA RESULT:    -8.088      4.836      8.030
REMARK INTER + INTRA:         -13.266
REMARK INTER:                 -12.005
REMARK INTRA:                  -1.261
REMARK UNBOUND:                -1.632
REMARK  Name = 
REMARK  8 active torsions:
REMARK  status: ('A' for Active; 'I' for Inactive)
REMARK    1  A    between atoms: C_2  and  C_4
REMARK    2  A    between atoms: N_8  and  C_9
REMARK    3  A    between atoms: C_9  and  C_10
REMARK    4  A    between atoms: C_10  and  C_11
REMARK    5  A    between atoms: C_10  and  C_13
REMARK    6  A    between atoms: C_11  and  O_12
REMARK    7  A    between atoms: C_15  and  C_16
REMARK    8  A    between atoms: C_19  and  C_20
REMARK                            x       y       z     vdW  Elec       q    Type
REMARK                         _______ _______ _______ _____ _____    ______ ____
ROOT
ATOM      1  C   UNL     1      45.688   7.531  13.197  0.00  0.00    +0.000 C 
ENDROOT
BRANCH   1   2
ATOM      2  C   UNL     1      44.935   6.384  12.527  0.00  0.00    +0.000 A 
ATOM      3  C   UNL     1      45.462   5.723  11.417  0.00  0.00    +0.000 A 
ATOM      4  C   UNL     1      44.750   4.678  10.801  0.00  0.00    +0.000 A 
ATOM      5  C   UNL     1      43.503   4.361  11.346  0.00  0.00    +0.000 A 
ATOM      6  C   UNL     1      43.036   5.076  12.436  0.00  0.00    +0.000 A 
ATOM      7  N   UNL     1      43.726   6.072  13.034  0.00  0.00    +0.000 NA
BRANCH   4   8
ATOM      8  C   UNL     1      45.303   3.967   9.625  0.00  0.00    +0.000 A 
ATOM      9  C   UNL     1      45.265   2.565   9.524  0.00  0.00    +0.000 A 
ATOM     10  C   UNL     1      45.812   1.888   8.428  0.00  0.00    +0.000 A 
ATOM     11  C   UNL     1      46.406   2.596   7.380  0.00  0.00    +0.000 A 
ATOM     12  C   UNL     1      46.442   3.994   7.455  0.00  0.00    +0.000 A 
ATOM     13  C   UNL     1      45.904   4.667   8.561  0.00  0.00    +0.000 A 
BRANCH  11  14
ATOM     14  C   UNL     1      46.999   1.889   6.188  0.00  0.00    +0.000 C 
ATOM     15  F   UNL     1      46.819   0.539   6.210  0.00  0.00    +0.000 F 
ATOM     16  F   UNL     1      46.464   2.318   5.012  0.00  0.00    +0.000 F 
ATOM     17  F   UNL     1      48.344   2.084   6.082  0.00  0.00    +0.000 F 
ENDBRANCH  11  14
ENDBRANCH   4   8
ENDBRANCH   1   2
BRANCH   1  18
ATOM     18  C   UNL     1      47.201   7.218  13.194  0.00  0.00    +0.000 C 
BRANCH  18  23
ATOM     19  C   UNL     1      48.680   4.075  16.954  0.00  0.00    +0.000 A 
ATOM     20  C   UNL     1      47.611   3.948  16.072  0.00  0.00    +0.000 A 
ATOM     21  C   UNL     1      47.303   5.009  15.216  0.00  0.00    +0.000 A 
ATOM     22  C   UNL     1      48.073   6.168  15.249  0.00  0.00    +0.000 A 
ATOM     23  N   UNL     1      47.787   7.305  14.522  0.00  0.00    +0.000 N 
ATOM     24  N   UNL     1      49.129   6.288  16.077  0.00  0.00    +0.000 NA
ATOM     25  C   UNL     1      49.400   5.258  16.922  0.00  0.00    +0.000 A 
ATOM     26  H   UNL     1      48.576   7.934  14.654  0.00  0.00    +0.000 HD
BRANCH  19  28
ATOM     27  N   UNL     1      48.349   3.043  19.132  0.00  0.00    +0.000 N 
ATOM     28  C   UNL     1      49.039   3.046  17.952  0.00  0.00    +0.000 C 
ATOM     29  O   UNL     1      49.903   2.209  17.726  0.00  0.00    +0.000 OA
ATOM     30  H   UNL     1      48.553   2.282  19.770  0.00  0.00    +0.000 HD
ATOM     31  H   UNL     1      47.487   3.550  19.268  0.00  0.00    +0.000 HD
ENDBRANCH  19  28
ENDBRANCH  18  23
ENDBRANCH   1  18
BRANCH   1  32
ATOM     32  C   UNL     1      45.360   8.868  12.515  0.00  0.00    +0.000 C 
BRANCH  32  33
ATOM     33  O   UNL     1      44.119   8.841  11.811  0.00  0.00    +0.000 OA
ATOM     34  H   UNL     1      43.406   8.660  12.449  0.00  0.00    +0.000 HD
ENDBRANCH  32  33
ENDBRANCH   1  32
TORSDOF 8
ENDMDL
MODEL 4
REMARK VINA RESULT:    -7.730      2.881      3.682
REMARK INTER + INTRA:         -12.752
REMARK INTER:                 -11.403
REMARK INTRA:                  -1.348
REMARK UNBOUND:                -1.632
REMARK  Name = 
REMARK  8 active torsions:
REMARK  status: ('A' for Active; 'I' for Inactive)
REMARK    1  A    between atoms: C_2  and  C_4
REMARK    2  A    between atoms: N_8  and  C_9
REMARK    3  A    between atoms: C_9  and  C_10
REMARK    4  A    between atoms: C_10  and  C_11
REMARK    5  A    between atoms: C_10  and  C_13
REMARK    6  A    between atoms: C_11  and  O_12
REMARK    7  A    between atoms: C_15  and  C_16
REMARK    8  A    between atoms: C_19  and  C_20
REMARK                            x       y       z     vdW  Elec       q    Type
REMARK                         _______ _______ _______ _____ _____    ______ ____
ROOT
ATOM      1  C   UNL     1      43.818   5.511  12.227  0.00  0.00    +0.000 C 
ENDROOT
BRANCH   1   2
ATOM      2  C   UNL     1      44.846   6.637  12.319  0.00  0.00    +0.000 A 
ATOM      3  C   UNL     1      46.012   6.492  13.072  0.00  0.00    +0.000 A 
ATOM      4  C   UNL     1      46.942   7.542  13.159  0.00  0.00    +0.000 A 
ATOM      5  C   UNL     1      46.628   8.720  12.476  0.00  0.00    +0.000 A 
ATOM      6  C   UNL     1      45.441   8.797  11.766  0.00  0.00    +0.000 A 
ATOM      7  N   UNL     1      44.553   7.783  11.673  0.00  0.00    +0.000 NA
BRANCH   4   8
ATOM      8  C   UNL     1      48.185   7.397  13.953  0.00  0.00    +0.000 A 
ATOM      9  C   UNL     1      49.365   8.081  13.609  0.00  0.00    +0.000 A 
ATOM     10  C   UNL     1      50.549   7.924  14.339  0.00  0.00    +0.000 A 
ATOM     11  C   UNL     1      50.590   7.084  15.456  0.00  0.00    +0.000 A 
ATOM     12  C   UNL     1      49.421   6.405  15.823  0.00  0.00    +0.000 A 
ATOM     13  C   UNL     1      48.241   6.555  15.081  0.00  0.00    +0.000 A 
BRANCH  11  14
ATOM     14  C   UNL     1      51.852   6.902  16.259  0.00  0.00    +0.000 C 
ATOM     15  F   UNL     1      52.052   7.877  17.189  0.00  0.00    +0.000 F 
ATOM     16  F   UNL     1      51.867   5.725  16.942  0.00  0.00    +0.000 F 
ATOM     17  F   UNL     1      52.970   6.897  15.478  0.00  0.00    +0.000 F 
ENDBRANCH  11  14
ENDBRANCH   4   8
ENDBRANCH   1   2
BRANCH   1  18
ATOM     18  C   UNL     1      43.600   5.139  10.744  0.00  0.00    +0.000 C 
BRANCH  18  23
ATOM     19  C   UNL     1      46.504   2.389   7.549  0.00  0.00    +0.000 A 
ATOM     20  C   UNL     1      45.808   1.975   8.681  0.00  0.00    +0.000 A 
ATOM     21  C   UNL     1      45.197   2.933   9.495  0.00  0.00    +0.000 A 
ATOM     22  C   UNL     1      45.282   4.281   9.157  0.00  0.00    +0.000 A 
ATOM     23  N   UNL     1      44.805   5.306   9.948  0.00  0.00    +0.000 N 
ATOM     24  N   UNL     1      45.927   4.688   8.047  0.00  0.00    +0.000 NA
ATOM     25  C   UNL     1      46.538   3.747   7.280  0.00  0.00    +0.000 A 
ATOM     26  H   UNL     1      44.900   6.158   9.399  0.00  0.00    +0.000 HD
BRANCH  19  28
ATOM     27  N   UNL     1      48.201   2.006   5.848  0.00  0.00    +0.000 N 
ATOM     28  C   UNL     1      47.249   1.466   6.668  0.00  0.00    +0.000 C 
ATOM     29  O   UNL     1      47.044   0.260   6.686  0.00  0.00    +0.000 OA
ATOM     30  H   UNL     1      48.756   1.350   5.312  0.00  0.00    +0.000 HD
ATOM     31  H   UNL     1      48.563   2.940   5.965  0.00  0.00    +0.000 HD
ENDBRANCH  19  28
ENDBRANCH  18  23
ENDBRANCH   1  18
BRANCH   1  32
ATOM     32  C   UNL     1      44.251   4.309  13.081  0.00  0.00    +0.000 C 
BRANCH  32  33
ATOM     33  O   UNL     1      43.481   3.137  12.816  0.00  0.00    +0.000 OA
ATOM     34  H   UNL     1      43.629   2.873  11.890  0.00  0.00    +0.000 HD
ENDBRANCH  32  33
ENDBRANCH   1  32
TORSDOF 8
ENDMDL
MODEL 5
REMARK VINA RESULT:    -7.137      4.841      7.637
REMARK INTER + INTRA:         -11.899
REMARK INTER:                 -10.677
REMARK INTRA:                  -1.222
REMARK UNBOUND:                -1.632
REMARK  Name = 
REMARK  8 active torsions:
REMARK  status: ('A' for Active; 'I' for Inactive)
REMARK    1  A    between atoms: C_2  and  C_4
REMARK    2  A    between atoms: N_8  and  C_9
REMARK    3  A    between atoms: C_9  and  C_10
REMARK    4  A    between atoms: C_10  and  C_11
REMARK    5  A    between atoms: C_10  and  C_13
REMARK    6  A    between atoms: C_11  and  O_12
REMARK    7  A    between atoms: C_15  and  C_16
REMARK    8  A    between atoms: C_19  and  C_20
REMARK                            x       y       z     vdW  Elec       q    Type
REMARK                         _______ _______ _______ _____ _____    ______ ____
ROOT
ATOM      1  C   UNL     1      45.217   7.789  12.900  0.00  0.00    +0.000 C 
ENDROOT
BRANCH   1   2
ATOM      2  C   UNL     1      44.648   6.480  12.357  0.00  0.00    +0.000 A 
ATOM      3  C   UNL     1      45.226   5.840  11.259  0.00  0.00    +0.000 A 
ATOM      4  C   UNL     1      44.683   4.643  10.761  0.00  0.00    +0.000 A 
ATOM      5  C   UNL     1      43.545   4.153  11.406  0.00  0.00    +0.000 A 
ATOM      6  C   UNL     1      43.015   4.853  12.477  0.00  0.00    +0.000 A 
ATOM      7  N   UNL     1      43.545   5.998  12.963  0.00  0.00    +0.000 NA
BRANCH   4   8
ATOM      8  C   UNL     1      45.292   3.955   9.599  0.00  0.00    +0.000 A 
ATOM      9  C   UNL     1      45.893   4.670   8.548  0.00  0.00    +0.000 A 
ATOM     10  C   UNL     1      46.444   4.025   7.435  0.00  0.00    +0.000 A 
ATOM     11  C   UNL     1      46.427   2.630   7.342  0.00  0.00    +0.000 A 
ATOM     12  C   UNL     1      45.846   1.899   8.385  0.00  0.00    +0.000 A 
ATOM     13  C   UNL     1      45.284   2.550   9.492  0.00  0.00    +0.000 A 
BRANCH  11  14
ATOM     14  C   UNL     1      47.017   1.913   6.154  0.00  0.00    +0.000 C 
ATOM     15  F   UNL     1      46.502   2.320   4.961  0.00  0.00    +0.000 F 
ATOM     16  F   UNL     1      48.364   2.089   6.059  0.00  0.00    +0.000 F 
ATOM     17  F   UNL     1      46.817   0.566   6.207  0.00  0.00    +0.000 F 
ENDBRANCH  11  14
ENDBRANCH   4   8
ENDBRANCH   1   2
BRANCH   1  18
ATOM     18  C   UNL     1      46.712   7.595  13.234  0.00  0.00    +0.000 C 
BRANCH  18  23
ATOM     19  C   UNL     1      51.020   9.243  11.014  0.00  0.00    +0.000 A 
ATOM     20  C   UNL     1      50.745   8.005  11.588  0.00  0.00    +0.000 A 
ATOM     21  C   UNL     1      49.542   7.824  12.275  0.00  0.00    +0.000 A 
ATOM     22  C   UNL     1      48.634   8.875  12.365  0.00  0.00    +0.000 A 
ATOM     23  N   UNL     1      47.472   8.829  13.108  0.00  0.00    +0.000 N 
ATOM     24  N   UNL     1      48.878  10.067  11.787  0.00  0.00    +0.000 NA
ATOM     25  C   UNL     1      50.064  10.236  11.144  0.00  0.00    +0.000 A 
ATOM     26  H   UNL     1      46.961   9.683  12.891  0.00  0.00    +0.000 HD
BRANCH  19  28
ATOM     27  N   UNL     1      53.170  10.382  10.990  0.00  0.00    +0.000 N 
ATOM     28  C   UNL     1      52.294   9.561  10.336  0.00  0.00    +0.000 C 
ATOM     29  O   UNL     1      52.571   9.091   9.241  0.00  0.00    +0.000 OA
ATOM     30  H   UNL     1      54.070  10.523  10.547  0.00  0.00    +0.000 HD
ATOM     31  H   UNL     1      53.093  10.599  11.973  0.00  0.00    +0.000 HD
ENDBRANCH  19  28
ENDBRANCH  18  23
ENDBRANCH   1  18
BRANCH   1  32
ATOM     32  C   UNL     1      44.976   8.938  11.910  0.00  0.00    +0.000 C 
BRANCH  32  33
ATOM     33  O   UNL     1      44.903  10.213  12.548  0.00  0.00    +0.000 OA
ATOM     34  H   UNL     1      44.104  10.671  12.229  0.00  0.00    +0.000 HD
ENDBRANCH  32  33
ENDBRANCH   1  32
TORSDOF 8
ENDMDL
MODEL 6
REMARK VINA RESULT:    -6.966      6.043      8.073
REMARK INTER + INTRA:         -11.653
REMARK INTER:                 -10.269
REMARK INTRA:                  -1.384
REMARK UNBOUND:                -1.632
REMARK  Name = 
REMARK  8 active torsions:
REMARK  status: ('A' for Active; 'I' for Inactive)
REMARK    1  A    between atoms: C_2  and  C_4
REMARK    2  A    between atoms: N_8  and  C_9
REMARK    3  A    between atoms: C_9  and  C_10
REMARK    4  A    between atoms: C_10  and  C_11
REMARK    5  A    between atoms: C_10  and  C_13
REMARK    6  A    between atoms: C_11  and  O_12
REMARK    7  A    between atoms: C_15  and  C_16
REMARK    8  A    between atoms: C_19  and  C_20
REMARK                            x       y       z     vdW  Elec       q    Type
REMARK                         _______ _______ _______ _____ _____    ______ ____
ROOT
ATOM      1  C   UNL     1      49.115   7.552  15.558  0.00  0.00    +0.000 C 
ENDROOT
BRANCH   1   2
ATOM      2  C   UNL     1      49.137   6.529  16.691  0.00  0.00    +0.000 A 
ATOM      3  C   UNL     1      50.048   5.471  16.692  0.00  0.00    +0.000 A 
ATOM      4  C   UNL     1      50.048   4.527  17.734  0.00  0.00    +0.000 A 
ATOM      5  C   UNL     1      49.091   4.699  18.737  0.00  0.00    +0.000 A 
ATOM      6  C   UNL     1      48.205   5.761  18.658  0.00  0.00    +0.000 A 
ATOM      7  N   UNL     1      48.214   6.674  17.662  0.00  0.00    +0.000 NA
BRANCH   4   8
ATOM      8  C   UNL     1      51.014   3.404  17.747  0.00  0.00    +0.000 A 
ATOM      9  C   UNL     1      50.644   2.107  17.347  0.00  0.00    +0.000 A 
ATOM     10  C   UNL     1      51.546   1.037  17.384  0.00  0.00    +0.000 A 
ATOM     11  C   UNL     1      52.863   1.232  17.810  0.00  0.00    +0.000 A 
ATOM     12  C   UNL     1      53.255   2.520  18.198  0.00  0.00    +0.000 A 
ATOM     13  C   UNL     1      52.344   3.585  18.172  0.00  0.00    +0.000 A 
BRANCH  11  14
ATOM     14  C   UNL     1      53.852   0.096  17.856  0.00  0.00    +0.000 C 
ATOM     15  F   UNL     1      53.436  -0.959  18.610  0.00  0.00    +0.000 F 
ATOM     16  F   UNL     1      54.118  -0.410  16.620  0.00  0.00    +0.000 F 
ATOM     17  F   UNL     1      55.055   0.474  18.373  0.00  0.00    +0.000 F 
ENDBRANCH  11  14
ENDBRANCH   4   8
ENDBRANCH   1   2
BRANCH   1  18
ATOM     18  C   UNL     1      48.588   6.877  14.272  0.00  0.00    +0.000 C 
BRANCH  18  23
ATOM     19  C   UNL     1      44.841   4.668  11.573  0.00  0.00    +0.000 A 
ATOM     20  C   UNL     1      45.519   5.857  11.324  0.00  0.00    +0.000 A 
ATOM     21  C   UNL     1      46.409   6.348  12.283  0.00  0.00    +0.000 A 
ATOM     22  C   UNL     1      46.613   5.638  13.463  0.00  0.00    +0.000 A 
ATOM     23  N   UNL     1      47.388   6.091  14.511  0.00  0.00    +0.000 N 
ATOM     24  N   UNL     1      45.985   4.470  13.698  0.00  0.00    +0.000 NA
ATOM     25  C   UNL     1      45.103   4.019  12.768  0.00  0.00    +0.000 A 
ATOM     26  H   UNL     1      47.448   5.320  15.175  0.00  0.00    +0.000 HD
BRANCH  19  28
ATOM     27  N   UNL     1      43.857   4.503   9.354  0.00  0.00    +0.000 N 
ATOM     28  C   UNL     1      43.822   4.105  10.662  0.00  0.00    +0.000 C 
ATOM     29  O   UNL     1      42.993   3.295  11.051  0.00  0.00    +0.000 OA
ATOM     30  H   UNL     1      43.204   4.046   8.729  0.00  0.00    +0.000 HD
ATOM     31  H   UNL     1      44.649   4.975   8.941  0.00  0.00    +0.000 HD
ENDBRANCH  19  28
ENDBRANCH  18  23
ENDBRANCH   1  18
BRANCH   1  32
ATOM     32  C   UNL     1      48.293   8.787  15.956  0.00  0.00    +0.000 C 
BRANCH  32  33
ATOM     33  O   UNL     1      47.212   9.045  15.061  0.00  0.00    +0.000 OA
ATOM     34  H   UNL     1      46.397   9.154  15.584  0.00  0.00    +0.000 HD
ENDBRANCH  32  33
ENDBRANCH   1  32
TORSDOF 8
ENDMDL
MODEL 7
REMARK VINA RESULT:    -6.846      5.621      8.495
REMARK INTER + INTRA:         -11.480
REMARK INTER:                  -9.278
REMARK INTRA:                  -2.202
REMARK UNBOUND:                -1.632
REMARK  Name = 
REMARK  8 active torsions:
REMARK  status: ('A' for Active; 'I' for Inactive)
REMARK    1  A    between atoms: C_2  and  C_4
REMARK    2  A    between atoms: N_8  and  C_9
REMARK    3  A    between atoms: C_9  and  C_10
REMARK    4  A    between atoms: C_10  and  C_11
REMARK    5  A    between atoms: C_10  and  C_13
REMARK    6  A    between atoms: C_11  and  O_12
REMARK    7  A    between atoms: C_15  and  C_16
REMARK    8  A    between atoms: C_19  and  C_20
REMARK                            x       y       z     vdW  Elec       q    Type
REMARK                         _______ _______ _______ _____ _____    ______ ____
ROOT
ATOM      1  C   UNL     1      49.143   9.448  15.950  0.00  0.00    +0.000 C 
ENDROOT
BRANCH   1   2
ATOM      2  C   UNL     1      49.082   8.777  14.580  0.00  0.00    +0.000 A 
ATOM      3  C   UNL     1      48.079   7.856  14.270  0.00  0.00    +0.000 A 
ATOM      4  C   UNL     1      48.043   7.234  13.010  0.00  0.00    +0.000 A 
ATOM      5  C   UNL     1      49.060   7.572  12.113  0.00  0.00    +0.000 A 
ATOM      6  C   UNL     1      50.034   8.478  12.499  0.00  0.00    +0.000 A 
ATOM      7  N   UNL     1      50.061   9.084  13.706  0.00  0.00    +0.000 NA
BRANCH   4   8
ATOM      8  C   UNL     1      46.980   6.260  12.669  0.00  0.00    +0.000 A 
ATOM      9  C   UNL     1      46.574   5.264  13.575  0.00  0.00    +0.000 A 
ATOM     10  C   UNL     1      45.590   4.324  13.247  0.00  0.00    +0.000 A 
ATOM     11  C   UNL     1      44.962   4.359  11.998  0.00  0.00    +0.000 A 
ATOM     12  C   UNL     1      45.342   5.353  11.088  0.00  0.00    +0.000 A 
ATOM     13  C   UNL     1      46.338   6.284  11.416  0.00  0.00    +0.000 A 
BRANCH  11  14
ATOM     14  C   UNL     1      43.897   3.359  11.624  0.00  0.00    +0.000 C 
ATOM     15  F   UNL     1      44.220   2.600  10.541  0.00  0.00    +0.000 F 
ATOM     16  F   UNL     1      43.634   2.482  12.631  0.00  0.00    +0.000 F 
ATOM     17  F   UNL     1      42.708   3.953  11.323  0.00  0.00    +0.000 F 
ENDBRANCH  11  14
ENDBRANCH   4   8
ENDBRANCH   1   2
BRANCH   1  18
ATOM     18  C   UNL     1      48.392   8.576  16.980  0.00  0.00    +0.000 C 
BRANCH  18  23
ATOM     19  C   UNL     1      49.807   3.657  17.101  0.00  0.00    +0.000 A 
ATOM     20  C   UNL     1      48.561   4.207  16.811  0.00  0.00    +0.000 A 
ATOM     21  C   UNL     1      48.364   5.579  16.986  0.00  0.00    +0.000 A 
ATOM     22  C   UNL     1      49.413   6.376  17.434  0.00  0.00    +0.000 A 
ATOM     23  N   UNL     1      49.289   7.717  17.736  0.00  0.00    +0.000 N 
ATOM     24  N   UNL     1      50.631   5.858  17.687  0.00  0.00    +0.000 NA
ATOM     25  C   UNL     1      50.800   4.518  17.538  0.00  0.00    +0.000 A 
ATOM     26  H   UNL     1      50.231   8.056  17.920  0.00  0.00    +0.000 HD
BRANCH  19  28
ATOM     27  N   UNL     1      50.977   1.694  17.936  0.00  0.00    +0.000 N 
ATOM     28  C   UNL     1      50.096   2.210  17.026  0.00  0.00    +0.000 C 
ATOM     29  O   UNL     1      49.552   1.492  16.199  0.00  0.00    +0.000 OA
ATOM     30  H   UNL     1      51.100   0.689  17.921  0.00  0.00    +0.000 HD
ATOM     31  H   UNL     1      51.263   2.189  18.768  0.00  0.00    +0.000 HD
ENDBRANCH  19  28
ENDBRANCH  18  23
ENDBRANCH   1  18
BRANCH   1  32
ATOM     32  C   UNL     1      50.599   9.722  16.357  0.00  0.00    +0.000 C 
BRANCH  32  33
ATOM     33  O   UNL     1      51.464   8.617  16.095  0.00  0.00    +0.000 OA
ATOM     34  H   UNL     1      51.520   8.072  16.900  0.00  0.00    +0.000 HD
ENDBRANCH  32  33
ENDBRANCH   1  32
TORSDOF 8
ENDMDL
MODEL 8
REMARK VINA RESULT:    -6.280      4.234      5.476
REMARK INTER + INTRA:         -10.666
REMARK INTER:                 -10.075
REMARK INTRA:                  -0.591
REMARK UNBOUND:                -1.632
REMARK  Name = 
REMARK  8 active torsions:
REMARK  status: ('A' for Active; 'I' for Inactive)
REMARK    1  A    between atoms: C_2  and  C_4
REMARK    2  A    between atoms: N_8  and  C_9
REMARK    3  A    between atoms: C_9  and  C_10
REMARK    4  A    between atoms: C_10  and  C_11
REMARK    5  A    between atoms: C_10  and  C_13
REMARK    6  A    between atoms: C_11  and  O_12
REMARK    7  A    between atoms: C_15  and  C_16
REMARK    8  A    between atoms: C_19  and  C_20
REMARK                            x       y       z     vdW  Elec       q    Type
REMARK                         _______ _______ _______ _____ _____    ______ ____
ROOT
ATOM      1  C   UNL     1      44.857   7.171  11.152  0.00  0.00    +0.000 C 
ENDROOT
BRANCH   1   2
ATOM      2  C   UNL     1      46.083   7.439  12.022  0.00  0.00    +0.000 A 
ATOM      3  C   UNL     1      46.421   6.590  13.077  0.00  0.00    +0.000 A 
ATOM      4  C   UNL     1      47.544   6.857  13.879  0.00  0.00    +0.000 A 
ATOM      5  C   UNL     1      48.274   8.009  13.575  0.00  0.00    +0.000 A 
ATOM      6  C   UNL     1      47.866   8.815  12.526  0.00  0.00    +0.000 A 
ATOM      7  N   UNL     1      46.793   8.551  11.747  0.00  0.00    +0.000 NA
BRANCH   4   8
ATOM      8  C   UNL     1      47.913   5.959  14.998  0.00  0.00    +0.000 A 
ATOM      9  C   UNL     1      47.285   4.715  15.185  0.00  0.00    +0.000 A 
ATOM     10  C   UNL     1      47.611   3.876  16.257  0.00  0.00    +0.000 A 
ATOM     11  C   UNL     1      48.596   4.248  17.176  0.00  0.00    +0.000 A 
ATOM     12  C   UNL     1      49.244   5.477  16.999  0.00  0.00    +0.000 A 
ATOM     13  C   UNL     1      48.904   6.319  15.932  0.00  0.00    +0.000 A 
BRANCH  11  14
ATOM     14  C   UNL     1      48.966   3.360  18.337  0.00  0.00    +0.000 C 
ATOM     15  F   UNL     1      47.944   2.568  18.765  0.00  0.00    +0.000 F 
ATOM     16  F   UNL     1      49.992   2.516  18.037  0.00  0.00    +0.000 F 
ATOM     17  F   UNL     1      49.371   4.069  19.428  0.00  0.00    +0.000 F 
ENDBRANCH  11  14
ENDBRANCH   4   8
ENDBRANCH   1   2
BRANCH   1  18
ATOM     18  C   UNL     1      44.081   5.964  11.723  0.00  0.00    +0.000 C 
BRANCH  18  23
ATOM     19  C   UNL     1      46.034   3.302   7.811  0.00  0.00    +0.000 A 
ATOM     20  C   UNL     1      46.407   4.552   8.297  0.00  0.00    +0.000 A 
ATOM     21  C   UNL     1      45.630   5.158   9.288  0.00  0.00    +0.000 A 
ATOM     22  C   UNL     1      44.507   4.501   9.783  0.00  0.00    +0.000 A 
ATOM     23  N   UNL     1      43.622   5.058  10.682  0.00  0.00    +0.000 N 
ATOM     24  N   UNL     1      44.157   3.278   9.341  0.00  0.00    +0.000 NA
ATOM     25  C   UNL     1      44.906   2.713   8.358  0.00  0.00    +0.000 A 
ATOM     26  H   UNL     1      42.978   4.315  10.947  0.00  0.00    +0.000 HD
BRANCH  19  28
ATOM     27  N   UNL     1      47.535   1.549   7.040  0.00  0.00    +0.000 N 
ATOM     28  C   UNL     1      46.740   2.612   6.711  0.00  0.00    +0.000 C 
ATOM     29  O   UNL     1      46.603   2.959   5.546  0.00  0.00    +0.000 OA
ATOM     30  H   UNL     1      47.945   1.040   6.266  0.00  0.00    +0.000 HD
ATOM     31  H   UNL     1      47.495   1.087   7.936  0.00  0.00    +0.000 HD
ENDBRANCH  19  28
ENDBRANCH  18  23
ENDBRANCH   1  18
BRANCH   1  32
ATOM     32  C   UNL     1      43.988   8.431  11.033  0.00  0.00    +0.000 C 
BRANCH  32  33
ATOM     33  O   UNL     1      42.592   8.137  10.969  0.00  0.00    +0.000 OA
ATOM     34  H   UNL     1      42.182   8.401  11.812  0.00  0.00    +0.000 HD
ENDBRANCH  32  33
ENDBRANCH   1  32
TORSDOF 8
ENDMDL
