MODEL 1
REMARK VINA RESULT:    -7.204      0.000      0.000
REMARK INTER + INTRA:          -9.748
REMARK INTER:                  -9.099
REMARK INTRA:                  -0.649
REMARK UNBOUND:                -0.649
REMARK  Name = 
REMARK  5 active torsions:
REMARK  status: ('A' for Active; 'I' for Inactive)
REMARK    1  A    between atoms: N_1  and  C_2
REMARK    2  A    between atoms: C_2  and  C_3
REMARK    3  A    between atoms: C_6  and  C_7
REMARK    4  A    between atoms: C_7  and  N_8
REMARK    5  A    between atoms: C_13  and  C_14
REMARK                            x       y       z     vdW  Elec       q    Type
REMARK                         _______ _______ _______ _____ _____    ______ ____
ROOT
ATOM      1  N   UNL     1      44.596   5.036  10.612  0.00  0.00    +0.000 N 
ATOM      2  C   UNL     1      43.837   4.074  11.237  0.00  0.00    +0.000 A 
ATOM      3  C   UNL     1      44.113   2.862  10.643  0.00  0.00    +0.000 A 
ATOM      4  C   UNL     1      44.990   3.113   9.558  0.00  0.00    +0.000 A 
ATOM      5  C   UNL     1      45.576   2.313   8.564  0.00  0.00    +0.000 A 
ATOM      6  C   UNL     1      46.356   2.945   7.592  0.00  0.00    +0.000 A 
ATOM      7  C   UNL     1      46.534   4.325   7.684  0.00  0.00    +0.000 A 
ATOM      8  N   UNL     1      46.020   5.139   8.646  0.00  0.00    +0.000 NA
ATOM      9  C   UNL     1      45.254   4.481   9.541  0.00  0.00    +0.000 A 
ENDROOT
BRANCH   6  10
ATOM     10  C   UNL     1      46.975   2.212   6.459  0.00  0.00    +0.000 C 
ATOM     11  N   UNL     1      47.356   2.915   5.354  0.00  0.00    +0.000 N 
ATOM     12  O   UNL     1      47.154   1.000   6.513  0.00  0.00    +0.000 OA
ATOM     13  H   UNL     1      47.264   3.911   5.229  0.00  0.00    +0.000 HD
ATOM     14  H   UNL     1      47.795   2.391   4.605  0.00  0.00    +0.000 HD
ENDBRANCH   6  10
BRANCH   1  15
ATOM     15  C   UNL     1      44.674   6.428  11.027  0.00  0.00    +0.000 C 
BRANCH  15  19
ATOM     16  C   UNL     1      47.719   8.498  12.248  0.00  0.00    +0.000 C 
ATOM     17  C   UNL     1      47.793   7.051  11.730  0.00  0.00    +0.000 C 
ATOM     18  C   UNL     1      46.809   6.123  12.441  0.00  0.00    +0.000 C 
ATOM     19  C   UNL     1      45.354   6.631  12.402  0.00  0.00    +0.000 C 
ATOM     20  C   UNL     1      45.270   8.105  12.837  0.00  0.00    +0.000 C 
ATOM     21  C   UNL     1      46.273   9.005  12.112  0.00  0.00    +0.000 C 
BRANCH  16  22
ATOM     22  C   UNL     1      48.215   8.660  13.702  0.00  0.00    +0.000 C 
BRANCH  22  23
ATOM     23  N   UNL     1      48.177  10.045  14.159  0.00  0.00    +0.000 NA
ATOM     24  H   UNL     1      48.765  10.613  13.553  0.00  0.00    +0.000 HD
ATOM     25  H   UNL     1      48.582  10.108  15.092  0.00  0.00    +0.000 HD
ENDBRANCH  22  23
ENDBRANCH  16  22
ENDBRANCH  15  19
ENDBRANCH   1  15
TORSDOF 5
ENDMDL
MODEL 2
REMARK VINA RESULT:    -5.909      4.625      6.122
REMARK INTER + INTRA:          -8.113
REMARK INTER:                  -7.685
REMARK INTRA:                  -0.428
REMARK UNBOUND:                -0.649
REMARK  Name = 
REMARK  5 active torsions:
REMARK  status: ('A' for Active; 'I' for Inactive)
REMARK    1  A    between atoms: N_1  and  C_2
REMARK    2  A    between atoms: C_2  and  C_3
REMARK    3  A    between atoms: C_6  and  C_7
REMARK    4  A    between atoms: C_7  and  N_8
REMARK    5  A    between atoms: C_13  and  C_14
REMARK                            x       y       z     vdW  Elec       q    Type
REMARK                         _______ _______ _______ _____ _____    ______ ____
ROOT
ATOM      1  N   UNL     1      47.415   5.366  14.587  0.00  0.00    +0.000 N 
ATOM      2  C   UNL     1      47.993   6.537  14.154  0.00  0.00    +0.000 A 
ATOM      3  C   UNL     1      47.442   6.857  12.933  0.00  0.00    +0.000 A 
ATOM      4  C   UNL     1      46.580   5.793  12.566  0.00  0.00    +0.000 A 
ATOM      5  C   UNL     1      45.791   5.513  11.439  0.00  0.00    +0.000 A 
ATOM      6  C   UNL     1      45.107   4.295  11.407  0.00  0.00    +0.000 A 
ATOM      7  C   UNL     1      45.222   3.445  12.506  0.00  0.00    +0.000 A 
ATOM      8  N   UNL     1      45.941   3.685  13.636  0.00  0.00    +0.000 NA
ATOM      9  C   UNL     1      46.602   4.861  13.602  0.00  0.00    +0.000 A 
ENDROOT
BRANCH   6  10
ATOM     10  C   UNL     1      44.292   3.863  10.244  0.00  0.00    +0.000 C 
ATOM     11  N   UNL     1      44.176   4.704   9.176  0.00  0.00    +0.000 N 
ATOM     12  O   UNL     1      43.739   2.768  10.231  0.00  0.00    +0.000 OA
ATOM     13  H   UNL     1      44.607   5.612   9.091  0.00  0.00    +0.000 HD
ATOM     14  H   UNL     1      43.630   4.374   8.388  0.00  0.00    +0.000 HD
ENDBRANCH   6  10
BRANCH   1  15
ATOM     15  C   UNL     1      47.647   4.761  15.889  0.00  0.00    +0.000 C 
BRANCH  15  19
ATOM     16  C   UNL     1      48.618   4.741  19.645  0.00  0.00    +0.000 C 
ATOM     17  C   UNL     1      47.604   5.707  19.006  0.00  0.00    +0.000 C 
ATOM     18  C   UNL     1      48.173   6.428  17.785  0.00  0.00    +0.000 C 
ATOM     19  C   UNL     1      48.742   5.470  16.720  0.00  0.00    +0.000 C 
ATOM     20  C   UNL     1      49.696   4.441  17.354  0.00  0.00    +0.000 C 
ATOM     21  C   UNL     1      49.099   3.743  18.579  0.00  0.00    +0.000 C 
BRANCH  16  22
ATOM     22  C   UNL     1      49.821   5.454  20.302  0.00  0.00    +0.000 C 
BRANCH  22  23
ATOM     23  N   UNL     1      50.760   4.522  20.916  0.00  0.00    +0.000 NA
ATOM     24  H   UNL     1      50.632   3.599  20.507  0.00  0.00    +0.000 HD
ATOM     25  H   UNL     1      50.548   4.428  21.909  0.00  0.00    +0.000 HD
ENDBRANCH  22  23
ENDBRANCH  16  22
ENDBRANCH  15  19
ENDBRANCH   1  15
TORSDOF 5
ENDMDL
MODEL 3
REMARK VINA RESULT:    -5.874      4.909      8.339
REMARK INTER + INTRA:          -8.069
REMARK INTER:                  -7.580
REMARK INTRA:                  -0.489
REMARK UNBOUND:                -0.649
REMARK  Name = 
REMARK  5 active torsions:
REMARK  status: ('A' for Active; 'I' for Inactive)
REMARK    1  A    between atoms: N_1  and  C_2
REMARK    2  A    between atoms: C_2  and  C_3
REMARK    3  A    between atoms: C_6  and  C_7
REMARK    4  A    between atoms: C_7  and  N_8
REMARK    5  A    between atoms: C_13  and  C_14
REMARK                            x       y       z     vdW  Elec       q    Type
REMARK                         _______ _______ _______ _____ _____    ______ ____
ROOT
ATOM      1  N   UNL     1      48.140   6.577  14.259  0.00  0.00    +0.000 N 
ATOM      2  C   UNL     1      48.540   7.885  14.405  0.00  0.00    +0.000 A 
ATOM      3  C   UNL     1      49.098   8.023  15.656  0.00  0.00    +0.000 A 
ATOM      4  C   UNL     1      48.939   6.786  16.329  0.00  0.00    +0.000 A 
ATOM      5  C   UNL     1      49.246   6.322  17.618  0.00  0.00    +0.000 A 
ATOM      6  C   UNL     1      48.866   5.020  17.952  0.00  0.00    +0.000 A 
ATOM      7  C   UNL     1      48.236   4.246  16.978  0.00  0.00    +0.000 A 
ATOM      8  N   UNL     1      47.949   4.634  15.705  0.00  0.00    +0.000 NA
ATOM      9  C   UNL     1      48.312   5.908  15.446  0.00  0.00    +0.000 A 
ENDROOT
BRANCH   6  10
ATOM     10  C   UNL     1      49.083   4.442  19.302  0.00  0.00    +0.000 C 
ATOM     11  N   UNL     1      48.375   3.334  19.663  0.00  0.00    +0.000 N 
ATOM     12  O   UNL     1      49.890   4.939  20.080  0.00  0.00    +0.000 OA
ATOM     13  H   UNL     1      47.705   2.849  19.085  0.00  0.00    +0.000 HD
ATOM     14  H   UNL     1      48.559   2.949  20.582  0.00  0.00    +0.000 HD
ENDBRANCH   6  10
BRANCH   1  15
ATOM     15  C   UNL     1      47.609   6.006  13.032  0.00  0.00    +0.000 C 
BRANCH  15  19
ATOM     16  C   UNL     1      44.958   4.172  10.873  0.00  0.00    +0.000 C 
ATOM     17  C   UNL     1      45.677   5.469  10.464  0.00  0.00    +0.000 C 
ATOM     18  C   UNL     1      45.581   6.554  11.535  0.00  0.00    +0.000 C 
ATOM     19  C   UNL     1      46.068   6.088  12.922  0.00  0.00    +0.000 C 
ATOM     20  C   UNL     1      45.422   4.747  13.314  0.00  0.00    +0.000 C 
ATOM     21  C   UNL     1      45.529   3.685  12.216  0.00  0.00    +0.000 C 
BRANCH  16  22
ATOM     22  C   UNL     1      43.422   4.317  10.959  0.00  0.00    +0.000 C 
BRANCH  22  23
ATOM     23  N   UNL     1      42.770   3.111  11.456  0.00  0.00    +0.000 NA
ATOM     24  H   UNL     1      42.963   3.011  12.450  0.00  0.00    +0.000 HD
ATOM     25  H   UNL     1      43.173   2.292  11.002  0.00  0.00    +0.000 HD
ENDBRANCH  22  23
ENDBRANCH  16  22
ENDBRANCH  15  19
ENDBRANCH   1  15
TORSDOF 5
ENDMDL
MODEL 4
REMARK VINA RESULT:    -5.349      3.133      4.465
REMARK INTER + INTRA:          -7.405
REMARK INTER:                  -6.775
REMARK INTRA:                  -0.630
REMARK UNBOUND:                -0.649
REMARK  Name = 
REMARK  5 active torsions:
REMARK  status: ('A' for Active; 'I' for Inactive)
REMARK    1  A    between atoms: N_1  and  C_2
REMARK    2  A    between atoms: C_2  and  C_3
REMARK    3  A    between atoms: C_6  and  C_7
REMARK    4  A    between atoms: C_7  and  N_8
REMARK    5  A    between atoms: C_13  and  C_14
REMARK                            x       y       z     vdW  Elec       q    Type
REMARK                         _______ _______ _______ _____ _____    ______ ____
ROOT
ATOM      1  N   UNL     1      45.631   8.038  12.562  0.00  0.00    +0.000 N 
ATOM      2  C   UNL     1      44.874   8.860  11.760  0.00  0.00    +0.000 A 
ATOM      3  C   UNL     1      43.972   8.074  11.076  0.00  0.00    +0.000 A 
ATOM      4  C   UNL     1      44.258   6.724  11.397  0.00  0.00    +0.000 A 
ATOM      5  C   UNL     1      43.737   5.486  10.990  0.00  0.00    +0.000 A 
ATOM      6  C   UNL     1      44.339   4.328  11.487  0.00  0.00    +0.000 A 
ATOM      7  C   UNL     1      45.399   4.467  12.383  0.00  0.00    +0.000 A 
ATOM      8  N   UNL     1      45.917   5.641  12.838  0.00  0.00    +0.000 NA
ATOM      9  C   UNL     1      45.317   6.726  12.304  0.00  0.00    +0.000 A 
ENDROOT
BRANCH   6  10
ATOM     10  C   UNL     1      43.914   2.965  11.081  0.00  0.00    +0.000 C 
ATOM     11  N   UNL     1      44.588   2.340  10.074  0.00  0.00    +0.000 N 
ATOM     12  O   UNL     1      42.980   2.400  11.643  0.00  0.00    +0.000 OA
ATOM     13  H   UNL     1      45.375   2.718   9.569  0.00  0.00    +0.000 HD
ATOM     14  H   UNL     1      44.290   1.402   9.832  0.00  0.00    +0.000 HD
ENDBRANCH   6  10
BRANCH   1  15
ATOM     15  C   UNL     1      46.616   8.501  13.526  0.00  0.00    +0.000 C 
BRANCH  15  19
ATOM     16  C   UNL     1      50.445   7.874  13.532  0.00  0.00    +0.000 C 
ATOM     17  C   UNL     1      49.694   8.729  14.568  0.00  0.00    +0.000 C 
ATOM     18  C   UNL     1      48.812   9.795  13.920  0.00  0.00    +0.000 C 
ATOM     19  C   UNL     1      47.825   9.223  12.884  0.00  0.00    +0.000 C 
ATOM     20  C   UNL     1      48.544   8.297  11.886  0.00  0.00    +0.000 C 
ATOM     21  C   UNL     1      49.424   7.246  12.567  0.00  0.00    +0.000 C 
BRANCH  16  22
ATOM     22  C   UNL     1      51.520   8.658  12.747  0.00  0.00    +0.000 C 
BRANCH  22  23
ATOM     23  N   UNL     1      52.204   7.836  11.755  0.00  0.00    +0.000 NA
ATOM     24  H   UNL     1      51.842   6.886  11.800  0.00  0.00    +0.000 HD
ATOM     25  H   UNL     1      53.196   7.777  11.985  0.00  0.00    +0.000 HD
ENDBRANCH  22  23
ENDBRANCH  16  22
ENDBRANCH  15  19
ENDBRANCH   1  15
TORSDOF 5
ENDMDL
MODEL 5
REMARK VINA RESULT:    -5.276      3.671      5.651
REMARK INTER + INTRA:          -7.313
REMARK INTER:                  -6.852
REMARK INTRA:                  -0.461
REMARK UNBOUND:                -0.649
REMARK  Name = 
REMARK  5 active torsions:
REMARK  status: ('A' for Active; 'I' for Inactive)
REMARK    1  A    between atoms: N_1  and  C_2
REMARK    2  A    between atoms: C_2  and  C_3
REMARK    3  A    between atoms: C_6  and  C_7
REMARK    4  A    between atoms: C_7  and  N_8
REMARK    5  A    between atoms: C_13  and  C_14
REMARK                            x       y       z     vdW  Elec       q    Type
REMARK                         _______ _______ _______ _____ _____    ______ ____
ROOT
ATOM      1  N   UNL     1      47.877   6.357  13.787  0.00  0.00    +0.000 N 
ATOM      2  C   UNL     1      48.492   7.272  12.964  0.00  0.00    +0.000 A 
ATOM      3  C   UNL     1      47.772   7.340  11.791  0.00  0.00    +0.000 A 
ATOM      4  C   UNL     1      46.750   6.362  11.865  0.00  0.00    +0.000 A 
ATOM      5  C   UNL     1      45.748   5.919  10.986  0.00  0.00    +0.000 A 
ATOM      6  C   UNL     1      44.942   4.855  11.396  0.00  0.00    +0.000 A 
ATOM      7  C   UNL     1      45.156   4.315  12.664  0.00  0.00    +0.000 A 
ATOM      8  N   UNL     1      46.086   4.731  13.567  0.00  0.00    +0.000 NA
ATOM      9  C   UNL     1      46.853   5.742  13.109  0.00  0.00    +0.000 A 
ENDROOT
BRANCH   6  10
ATOM     10  C   UNL     1      43.893   4.263  10.529  0.00  0.00    +0.000 C 
ATOM     11  N   UNL     1      43.944   4.494   9.185  0.00  0.00    +0.000 N 
ATOM     12  O   UNL     1      42.999   3.568  11.002  0.00  0.00    +0.000 OA
ATOM     13  H   UNL     1      44.648   5.036   8.708  0.00  0.00    +0.000 HD
ATOM     14  H   UNL     1      43.227   4.060   8.616  0.00  0.00    +0.000 HD
ENDBRANCH   6  10
BRANCH   1  15
ATOM     15  C   UNL     1      48.268   6.086  15.161  0.00  0.00    +0.000 C 
BRANCH  15  19
ATOM     16  C   UNL     1      49.706   6.761  18.701  0.00  0.00    +0.000 C 
ATOM     17  C   UNL     1      48.428   7.406  18.136  0.00  0.00    +0.000 C 
ATOM     18  C   UNL     1      48.656   8.061  16.775  0.00  0.00    +0.000 C 
ATOM     19  C   UNL     1      49.278   7.108  15.735  0.00  0.00    +0.000 C 
ATOM     20  C   UNL     1      50.512   6.390  16.311  0.00  0.00    +0.000 C 
ATOM     21  C   UNL     1      50.252   5.751  17.677  0.00  0.00    +0.000 C 
BRANCH  16  22
ATOM     22  C   UNL     1      50.796   7.785  19.086  0.00  0.00    +0.000 C 
BRANCH  22  23
ATOM     23  N   UNL     1      50.303   8.820  19.987  0.00  0.00    +0.000 NA
ATOM     24  H   UNL     1      49.749   8.387  20.723  0.00  0.00    +0.000 HD
ATOM     25  H   UNL     1      49.673   9.442  19.482  0.00  0.00    +0.000 HD
ENDBRANCH  22  23
ENDBRANCH  16  22
ENDBRANCH  15  19
ENDBRANCH   1  15
TORSDOF 5
ENDMDL
MODEL 6
REMARK VINA RESULT:    -5.226      2.993      4.490
REMARK INTER + INTRA:          -7.249
REMARK INTER:                  -6.777
REMARK INTRA:                  -0.473
REMARK UNBOUND:                -0.649
REMARK  Name = 
REMARK  5 active torsions:
REMARK  status: ('A' for Active; 'I' for Inactive)
REMARK    1  A    between atoms: N_1  and  C_2
REMARK    2  A    between atoms: C_2  and  C_3
REMARK    3  A    between atoms: C_6  and  C_7
REMARK    4  A    between atoms: C_7  and  N_8
REMARK    5  A    between atoms: C_13  and  C_14
REMARK                            x       y       z     vdW  Elec       q    Type
REMARK                         _______ _______ _______ _____ _____    ______ ____
ROOT
ATOM      1  N   UNL     1      47.071   6.720  13.319  0.00  0.00    +0.000 N 
ATOM      2  C   UNL     1      47.548   6.093  14.446  0.00  0.00    +0.000 A 
ATOM      3  C   UNL     1      47.165   4.771  14.393  0.00  0.00    +0.000 A 
ATOM      4  C   UNL     1      46.344   4.614  13.249  0.00  0.00    +0.000 A 
ATOM      5  C   UNL     1      45.625   3.543  12.695  0.00  0.00    +0.000 A 
ATOM      6  C   UNL     1      44.850   3.793  11.560  0.00  0.00    +0.000 A 
ATOM      7  C   UNL     1      44.862   5.081  11.024  0.00  0.00    +0.000 A 
ATOM      8  N   UNL     1      45.569   6.142  11.498  0.00  0.00    +0.000 NA
ATOM      9  C   UNL     1      46.276   5.851  12.610  0.00  0.00    +0.000 A 
ENDROOT
BRANCH   6  10
ATOM     10  C   UNL     1      44.002   2.755  10.923  0.00  0.00    +0.000 C 
ATOM     11  N   UNL     1      44.429   2.178   9.763  0.00  0.00    +0.000 N 
ATOM     12  O   UNL     1      42.939   2.408  11.430  0.00  0.00    +0.000 OA
ATOM     13  H   UNL     1      45.292   2.387   9.285  0.00  0.00    +0.000 HD
ATOM     14  H   UNL     1      43.839   1.458   9.362  0.00  0.00    +0.000 HD
ENDBRANCH   6  10
BRANCH   1  15
ATOM     15  C   UNL     1      47.363   8.096  12.950  0.00  0.00    +0.000 C 
BRANCH  15  19
ATOM     16  C   UNL     1      50.927   9.585  12.595  0.00  0.00    +0.000 C 
ATOM     17  C   UNL     1      49.623  10.374  12.388  0.00  0.00    +0.000 C 
ATOM     18  C   UNL     1      48.675   9.691  11.404  0.00  0.00    +0.000 C 
ATOM     19  C   UNL     1      48.361   8.227  11.775  0.00  0.00    +0.000 C 
ATOM     20  C   UNL     1      49.652   7.441  12.067  0.00  0.00    +0.000 C 
ATOM     21  C   UNL     1      50.582   8.157  13.050  0.00  0.00    +0.000 C 
BRANCH  16  22
ATOM     22  C   UNL     1      51.833   9.550  11.344  0.00  0.00    +0.000 C 
BRANCH  22  23
ATOM     23  N   UNL     1      52.840  10.606  11.348  0.00  0.00    +0.000 NA
ATOM     24  H   UNL     1      52.633  11.269  10.605  0.00  0.00    +0.000 HD
ATOM     25  H   UNL     1      53.754  10.208  11.132  0.00  0.00    +0.000 HD
ENDBRANCH  22  23
ENDBRANCH  16  22
ENDBRANCH  15  19
ENDBRANCH   1  15
TORSDOF 5
ENDMDL
MODEL 7
REMARK VINA RESULT:    -5.112      4.346      7.942
REMARK INTER + INTRA:          -7.105
REMARK INTER:                  -6.582
REMARK INTRA:                  -0.523
REMARK UNBOUND:                -0.649
REMARK  Name = 
REMARK  5 active torsions:
REMARK  status: ('A' for Active; 'I' for Inactive)
REMARK    1  A    between atoms: N_1  and  C_2
REMARK    2  A    between atoms: C_2  and  C_3
REMARK    3  A    between atoms: C_6  and  C_7
REMARK    4  A    between atoms: C_7  and  N_8
REMARK    5  A    between atoms: C_13  and  C_14
REMARK                            x       y       z     vdW  Elec       q    Type
REMARK                         _______ _______ _______ _____ _____    ______ ____
ROOT
ATOM      1  N   UNL     1      47.736   7.443  13.182  0.00  0.00    +0.000 N 
ATOM      2  C   UNL     1      48.471   8.314  12.412  0.00  0.00    +0.000 A 
ATOM      3  C   UNL     1      49.737   8.393  12.950  0.00  0.00    +0.000 A 
ATOM      4  C   UNL     1      49.739   7.627  14.141  0.00  0.00    +0.000 A 
ATOM      5  C   UNL     1      50.691   7.365  15.139  0.00  0.00    +0.000 A 
ATOM      6  C   UNL     1      50.296   6.591  16.233  0.00  0.00    +0.000 A 
ATOM      7  C   UNL     1      48.992   6.098  16.256  0.00  0.00    +0.000 A 
ATOM      8  N   UNL     1      48.044   6.290  15.299  0.00  0.00    +0.000 NA
ATOM      9  C   UNL     1      48.470   7.066  14.280  0.00  0.00    +0.000 A 
ENDROOT
BRANCH   6  10
ATOM     10  C   UNL     1      51.197   6.300  17.376  0.00  0.00    +0.000 C 
ATOM     11  N   UNL     1      52.300   5.526  17.163  0.00  0.00    +0.000 N 
ATOM     12  O   UNL     1      50.966   6.750  18.494  0.00  0.00    +0.000 OA
ATOM     13  H   UNL     1      52.577   5.128  16.278  0.00  0.00    +0.000 HD
ATOM     14  H   UNL     1      52.908   5.361  17.957  0.00  0.00    +0.000 HD
ENDBRANCH   6  10
BRANCH   1  15
ATOM     15  C   UNL     1      46.385   7.003  12.874  0.00  0.00    +0.000 C 
BRANCH  15  19
ATOM     16  C   UNL     1      43.511   4.600  11.865  0.00  0.00    +0.000 C 
ATOM     17  C   UNL     1      44.294   4.525  13.188  0.00  0.00    +0.000 C 
ATOM     18  C   UNL     1      45.806   4.492  12.972  0.00  0.00    +0.000 C 
ATOM     19  C   UNL     1      46.325   5.659  12.110  0.00  0.00    +0.000 C 
ATOM     20  C   UNL     1      45.500   5.803  10.818  0.00  0.00    +0.000 C 
ATOM     21  C   UNL     1      43.990   5.825  11.068  0.00  0.00    +0.000 C 
BRANCH  16  22
ATOM     22  C   UNL     1      43.623   3.320  11.008  0.00  0.00    +0.000 C 
BRANCH  22  23
ATOM     23  N   UNL     1      43.026   2.156  11.653  0.00  0.00    +0.000 NA
ATOM     24  H   UNL     1      43.420   2.051  12.586  0.00  0.00    +0.000 HD
ATOM     25  H   UNL     1      43.279   1.312  11.139  0.00  0.00    +0.000 HD
ENDBRANCH  22  23
ENDBRANCH  16  22
ENDBRANCH  15  19
ENDBRANCH   1  15
TORSDOF 5
ENDMDL
MODEL 8
REMARK VINA RESULT:    -4.568      4.650      8.253
REMARK INTER + INTRA:          -6.419
REMARK INTER:                  -6.029
REMARK INTRA:                  -0.391
REMARK UNBOUND:                -0.649
REMARK  Name = 
REMARK  5 active torsions:
REMARK  status: ('A' for Active; 'I' for Inactive)
REMARK    1  A    between atoms: N_1  and  C_2
REMARK    2  A    between atoms: C_2  and  C_3
REMARK    3  A    between atoms: C_6  and  C_7
REMARK    4  A    between atoms: C_7  and  N_8
REMARK    5  A    between atoms: C_13  and  C_14
REMARK                            x       y       z     vdW  Elec       q    Type
REMARK                         _______ _______ _______ _____ _____    ______ ____
ROOT
ATOM      1  N   UNL     1      48.553   6.815  13.063  0.00  0.00    +0.000 N 
ATOM      2  C   UNL     1      48.895   7.810  12.177  0.00  0.00    +0.000 A 
ATOM      3  C   UNL     1      49.871   8.585  12.763  0.00  0.00    +0.000 A 
ATOM      4  C   UNL     1      50.054   8.107  14.085  0.00  0.00    +0.000 A 
ATOM      5  C   UNL     1      50.850   8.503  15.172  0.00  0.00    +0.000 A 
ATOM      6  C   UNL     1      50.706   7.808  16.375  0.00  0.00    +0.000 A 
ATOM      7  C   UNL     1      49.806   6.743  16.418  0.00  0.00    +0.000 A 
ATOM      8  N   UNL     1      49.040   6.296  15.386  0.00  0.00    +0.000 NA
ATOM      9  C   UNL     1      49.199   7.020  14.258  0.00  0.00    +0.000 A 
ENDROOT
BRANCH   6  10
ATOM     10  C   UNL     1      51.448   8.175  17.607  0.00  0.00    +0.000 C 
ATOM     11  N   UNL     1      50.945   9.157  18.408  0.00  0.00    +0.000 N 
ATOM     12  O   UNL     1      52.490   7.603  17.911  0.00  0.00    +0.000 OA
ATOM     13  H   UNL     1      50.090   9.668  18.247  0.00  0.00    +0.000 HD
ATOM     14  H   UNL     1      51.462   9.372  19.253  0.00  0.00    +0.000 HD
ENDBRANCH   6  10
BRANCH   1  15
ATOM     15  C   UNL     1      47.638   5.724  12.769  0.00  0.00    +0.000 C 
BRANCH  15  19
ATOM     16  C   UNL     1      44.116   4.817  11.418  0.00  0.00    +0.000 C 
ATOM     17  C   UNL     1      44.878   6.111  11.083  0.00  0.00    +0.000 C 
ATOM     18  C   UNL     1      45.358   6.848  12.332  0.00  0.00    +0.000 C 
ATOM     19  C   UNL     1      46.197   5.964  13.277  0.00  0.00    +0.000 C 
ATOM     20  C   UNL     1      45.489   4.627  13.558  0.00  0.00    +0.000 C 
ATOM     21  C   UNL     1      45.013   3.919  12.287  0.00  0.00    +0.000 C 
BRANCH  16  22
ATOM     22  C   UNL     1      42.759   5.061  12.113  0.00  0.00    +0.000 C 
BRANCH  22  23
ATOM     23  N   UNL     1      42.093   6.269  11.640  0.00  0.00    +0.000 NA
ATOM     24  H   UNL     1      41.451   6.601  12.357  0.00  0.00    +0.000 HD
ATOM     25  H   UNL     1      41.522   6.048  10.824  0.00  0.00    +0.000 HD
ENDBRANCH  22  23
ENDBRANCH  16  22
ENDBRANCH  15  19
ENDBRANCH   1  15
TORSDOF 5
ENDMDL
