MODEL 1
REMARK VINA RESULT:    -8.954      0.000      0.000
REMARK INTER + INTRA:         -11.926
REMARK INTER:                 -11.047
REMARK INTRA:                  -0.879
REMARK UNBOUND:                -0.879
REMARK  Name = 
REMARK  4 active torsions:
REMARK  status: ('A' for Active; 'I' for Inactive)
REMARK    1  A    between atoms: C_2  and  C_4
REMARK    2  A    between atoms: N_8  and  C_9
REMARK    3  A    between atoms: C_9  and  C_10
REMARK    4  A    between atoms: C_15  and  C_16
REMARK                            x       y       z     vdW  Elec       q    Type
REMARK                         _______ _______ _______ _____ _____    ______ ____
ROOT
ATOM      1  C   UNL     1      43.906   4.958  11.449  0.00  0.00    +0.000 C 
ATOM      2  C   UNL     1      42.648   5.144  12.291  0.00  0.00    +0.000 C 
ATOM      3  C   UNL     1      42.931   6.086  11.170  0.00  0.00    +0.000 C 
ENDROOT
BRANCH   1   8
ATOM      4  C   UNL     1      46.442   2.693   7.511  0.00  0.00    +0.000 A 
ATOM      5  C   UNL     1      46.012   4.014   7.611  0.00  0.00    +0.000 A 
ATOM      6  C   UNL     1      45.199   4.390   8.683  0.00  0.00    +0.000 A 
ATOM      7  C   UNL     1      44.824   3.441   9.626  0.00  0.00    +0.000 A 
ATOM      8  N   UNL     1      43.937   3.707  10.672  0.00  0.00    +0.000 N 
ATOM      9  N   UNL     1      45.228   2.156   9.534  0.00  0.00    +0.000 NA
ATOM     10  C   UNL     1      46.016   1.806   8.485  0.00  0.00    +0.000 A 
ATOM     11  H   UNL     1      43.901   2.846  11.217  0.00  0.00    +0.000 HD
BRANCH   4  13
ATOM     12  N   UNL     1      47.390   2.995   5.298  0.00  0.00    +0.000 N 
ATOM     13  C   UNL     1      47.289   2.203   6.407  0.00  0.00    +0.000 C 
ATOM     14  O   UNL     1      47.903   1.144   6.490  0.00  0.00    +0.000 OA
ATOM     15  H   UNL     1      48.051   2.697   4.590  0.00  0.00    +0.000 HD
ATOM     16  H   UNL     1      47.117   3.966   5.298  0.00  0.00    +0.000 HD
ENDBRANCH   4  13
ENDBRANCH   1   8
BRANCH   1  17
ATOM     17  C   UNL     1      45.254   5.318  12.074  0.00  0.00    +0.000 A 
ATOM     18  C   UNL     1      46.073   6.321  11.529  0.00  0.00    +0.000 A 
ATOM     19  C   UNL     1      47.276   6.676  12.134  0.00  0.00    +0.000 A 
ATOM     20  C   UNL     1      47.680   6.036  13.303  0.00  0.00    +0.000 A 
ATOM     21  F   UNL     1      48.846   6.415  13.845  0.00  0.00    +0.000 F 
ATOM     22  C   UNL     1      46.911   5.025  13.899  0.00  0.00    +0.000 A 
ATOM     23  C   UNL     1      45.701   4.688  13.254  0.00  0.00    +0.000 A 
BRANCH  22  24
ATOM     24  C   UNL     1      47.328   4.355  15.146  0.00  0.00    +0.000 A 
ATOM     25  C   UNL     1      47.924   3.103  15.188  0.00  0.00    +0.000 A 
ATOM     26  N   UNL     1      48.328   2.471  16.315  0.00  0.00    +0.000 NA
ATOM     27  C   UNL     1      48.119   3.135  17.458  0.00  0.00    +0.000 A 
ATOM     28  N   UNL     1      47.560   4.346  17.569  0.00  0.00    +0.000 NA
ATOM     29  C   UNL     1      47.174   4.919  16.405  0.00  0.00    +0.000 A 
ENDBRANCH  22  24
ENDBRANCH   1  17
TORSDOF 4
ENDMDL
MODEL 2
REMARK VINA RESULT:    -8.913      2.444      3.613
REMARK INTER + INTRA:         -11.877
REMARK INTER:                 -10.852
REMARK INTRA:                  -1.025
REMARK UNBOUND:                -0.879
REMARK  Name = 
REMARK  4 active torsions:
REMARK  status: ('A' for Active; 'I' for Inactive)
REMARK    1  A    between atoms: C_2  and  C_4
REMARK    2  A    between atoms: N_8  and  C_9
REMARK    3  A    between atoms: C_9  and  C_10
REMARK    4  A    between atoms: C_15  and  C_16
REMARK                            x       y       z     vdW  Elec       q    Type
REMARK                         _______ _______ _______ _____ _____    ______ ____
ROOT
ATOM      1  C   UNL     1      43.781   4.973  11.343  0.00  0.00    +0.000 C 
ATOM      2  C   UNL     1      42.453   5.196  12.058  0.00  0.00    +0.000 C 
ATOM      3  C   UNL     1      42.891   6.154  11.003  0.00  0.00    +0.000 C 
ENDROOT
BRANCH   1   8
ATOM      4  C   UNL     1      46.512   2.761   7.507  0.00  0.00    +0.000 A 
ATOM      5  C   UNL     1      46.104   4.088   7.617  0.00  0.00    +0.000 A 
ATOM      6  C   UNL     1      45.233   4.453   8.648  0.00  0.00    +0.000 A 
ATOM      7  C   UNL     1      44.780   3.486   9.538  0.00  0.00    +0.000 A 
ATOM      8  N   UNL     1      43.835   3.743  10.534  0.00  0.00    +0.000 N 
ATOM      9  N   UNL     1      45.163   2.196   9.434  0.00  0.00    +0.000 NA
ATOM     10  C   UNL     1      46.008   1.857   8.427  0.00  0.00    +0.000 A 
ATOM     11  H   UNL     1      43.747   2.869  11.051  0.00  0.00    +0.000 HD
BRANCH   4  13
ATOM     12  N   UNL     1      47.409   2.968   5.261  0.00  0.00    +0.000 N 
ATOM     13  C   UNL     1      47.416   2.282   6.444  0.00  0.00    +0.000 C 
ATOM     14  O   UNL     1      48.167   1.329   6.621  0.00  0.00    +0.000 OA
ATOM     15  H   UNL     1      48.104   2.694   4.577  0.00  0.00    +0.000 HD
ATOM     16  H   UNL     1      47.007   3.889   5.171  0.00  0.00    +0.000 HD
ENDBRANCH   4  13
ENDBRANCH   1   8
BRANCH   1  17
ATOM     17  C   UNL     1      45.073   5.252  12.111  0.00  0.00    +0.000 A 
ATOM     18  C   UNL     1      45.545   4.373  13.100  0.00  0.00    +0.000 A 
ATOM     19  C   UNL     1      46.748   4.610  13.759  0.00  0.00    +0.000 A 
ATOM     20  C   UNL     1      47.507   5.732  13.436  0.00  0.00    +0.000 A 
ATOM     21  F   UNL     1      48.657   5.914  14.100  0.00  0.00    +0.000 F 
ATOM     22  C   UNL     1      47.094   6.652  12.460  0.00  0.00    +0.000 A 
ATOM     23  C   UNL     1      45.866   6.381  11.817  0.00  0.00    +0.000 A 
BRANCH  22  24
ATOM     24  C   UNL     1      47.901   7.833  12.103  0.00  0.00    +0.000 A 
ATOM     25  C   UNL     1      49.210   7.766  11.649  0.00  0.00    +0.000 A 
ATOM     26  N   UNL     1      49.969   8.832  11.302  0.00  0.00    +0.000 NA
ATOM     27  C   UNL     1      49.379  10.027  11.421  0.00  0.00    +0.000 A 
ATOM     28  N   UNL     1      48.126  10.243  11.841  0.00  0.00    +0.000 NA
ATOM     29  C   UNL     1      47.425   9.135  12.177  0.00  0.00    +0.000 A 
ENDBRANCH  22  24
ENDBRANCH   1  17
TORSDOF 4
ENDMDL
MODEL 3
REMARK VINA RESULT:    -6.862      3.936      8.297
REMARK INTER + INTRA:          -9.346
REMARK INTER:                  -8.368
REMARK INTRA:                  -0.978
REMARK UNBOUND:                -0.879
REMARK  Name = 
REMARK  4 active torsions:
REMARK  status: ('A' for Active; 'I' for Inactive)
REMARK    1  A    between atoms: C_2  and  C_4
REMARK    2  A    between atoms: N_8  and  C_9
REMARK    3  A    between atoms: C_9  and  C_10
REMARK    4  A    between atoms: C_15  and  C_16
REMARK                            x       y       z     vdW  Elec       q    Type
REMARK                         _______ _______ _______ _____ _____    ______ ____
ROOT
ATOM      1  C   UNL     1      49.097   7.927  12.741  0.00  0.00    +0.000 C 
ATOM      2  C   UNL     1      50.070   8.123  11.584  0.00  0.00    +0.000 C 
ATOM      3  C   UNL     1      49.729   9.278  12.464  0.00  0.00    +0.000 C 
ENDROOT
BRANCH   1   8
ATOM      4  C   UNL     1      48.410   6.808  17.775  0.00  0.00    +0.000 A 
ATOM      5  C   UNL     1      48.483   8.063  17.176  0.00  0.00    +0.000 A 
ATOM      6  C   UNL     1      48.838   8.157  15.827  0.00  0.00    +0.000 A 
ATOM      7  C   UNL     1      49.122   7.002  15.110  0.00  0.00    +0.000 A 
ATOM      8  N   UNL     1      49.578   7.011  13.789  0.00  0.00    +0.000 N 
ATOM      9  N   UNL     1      49.063   5.781  15.684  0.00  0.00    +0.000 NA
ATOM     10  C   UNL     1      48.718   5.706  16.996  0.00  0.00    +0.000 A 
ATOM     11  H   UNL     1      49.645   6.029  13.523  0.00  0.00    +0.000 HD
BRANCH   4  13
ATOM     12  N   UNL     1      47.224   5.574  19.496  0.00  0.00    +0.000 N 
ATOM     13  C   UNL     1      48.059   6.613  19.195  0.00  0.00    +0.000 C 
ATOM     14  O   UNL     1      48.521   7.332  20.075  0.00  0.00    +0.000 OA
ATOM     15  H   UNL     1      47.070   5.389  20.480  0.00  0.00    +0.000 HD
ATOM     16  H   UNL     1      47.037   4.823  18.848  0.00  0.00    +0.000 HD
ENDBRANCH   4  13
ENDBRANCH   1   8
BRANCH   1  17
ATOM     17  C   UNL     1      47.613   7.754  12.418  0.00  0.00    +0.000 A 
ATOM     18  C   UNL     1      46.664   8.727  12.769  0.00  0.00    +0.000 A 
ATOM     19  C   UNL     1      45.323   8.583  12.426  0.00  0.00    +0.000 A 
ATOM     20  C   UNL     1      44.905   7.459  11.716  0.00  0.00    +0.000 A 
ATOM     21  F   UNL     1      43.604   7.369  11.410  0.00  0.00    +0.000 F 
ATOM     22  C   UNL     1      45.800   6.448  11.334  0.00  0.00    +0.000 A 
ATOM     23  C   UNL     1      47.150   6.626  11.705  0.00  0.00    +0.000 A 
BRANCH  22  24
ATOM     24  C   UNL     1      45.365   5.264  10.569  0.00  0.00    +0.000 A 
ATOM     25  C   UNL     1      44.620   4.226  11.110  0.00  0.00    +0.000 A 
ATOM     26  N   UNL     1      44.196   3.136  10.429  0.00  0.00    +0.000 NA
ATOM     27  C   UNL     1      44.542   3.089   9.136  0.00  0.00    +0.000 A 
ATOM     28  N   UNL     1      45.253   4.017   8.483  0.00  0.00    +0.000 NA
ATOM     29  C   UNL     1      45.649   5.077   9.224  0.00  0.00    +0.000 A 
ENDBRANCH  22  24
ENDBRANCH   1  17
TORSDOF 4
ENDMDL
MODEL 4
REMARK VINA RESULT:    -6.744      3.167      7.517
REMARK INTER + INTRA:          -9.200
REMARK INTER:                  -9.177
REMARK INTRA:                  -0.023
REMARK UNBOUND:                -0.879
REMARK  Name = 
REMARK  4 active torsions:
REMARK  status: ('A' for Active; 'I' for Inactive)
REMARK    1  A    between atoms: C_2  and  C_4
REMARK    2  A    between atoms: N_8  and  C_9
REMARK    3  A    between atoms: C_9  and  C_10
REMARK    4  A    between atoms: C_15  and  C_16
REMARK                            x       y       z     vdW  Elec       q    Type
REMARK                         _______ _______ _______ _____ _____    ______ ____
ROOT
ATOM      1  C   UNL     1      48.625   7.864  12.738  0.00  0.00    +0.000 C 
ATOM      2  C   UNL     1      49.727   7.259  11.874  0.00  0.00    +0.000 C 
ATOM      3  C   UNL     1      49.498   8.733  11.852  0.00  0.00    +0.000 C 
ENDROOT
BRANCH   1   8
ATOM      4  C   UNL     1      48.047   4.415  16.589  0.00  0.00    +0.000 A 
ATOM      5  C   UNL     1      47.168   4.693  15.545  0.00  0.00    +0.000 A 
ATOM      6  C   UNL     1      47.430   5.776  14.701  0.00  0.00    +0.000 A 
ATOM      7  C   UNL     1      48.555   6.561  14.920  0.00  0.00    +0.000 A 
ATOM      8  N   UNL     1      48.840   7.716  14.187  0.00  0.00    +0.000 N 
ATOM      9  N   UNL     1      49.409   6.305  15.934  0.00  0.00    +0.000 NA
ATOM     10  C   UNL     1      49.140   5.250  16.748  0.00  0.00    +0.000 A 
ATOM     11  H   UNL     1      49.742   8.038  14.537  0.00  0.00    +0.000 HD
BRANCH   4  13
ATOM     12  N   UNL     1      48.866   3.023  18.402  0.00  0.00    +0.000 N 
ATOM     13  C   UNL     1      47.843   3.304  17.539  0.00  0.00    +0.000 C 
ATOM     14  O   UNL     1      46.790   2.677  17.577  0.00  0.00    +0.000 OA
ATOM     15  H   UNL     1      48.677   2.328  19.113  0.00  0.00    +0.000 HD
ATOM     16  H   UNL     1      49.624   3.667  18.572  0.00  0.00    +0.000 HD
ENDBRANCH   4  13
ENDBRANCH   1   8
BRANCH   1  17
ATOM     17  C   UNL     1      47.172   7.646  12.314  0.00  0.00    +0.000 A 
ATOM     18  C   UNL     1      46.186   8.620  12.539  0.00  0.00    +0.000 A 
ATOM     19  C   UNL     1      44.876   8.433  12.105  0.00  0.00    +0.000 A 
ATOM     20  C   UNL     1      44.530   7.265  11.429  0.00  0.00    +0.000 A 
ATOM     21  F   UNL     1      43.257   7.135  11.033  0.00  0.00    +0.000 F 
ATOM     22  C   UNL     1      45.465   6.251  11.172  0.00  0.00    +0.000 A 
ATOM     23  C   UNL     1      46.781   6.474  11.633  0.00  0.00    +0.000 A 
BRANCH  22  24
ATOM     24  C   UNL     1      45.106   5.020  10.444  0.00  0.00    +0.000 A 
ATOM     25  C   UNL     1      44.358   3.988  10.992  0.00  0.00    +0.000 A 
ATOM     26  N   UNL     1      44.002   2.855  10.343  0.00  0.00    +0.000 NA
ATOM     27  C   UNL     1      44.424   2.755   9.076  0.00  0.00    +0.000 A 
ATOM     28  N   UNL     1      45.148   3.670   8.419  0.00  0.00    +0.000 NA
ATOM     29  C   UNL     1      45.473   4.776   9.127  0.00  0.00    +0.000 A 
ENDBRANCH  22  24
ENDBRANCH   1  17
TORSDOF 4
ENDMDL
MODEL 5
REMARK VINA RESULT:    -6.544      3.979      7.559
REMARK INTER + INTRA:          -8.953
REMARK INTER:                  -8.716
REMARK INTRA:                  -0.237
REMARK UNBOUND:                -0.879
REMARK  Name = 
REMARK  4 active torsions:
REMARK  status: ('A' for Active; 'I' for Inactive)
REMARK    1  A    between atoms: C_2  and  C_4
REMARK    2  A    between atoms: N_8  and  C_9
REMARK    3  A    between atoms: C_9  and  C_10
REMARK    4  A    between atoms: C_15  and  C_16
REMARK                            x       y       z     vdW  Elec       q    Type
REMARK                         _______ _______ _______ _____ _____    ______ ____
ROOT
ATOM      1  C   UNL     1      44.853   5.959  11.343  0.00  0.00    +0.000 C 
ATOM      2  C   UNL     1      43.574   6.788  11.385  0.00  0.00    +0.000 C 
ATOM      3  C   UNL     1      44.090   6.164  12.637  0.00  0.00    +0.000 C 
ENDROOT
BRANCH   1   8
ATOM      4  C   UNL     1      49.255   7.786  13.430  0.00  0.00    +0.000 A 
ATOM      5  C   UNL     1      47.977   7.780  13.985  0.00  0.00    +0.000 A 
ATOM      6  C   UNL     1      46.890   7.393  13.196  0.00  0.00    +0.000 A 
ATOM      7  C   UNL     1      47.099   7.030  11.872  0.00  0.00    +0.000 A 
ATOM      8  N   UNL     1      46.060   6.724  10.987  0.00  0.00    +0.000 N 
ATOM      9  N   UNL     1      48.331   7.040  11.322  0.00  0.00    +0.000 NA
ATOM     10  C   UNL     1      49.377   7.421  12.100  0.00  0.00    +0.000 A 
ATOM     11  H   UNL     1      46.521   6.449  10.120  0.00  0.00    +0.000 HD
BRANCH   4  13
ATOM     12  N   UNL     1      51.022   7.265  15.009  0.00  0.00    +0.000 N 
ATOM     13  C   UNL     1      50.458   8.194  14.181  0.00  0.00    +0.000 C 
ATOM     14  O   UNL     1      50.952   9.308  14.045  0.00  0.00    +0.000 OA
ATOM     15  H   UNL     1      51.902   7.522  15.441  0.00  0.00    +0.000 HD
ATOM     16  H   UNL     1      50.803   6.282  14.951  0.00  0.00    +0.000 HD
ENDBRANCH   4  13
ENDBRANCH   1   8
BRANCH   1  17
ATOM     17  C   UNL     1      44.798   4.576  10.693  0.00  0.00    +0.000 A 
ATOM     18  C   UNL     1      43.948   3.570  11.177  0.00  0.00    +0.000 A 
ATOM     19  C   UNL     1      43.868   2.330  10.548  0.00  0.00    +0.000 A 
ATOM     20  C   UNL     1      44.637   2.076   9.415  0.00  0.00    +0.000 A 
ATOM     21  F   UNL     1      44.523   0.867   8.848  0.00  0.00    +0.000 F 
ATOM     22  C   UNL     1      45.509   3.036   8.880  0.00  0.00    +0.000 A 
ATOM     23  C   UNL     1      45.567   4.279   9.548  0.00  0.00    +0.000 A 
BRANCH  22  24
ATOM     24  C   UNL     1      46.314   2.777   7.671  0.00  0.00    +0.000 A 
ATOM     25  C   UNL     1      47.156   1.685   7.523  0.00  0.00    +0.000 A 
ATOM     26  N   UNL     1      47.895   1.415   6.421  0.00  0.00    +0.000 NA
ATOM     27  C   UNL     1      47.780   2.293   5.418  0.00  0.00    +0.000 A 
ATOM     28  N   UNL     1      47.007   3.386   5.419  0.00  0.00    +0.000 NA
ATOM     29  C   UNL     1      46.300   3.599   6.552  0.00  0.00    +0.000 A 
ENDBRANCH  22  24
ENDBRANCH   1  17
TORSDOF 4
ENDMDL
MODEL 6
REMARK VINA RESULT:    -6.289      3.007      4.588
REMARK INTER + INTRA:          -8.638
REMARK INTER:                  -8.129
REMARK INTRA:                  -0.509
REMARK UNBOUND:                -0.879
REMARK  Name = 
REMARK  4 active torsions:
REMARK  status: ('A' for Active; 'I' for Inactive)
REMARK    1  A    between atoms: C_2  and  C_4
REMARK    2  A    between atoms: N_8  and  C_9
REMARK    3  A    between atoms: C_9  and  C_10
REMARK    4  A    between atoms: C_15  and  C_16
REMARK                            x       y       z     vdW  Elec       q    Type
REMARK                         _______ _______ _______ _____ _____    ______ ____
ROOT
ATOM      1  C   UNL     1      47.762   8.150  13.135  0.00  0.00    +0.000 C 
ATOM      2  C   UNL     1      47.631   9.632  12.800  0.00  0.00    +0.000 C 
ATOM      3  C   UNL     1      48.144   8.685  11.768  0.00  0.00    +0.000 C 
ENDROOT
BRANCH   1   8
ATOM      4  C   UNL     1      44.823   4.199  11.456  0.00  0.00    +0.000 A 
ATOM      5  C   UNL     1      45.535   5.125  10.696  0.00  0.00    +0.000 A 
ATOM      6  C   UNL     1      46.133   6.217  11.333  0.00  0.00    +0.000 A 
ATOM      7  C   UNL     1      46.001   6.366  12.708  0.00  0.00    +0.000 A 
ATOM      8  N   UNL     1      46.483   7.475  13.409  0.00  0.00    +0.000 N 
ATOM      9  N   UNL     1      45.307   5.479  13.451  0.00  0.00    +0.000 NA
ATOM     10  C   UNL     1      44.730   4.424  12.819  0.00  0.00    +0.000 A 
ATOM     11  H   UNL     1      46.287   7.276  14.389  0.00  0.00    +0.000 HD
BRANCH   4  13
ATOM     12  N   UNL     1      44.797   2.368   9.863  0.00  0.00    +0.000 N 
ATOM     13  C   UNL     1      44.147   3.026  10.869  0.00  0.00    +0.000 C 
ATOM     14  O   UNL     1      43.061   2.636  11.286  0.00  0.00    +0.000 OA
ATOM     15  H   UNL     1      44.371   1.509   9.538  0.00  0.00    +0.000 HD
ATOM     16  H   UNL     1      45.780   2.499   9.675  0.00  0.00    +0.000 HD
ENDBRANCH   4  13
ENDBRANCH   1   8
BRANCH   1  17
ATOM     17  C   UNL     1      48.890   7.717  14.073  0.00  0.00    +0.000 A 
ATOM     18  C   UNL     1      50.218   8.121  13.862  0.00  0.00    +0.000 A 
ATOM     19  C   UNL     1      51.230   7.763  14.749  0.00  0.00    +0.000 A 
ATOM     20  C   UNL     1      50.928   6.996  15.872  0.00  0.00    +0.000 A 
ATOM     21  F   UNL     1      51.938   6.679  16.693  0.00  0.00    +0.000 F 
ATOM     22  C   UNL     1      49.623   6.557  16.142  0.00  0.00    +0.000 A 
ATOM     23  C   UNL     1      48.625   6.935  15.217  0.00  0.00    +0.000 A 
BRANCH  22  24
ATOM     24  C   UNL     1      49.296   5.758  17.338  0.00  0.00    +0.000 A 
ATOM     25  C   UNL     1      49.320   4.371  17.370  0.00  0.00    +0.000 A 
ATOM     26  N   UNL     1      49.039   3.613  18.455  0.00  0.00    +0.000 NA
ATOM     27  C   UNL     1      48.715   4.287  19.565  0.00  0.00    +0.000 A 
ATOM     28  N   UNL     1      48.655   5.620  19.681  0.00  0.00    +0.000 NA
ATOM     29  C   UNL     1      48.942   6.317  18.558  0.00  0.00    +0.000 A 
ENDBRANCH  22  24
ENDBRANCH   1  17
TORSDOF 4
ENDMDL
MODEL 7
REMARK VINA RESULT:    -5.987      3.767      7.125
REMARK INTER + INTRA:          -8.266
REMARK INTER:                  -7.227
REMARK INTRA:                  -1.038
REMARK UNBOUND:                -0.879
REMARK  Name = 
REMARK  4 active torsions:
REMARK  status: ('A' for Active; 'I' for Inactive)
REMARK    1  A    between atoms: C_2  and  C_4
REMARK    2  A    between atoms: N_8  and  C_9
REMARK    3  A    between atoms: C_9  and  C_10
REMARK    4  A    between atoms: C_15  and  C_16
REMARK                            x       y       z     vdW  Elec       q    Type
REMARK                         _______ _______ _______ _____ _____    ______ ____
ROOT
ATOM      1  C   UNL     1      46.856   5.054  14.236  0.00  0.00    +0.000 C 
ATOM      2  C   UNL     1      46.635   4.162  15.453  0.00  0.00    +0.000 C 
ATOM      3  C   UNL     1      47.663   3.786  14.440  0.00  0.00    +0.000 C 
ENDROOT
BRANCH   1   8
ATOM      4  C   UNL     1      48.898   9.258  11.950  0.00  0.00    +0.000 A 
ATOM      5  C   UNL     1      49.172   7.917  11.687  0.00  0.00    +0.000 A 
ATOM      6  C   UNL     1      48.640   6.933  12.526  0.00  0.00    +0.000 A 
ATOM      7  C   UNL     1      47.857   7.306  13.611  0.00  0.00    +0.000 A 
ATOM      8  N   UNL     1      47.368   6.397  14.553  0.00  0.00    +0.000 N 
ATOM      9  N   UNL     1      47.593   8.603  13.879  0.00  0.00    +0.000 NA
ATOM     10  C   UNL     1      48.118   9.547  13.056  0.00  0.00    +0.000 A 
ATOM     11  H   UNL     1      46.795   6.952  15.187  0.00  0.00    +0.000 HD
BRANCH   4  13
ATOM     12  N   UNL     1      50.784  10.526  11.099  0.00  0.00    +0.000 N 
ATOM     13  C   UNL     1      49.427  10.364  11.129  0.00  0.00    +0.000 C 
ATOM     14  O   UNL     1      48.686  11.089  10.474  0.00  0.00    +0.000 OA
ATOM     15  H   UNL     1      51.141  11.222  10.456  0.00  0.00    +0.000 HD
ATOM     16  H   UNL     1      51.423   9.808  11.408  0.00  0.00    +0.000 HD
ENDBRANCH   4  13
ENDBRANCH   1   8
BRANCH   1  17
ATOM     17  C   UNL     1      45.793   5.054  13.137  0.00  0.00    +0.000 A 
ATOM     18  C   UNL     1      44.542   5.664  13.322  0.00  0.00    +0.000 A 
ATOM     19  C   UNL     1      43.600   5.702  12.298  0.00  0.00    +0.000 A 
ATOM     20  C   UNL     1      43.896   5.132  11.062  0.00  0.00    +0.000 A 
ATOM     21  F   UNL     1      42.954   5.196  10.110  0.00  0.00    +0.000 F 
ATOM     22  C   UNL     1      45.125   4.505  10.809  0.00  0.00    +0.000 A 
ATOM     23  C   UNL     1      46.053   4.481  11.873  0.00  0.00    +0.000 A 
BRANCH  22  24
ATOM     24  C   UNL     1      45.448   3.914   9.497  0.00  0.00    +0.000 A 
ATOM     25  C   UNL     1      45.880   4.650   8.403  0.00  0.00    +0.000 A 
ATOM     26  N   UNL     1      46.197   4.133   7.193  0.00  0.00    +0.000 NA
ATOM     27  C   UNL     1      46.071   2.805   7.079  0.00  0.00    +0.000 A 
ATOM     28  N   UNL     1      45.670   1.972   8.047  0.00  0.00    +0.000 NA
ATOM     29  C   UNL     1      45.364   2.554   9.229  0.00  0.00    +0.000 A 
ENDBRANCH  22  24
ENDBRANCH   1  17
TORSDOF 4
ENDMDL
