MODEL 1
REMARK VINA RESULT:    -8.721      0.000      0.000
REMARK INTER + INTRA:         -12.200
REMARK INTER:                 -11.780
REMARK INTRA:                  -0.419
REMARK UNBOUND:                -0.419
REMARK  Name = 
REMARK  6 active torsions:
REMARK  status: ('A' for Active; 'I' for Inactive)
REMARK    1  A    between atoms: C_2  and  C_25
REMARK    2  A    between atoms: N_3  and  C_4
REMARK    3  A    between atoms: C_4  and  C_5
REMARK    4  A    between atoms: C_8  and  C_9
REMARK    5  A    between atoms: C_9  and  N_10
REMARK    6  A    between atoms: C_11  and  C_13
REMARK                            x       y       z     vdW  Elec       q    Type
REMARK                         _______ _______ _______ _____ _____    ______ ____
ROOT
ATOM      1  C   UNL     1      43.474   4.529  11.702  0.00  0.00    +0.000 C 
ATOM      2  C   UNL     1      44.189   3.261  12.196  0.00  0.00    +0.000 C 
ATOM      3  C   UNL     1      45.707   3.420  12.198  0.00  0.00    +0.000 C 
ATOM      4  C   UNL     1      46.174   4.618  13.043  0.00  0.00    +0.000 C 
ATOM      5  C   UNL     1      45.467   5.895  12.560  0.00  0.00    +0.000 C 
ATOM      6  C   UNL     1      43.942   5.752  12.514  0.00  0.00    +0.000 C 
ENDROOT
BRANCH   1   7
ATOM      7  C   UNL     1      43.681   4.774  10.194  0.00  0.00    +0.000 C 
BRANCH   7  10
ATOM      8  O   UNL     1      45.815   5.097   8.365  0.00  0.00    +0.000 OA
ATOM      9  C   UNL     1      45.454   3.964   8.667  0.00  0.00    +0.000 C 
ATOM     10  N   UNL     1      44.425   3.717   9.545  0.00  0.00    +0.000 N 
ATOM     11  H   UNL     1      44.266   2.767   9.849  0.00  0.00    +0.000 HD
BRANCH   9  12
ATOM     12  C   UNL     1      46.101   2.778   8.148  0.00  0.00    +0.000 A 
ATOM     13  C   UNL     1      45.892   1.428   8.387  0.00  0.00    +0.000 A 
ATOM     14  C   UNL     1      46.823   0.694   7.613  0.00  0.00    +0.000 A 
ATOM     15  C   UNL     1      47.574   1.604   6.907  0.00  0.00    +0.000 A 
ATOM     16  N   UNL     1      47.122   2.858   7.223  0.00  0.00    +0.000 N 
ATOM     17  H   UNL     1      47.476   3.732   6.853  0.00  0.00    +0.000 HD
ENDBRANCH   9  12
ENDBRANCH   7  10
ENDBRANCH   1   7
BRANCH   4  18
ATOM     18  C   UNL     1      45.961   4.394  14.551  0.00  0.00    +0.000 C 
BRANCH  18  19
ATOM     19  N   UNL     1      47.167   4.646  15.317  0.00  0.00    +0.000 N 
ATOM     20  C   UNL     1      47.391   4.064  16.537  0.00  0.00    +0.000 C 
ATOM     21  O   UNL     1      46.599   3.267  17.038  0.00  0.00    +0.000 OA
ATOM     22  H   UNL     1      47.766   5.409  15.014  0.00  0.00    +0.000 HD
BRANCH  20  23
ATOM     23  C   UNL     1      48.661   4.385  17.199  0.00  0.00    +0.000 A 
ATOM     24  C   UNL     1      48.844   5.652  17.736  0.00  0.00    +0.000 A 
ATOM     25  S   UNL     1      50.373   5.879  18.451  0.00  0.00    +0.000 S 
ATOM     26  C   UNL     1      50.863   4.304  18.035  0.00  0.00    +0.000 A 
ATOM     27  N   UNL     1      52.114   3.862  18.325  0.00  0.00    +0.000 NA
ATOM     28  C   UNL     1      52.367   2.662  17.914  0.00  0.00    +0.000 A 
ATOM     29  N   UNL     1      51.471   1.862  17.261  0.00  0.00    +0.000 N 
ATOM     30  C   UNL     1      50.166   2.231  17.028  0.00  0.00    +0.000 A 
ATOM     31  O   UNL     1      49.347   1.433  16.594  0.00  0.00    +0.000 OA
ATOM     32  C   UNL     1      49.853   3.596  17.405  0.00  0.00    +0.000 A 
ATOM     33  H   UNL     1      51.716   0.915  17.007  0.00  0.00    +0.000 HD
ENDBRANCH  20  23
ENDBRANCH  18  19
ENDBRANCH   4  18
TORSDOF 6
ENDMDL
MODEL 2
REMARK VINA RESULT:    -8.290      2.119      2.646
REMARK INTER + INTRA:         -11.617
REMARK INTER:                 -11.116
REMARK INTRA:                  -0.501
REMARK UNBOUND:                -0.419
REMARK  Name = 
REMARK  6 active torsions:
REMARK  status: ('A' for Active; 'I' for Inactive)
REMARK    1  A    between atoms: C_2  and  C_25
REMARK    2  A    between atoms: N_3  and  C_4
REMARK    3  A    between atoms: C_4  and  C_5
REMARK    4  A    between atoms: C_8  and  C_9
REMARK    5  A    between atoms: C_9  and  N_10
REMARK    6  A    between atoms: C_11  and  C_13
REMARK                            x       y       z     vdW  Elec       q    Type
REMARK                         _______ _______ _______ _____ _____    ______ ____
ROOT
ATOM      1  C   UNL     1      43.618   6.312  11.752  0.00  0.00    +0.000 C 
ATOM      2  C   UNL     1      44.193   5.852  13.103  0.00  0.00    +0.000 C 
ATOM      3  C   UNL     1      45.467   5.028  12.935  0.00  0.00    +0.000 C 
ATOM      4  C   UNL     1      46.559   5.781  12.158  0.00  0.00    +0.000 C 
ATOM      5  C   UNL     1      45.999   6.247  10.804  0.00  0.00    +0.000 C 
ATOM      6  C   UNL     1      44.700   7.047  10.938  0.00  0.00    +0.000 C 
ENDROOT
BRANCH   1   7
ATOM      7  C   UNL     1      43.031   5.144  10.933  0.00  0.00    +0.000 C 
BRANCH   7  10
ATOM      8  O   UNL     1      43.684   2.417  10.557  0.00  0.00    +0.000 OA
ATOM      9  C   UNL     1      44.218   3.263   9.846  0.00  0.00    +0.000 C 
ATOM     10  N   UNL     1      43.961   4.608   9.963  0.00  0.00    +0.000 N 
ATOM     11  H   UNL     1      44.333   5.234   9.264  0.00  0.00    +0.000 HD
BRANCH   9  12
ATOM     12  C   UNL     1      45.150   2.917   8.794  0.00  0.00    +0.000 A 
ATOM     13  C   UNL     1      45.679   3.653   7.745  0.00  0.00    +0.000 A 
ATOM     14  C   UNL     1      46.543   2.810   7.006  0.00  0.00    +0.000 A 
ATOM     15  C   UNL     1      46.537   1.580   7.621  0.00  0.00    +0.000 A 
ATOM     16  N   UNL     1      45.706   1.657   8.708  0.00  0.00    +0.000 N 
ATOM     17  H   UNL     1      45.506   0.909   9.361  0.00  0.00    +0.000 HD
ENDBRANCH   9  12
ENDBRANCH   7  10
ENDBRANCH   1   7
BRANCH   4  18
ATOM     18  C   UNL     1      47.146   6.959  12.957  0.00  0.00    +0.000 C 
BRANCH  18  19
ATOM     19  N   UNL     1      47.419   6.601  14.336  0.00  0.00    +0.000 N 
ATOM     20  C   UNL     1      48.683   6.639  14.864  0.00  0.00    +0.000 C 
ATOM     21  O   UNL     1      49.655   7.013  14.208  0.00  0.00    +0.000 OA
ATOM     22  H   UNL     1      46.678   6.142  14.859  0.00  0.00    +0.000 HD
BRANCH  20  23
ATOM     23  C   UNL     1      48.821   6.273  16.278  0.00  0.00    +0.000 A 
ATOM     24  C   UNL     1      49.368   7.189  17.166  0.00  0.00    +0.000 A 
ATOM     25  S   UNL     1      49.480   6.611  18.764  0.00  0.00    +0.000 S 
ATOM     26  C   UNL     1      48.839   5.099  18.321  0.00  0.00    +0.000 A 
ATOM     27  N   UNL     1      48.708   4.101  19.235  0.00  0.00    +0.000 NA
ATOM     28  C   UNL     1      48.248   2.992  18.753  0.00  0.00    +0.000 A 
ATOM     29  N   UNL     1      47.890   2.804  17.447  0.00  0.00    +0.000 N 
ATOM     30  C   UNL     1      47.918   3.809  16.509  0.00  0.00    +0.000 A 
ATOM     31  O   UNL     1      47.434   3.655  15.396  0.00  0.00    +0.000 OA
ATOM     32  C   UNL     1      48.494   5.054  16.981  0.00  0.00    +0.000 A 
ATOM     33  H   UNL     1      47.492   1.925  17.144  0.00  0.00    +0.000 HD
ENDBRANCH  20  23
ENDBRANCH  18  19
ENDBRANCH   4  18
TORSDOF 6
ENDMDL
MODEL 3
REMARK VINA RESULT:    -7.861      1.988      2.581
REMARK INTER + INTRA:         -11.037
REMARK INTER:                 -10.447
REMARK INTRA:                  -0.590
REMARK UNBOUND:                -0.419
REMARK  Name = 
REMARK  6 active torsions:
REMARK  status: ('A' for Active; 'I' for Inactive)
REMARK    1  A    between atoms: C_2  and  C_25
REMARK    2  A    between atoms: N_3  and  C_4
REMARK    3  A    between atoms: C_4  and  C_5
REMARK    4  A    between atoms: C_8  and  C_9
REMARK    5  A    between atoms: C_9  and  N_10
REMARK    6  A    between atoms: C_11  and  C_13
REMARK                            x       y       z     vdW  Elec       q    Type
REMARK                         _______ _______ _______ _____ _____    ______ ____
ROOT
ATOM      1  C   UNL     1      43.446   4.409  11.424  0.00  0.00    +0.000 C 
ATOM      2  C   UNL     1      44.249   3.180  11.880  0.00  0.00    +0.000 C 
ATOM      3  C   UNL     1      45.749   3.458  11.930  0.00  0.00    +0.000 C 
ATOM      4  C   UNL     1      46.099   4.648  12.839  0.00  0.00    +0.000 C 
ATOM      5  C   UNL     1      45.303   5.886  12.394  0.00  0.00    +0.000 C 
ATOM      6  C   UNL     1      43.797   5.627  12.301  0.00  0.00    +0.000 C 
ENDROOT
BRANCH   1   7
ATOM      7  C   UNL     1      43.669   4.739   9.934  0.00  0.00    +0.000 C 
BRANCH   7  10
ATOM      8  O   UNL     1      45.985   5.197   8.375  0.00  0.00    +0.000 OA
ATOM      9  C   UNL     1      45.570   4.049   8.506  0.00  0.00    +0.000 C 
ATOM     10  N   UNL     1      44.452   3.738   9.242  0.00  0.00    +0.000 N 
ATOM     11  H   UNL     1      44.241   2.766   9.415  0.00  0.00    +0.000 HD
BRANCH   9  12
ATOM     12  C   UNL     1      46.240   2.909   7.917  0.00  0.00    +0.000 A 
ATOM     13  C   UNL     1      47.154   2.805   6.879  0.00  0.00    +0.000 A 
ATOM     14  C   UNL     1      47.478   1.438   6.712  0.00  0.00    +0.000 A 
ATOM     15  C   UNL     1      46.769   0.732   7.656  0.00  0.00    +0.000 A 
ATOM     16  N   UNL     1      46.037   1.628   8.389  0.00  0.00    +0.000 N 
ATOM     17  H   UNL     1      45.421   1.407   9.162  0.00  0.00    +0.000 HD
ENDBRANCH   9  12
ENDBRANCH   7  10
ENDBRANCH   1   7
BRANCH   4  18
ATOM     18  C   UNL     1      45.869   4.339  14.330  0.00  0.00    +0.000 C 
BRANCH  18  19
ATOM     19  N   UNL     1      46.804   5.046  15.185  0.00  0.00    +0.000 N 
ATOM     20  C   UNL     1      47.545   4.405  16.143  0.00  0.00    +0.000 C 
ATOM     21  O   UNL     1      47.486   3.187  16.309  0.00  0.00    +0.000 OA
ATOM     22  H   UNL     1      46.766   6.061  15.185  0.00  0.00    +0.000 HD
BRANCH  20  23
ATOM     23  C   UNL     1      48.469   5.232  16.927  0.00  0.00    +0.000 A 
ATOM     24  C   UNL     1      48.592   5.004  18.291  0.00  0.00    +0.000 A 
ATOM     25  S   UNL     1      49.686   6.055  19.065  0.00  0.00    +0.000 S 
ATOM     26  C   UNL     1      50.006   6.881  17.612  0.00  0.00    +0.000 A 
ATOM     27  N   UNL     1      50.845   7.949  17.587  0.00  0.00    +0.000 NA
ATOM     28  C   UNL     1      50.964   8.509  16.427  0.00  0.00    +0.000 A 
ATOM     29  N   UNL     1      50.335   8.079  15.291  0.00  0.00    +0.000 N 
ATOM     30  C   UNL     1      49.550   6.950  15.250  0.00  0.00    +0.000 A 
ATOM     31  O   UNL     1      49.140   6.499  14.189  0.00  0.00    +0.000 OA
ATOM     32  C   UNL     1      49.327   6.327  16.540  0.00  0.00    +0.000 A 
ATOM     33  H   UNL     1      50.507   8.533  14.404  0.00  0.00    +0.000 HD
ENDBRANCH  20  23
ENDBRANCH  18  19
ENDBRANCH   4  18
TORSDOF 6
ENDMDL
MODEL 4
REMARK VINA RESULT:    -7.569      3.386      4.390
REMARK INTER + INTRA:         -10.643
REMARK INTER:                  -9.601
REMARK INTRA:                  -1.041
REMARK UNBOUND:                -0.419
REMARK  Name = 
REMARK  6 active torsions:
REMARK  status: ('A' for Active; 'I' for Inactive)
REMARK    1  A    between atoms: C_2  and  C_25
REMARK    2  A    between atoms: N_3  and  C_4
REMARK    3  A    between atoms: C_4  and  C_5
REMARK    4  A    between atoms: C_8  and  C_9
REMARK    5  A    between atoms: C_9  and  N_10
REMARK    6  A    between atoms: C_11  and  C_13
REMARK                            x       y       z     vdW  Elec       q    Type
REMARK                         _______ _______ _______ _____ _____    ______ ____
ROOT
ATOM      1  C   UNL     1      44.181   3.276  12.230  0.00  0.00    +0.000 C 
ATOM      2  C   UNL     1      45.672   3.653  12.245  0.00  0.00    +0.000 C 
ATOM      3  C   UNL     1      45.927   5.019  11.613  0.00  0.00    +0.000 C 
ATOM      4  C   UNL     1      45.121   6.141  12.289  0.00  0.00    +0.000 C 
ATOM      5  C   UNL     1      43.627   5.779  12.282  0.00  0.00    +0.000 C 
ATOM      6  C   UNL     1      43.345   4.396  12.878  0.00  0.00    +0.000 C 
ENDROOT
BRANCH   1   7
ATOM      7  C   UNL     1      43.664   2.972  10.810  0.00  0.00    +0.000 C 
BRANCH   7  10
ATOM      8  O   UNL     1      44.293   4.134   8.308  0.00  0.00    +0.000 OA
ATOM      9  C   UNL     1      44.949   3.175   8.703  0.00  0.00    +0.000 C 
ATOM     10  N   UNL     1      44.709   2.549   9.903  0.00  0.00    +0.000 N 
ATOM     11  H   UNL     1      45.366   1.854  10.226  0.00  0.00    +0.000 HD
BRANCH   9  12
ATOM     12  C   UNL     1      46.060   2.631   7.951  0.00  0.00    +0.000 A 
ATOM     13  C   UNL     1      46.986   3.224   7.106  0.00  0.00    +0.000 A 
ATOM     14  C   UNL     1      47.855   2.215   6.627  0.00  0.00    +0.000 A 
ATOM     15  C   UNL     1      47.455   1.028   7.195  0.00  0.00    +0.000 A 
ATOM     16  N   UNL     1      46.381   1.290   8.005  0.00  0.00    +0.000 N 
ATOM     17  H   UNL     1      45.875   0.614   8.563  0.00  0.00    +0.000 HD
ENDBRANCH   9  12
ENDBRANCH   7  10
ENDBRANCH   1   7
BRANCH   4  18
ATOM     18  C   UNL     1      45.618   6.447  13.714  0.00  0.00    +0.000 C 
BRANCH  18  19
ATOM     19  N   UNL     1      46.942   7.039  13.717  0.00  0.00    +0.000 N 
ATOM     20  C   UNL     1      48.007   6.441  14.338  0.00  0.00    +0.000 C 
ATOM     21  O   UNL     1      47.910   5.350  14.899  0.00  0.00    +0.000 OA
ATOM     22  H   UNL     1      47.027   8.002  13.403  0.00  0.00    +0.000 HD
BRANCH  20  23
ATOM     23  C   UNL     1      49.298   7.133  14.249  0.00  0.00    +0.000 A 
ATOM     24  C   UNL     1      50.127   7.168  15.362  0.00  0.00    +0.000 A 
ATOM     25  S   UNL     1      51.577   8.024  15.109  0.00  0.00    +0.000 S 
ATOM     26  C   UNL     1      51.134   8.414  13.513  0.00  0.00    +0.000 A 
ATOM     27  N   UNL     1      51.935   9.188  12.735  0.00  0.00    +0.000 NA
ATOM     28  C   UNL     1      51.457   9.441  11.561  0.00  0.00    +0.000 A 
ATOM     29  N   UNL     1      50.261   8.971  11.093  0.00  0.00    +0.000 N 
ATOM     30  C   UNL     1      49.462   8.111  11.809  0.00  0.00    +0.000 A 
ATOM     31  O   UNL     1      48.485   7.577  11.299  0.00  0.00    +0.000 OA
ATOM     32  C   UNL     1      49.918   7.853  13.161  0.00  0.00    +0.000 A 
ATOM     33  H   UNL     1      49.965   9.168  10.146  0.00  0.00    +0.000 HD
ENDBRANCH  20  23
ENDBRANCH  18  19
ENDBRANCH   4  18
TORSDOF 6
ENDMDL
MODEL 5
REMARK VINA RESULT:    -7.515      4.782      5.350
REMARK INTER + INTRA:         -10.571
REMARK INTER:                  -9.977
REMARK INTRA:                  -0.594
REMARK UNBOUND:                -0.419
REMARK  Name = 
REMARK  6 active torsions:
REMARK  status: ('A' for Active; 'I' for Inactive)
REMARK    1  A    between atoms: C_2  and  C_25
REMARK    2  A    between atoms: N_3  and  C_4
REMARK    3  A    between atoms: C_4  and  C_5
REMARK    4  A    between atoms: C_8  and  C_9
REMARK    5  A    between atoms: C_9  and  N_10
REMARK    6  A    between atoms: C_11  and  C_13
REMARK                            x       y       z     vdW  Elec       q    Type
REMARK                         _______ _______ _______ _____ _____    ______ ____
ROOT
ATOM      1  C   UNL     1      44.353   3.812  12.281  0.00  0.00    +0.000 C 
ATOM      2  C   UNL     1      45.548   4.657  11.810  0.00  0.00    +0.000 C 
ATOM      3  C   UNL     1      45.131   5.746  10.826  0.00  0.00    +0.000 C 
ATOM      4  C   UNL     1      44.054   6.680  11.401  0.00  0.00    +0.000 C 
ATOM      5  C   UNL     1      42.851   5.850  11.876  0.00  0.00    +0.000 C 
ATOM      6  C   UNL     1      43.244   4.725  12.839  0.00  0.00    +0.000 C 
ENDROOT
BRANCH   1   7
ATOM      7  C   UNL     1      43.792   2.909  11.164  0.00  0.00    +0.000 C 
BRANCH   7  10
ATOM      8  O   UNL     1      44.066   3.775   8.485  0.00  0.00    +0.000 OA
ATOM      9  C   UNL     1      44.863   2.957   8.933  0.00  0.00    +0.000 C 
ATOM     10  N   UNL     1      44.802   2.481  10.220  0.00  0.00    +0.000 N 
ATOM     11  H   UNL     1      45.563   1.912  10.562  0.00  0.00    +0.000 HD
BRANCH   9  12
ATOM     12  C   UNL     1      45.966   2.439   8.150  0.00  0.00    +0.000 A 
ATOM     13  C   UNL     1      46.442   1.150   7.960  0.00  0.00    +0.000 A 
ATOM     14  C   UNL     1      47.561   1.217   7.096  0.00  0.00    +0.000 A 
ATOM     15  C   UNL     1      47.742   2.539   6.763  0.00  0.00    +0.000 A 
ATOM     16  N   UNL     1      46.766   3.268   7.391  0.00  0.00    +0.000 N 
ATOM     17  H   UNL     1      46.636   4.270   7.330  0.00  0.00    +0.000 HD
ENDBRANCH   9  12
ENDBRANCH   7  10
ENDBRANCH   1   7
BRANCH   4  18
ATOM     18  C   UNL     1      44.595   7.580  12.528  0.00  0.00    +0.000 C 
BRANCH  18  19
ATOM     19  N   UNL     1      45.736   8.367  12.099  0.00  0.00    +0.000 N 
ATOM     20  C   UNL     1      46.917   8.379  12.794  0.00  0.00    +0.000 C 
ATOM     21  O   UNL     1      47.089   7.695  13.803  0.00  0.00    +0.000 OA
ATOM     22  H   UNL     1      45.583   9.057  11.369  0.00  0.00    +0.000 HD
BRANCH  20  23
ATOM     23  C   UNL     1      48.000   9.200  12.243  0.00  0.00    +0.000 A 
ATOM     24  C   UNL     1      47.777  10.551  12.015  0.00  0.00    +0.000 A 
ATOM     25  S   UNL     1      49.120  11.365  11.355  0.00  0.00    +0.000 S 
ATOM     26  C   UNL     1      50.038   9.933  11.313  0.00  0.00    +0.000 A 
ATOM     27  N   UNL     1      51.297   9.925  10.804  0.00  0.00    +0.000 NA
ATOM     28  C   UNL     1      51.863   8.762  10.794  0.00  0.00    +0.000 A 
ATOM     29  N   UNL     1      51.286   7.616  11.266  0.00  0.00    +0.000 N 
ATOM     30  C   UNL     1      50.052   7.592  11.873  0.00  0.00    +0.000 A 
ATOM     31  O   UNL     1      49.638   6.586  12.433  0.00  0.00    +0.000 OA
ATOM     32  C   UNL     1      49.345   8.858  11.845  0.00  0.00    +0.000 A 
ATOM     33  H   UNL     1      51.801   6.745  11.272  0.00  0.00    +0.000 HD
ENDBRANCH  20  23
ENDBRANCH  18  19
ENDBRANCH   4  18
TORSDOF 6
ENDMDL
MODEL 6
REMARK VINA RESULT:    -7.492      3.314      3.900
REMARK INTER + INTRA:         -10.539
REMARK INTER:                  -9.926
REMARK INTRA:                  -0.613
REMARK UNBOUND:                -0.419
REMARK  Name = 
REMARK  6 active torsions:
REMARK  status: ('A' for Active; 'I' for Inactive)
REMARK    1  A    between atoms: C_2  and  C_25
REMARK    2  A    between atoms: N_3  and  C_4
REMARK    3  A    between atoms: C_4  and  C_5
REMARK    4  A    between atoms: C_8  and  C_9
REMARK    5  A    between atoms: C_9  and  N_10
REMARK    6  A    between atoms: C_11  and  C_13
REMARK                            x       y       z     vdW  Elec       q    Type
REMARK                         _______ _______ _______ _____ _____    ______ ____
ROOT
ATOM      1  C   UNL     1      44.252   3.333  12.261  0.00  0.00    +0.000 C 
ATOM      2  C   UNL     1      45.673   3.899  12.101  0.00  0.00    +0.000 C 
ATOM      3  C   UNL     1      45.684   5.219  11.335  0.00  0.00    +0.000 C 
ATOM      4  C   UNL     1      44.791   6.287  11.988  0.00  0.00    +0.000 C 
ATOM      5  C   UNL     1      43.366   5.736  12.155  0.00  0.00    +0.000 C 
ATOM      6  C   UNL     1      43.327   4.392  12.889  0.00  0.00    +0.000 C 
ENDROOT
BRANCH   1   7
ATOM      7  C   UNL     1      43.664   2.830  10.927  0.00  0.00    +0.000 C 
BRANCH   7  10
ATOM      8  O   UNL     1      44.204   4.071   8.442  0.00  0.00    +0.000 OA
ATOM      9  C   UNL     1      44.874   3.102   8.784  0.00  0.00    +0.000 C 
ATOM     10  N   UNL     1      44.678   2.439   9.972  0.00  0.00    +0.000 N 
ATOM     11  H   UNL     1      45.346   1.735  10.249  0.00  0.00    +0.000 HD
BRANCH   9  12
ATOM     12  C   UNL     1      45.959   2.585   7.977  0.00  0.00    +0.000 A 
ATOM     13  C   UNL     1      46.802   3.192   7.058  0.00  0.00    +0.000 A 
ATOM     14  C   UNL     1      47.684   2.208   6.551  0.00  0.00    +0.000 A 
ATOM     15  C   UNL     1      47.375   1.023   7.176  0.00  0.00    +0.000 A 
ATOM     16  N   UNL     1      46.344   1.261   8.046  0.00  0.00    +0.000 N 
ATOM     17  H   UNL     1      45.905   0.581   8.654  0.00  0.00    +0.000 HD
ENDBRANCH   9  12
ENDBRANCH   7  10
ENDBRANCH   1   7
BRANCH   4  18
ATOM     18  C   UNL     1      45.359   6.790  13.329  0.00  0.00    +0.000 C 
BRANCH  18  19
ATOM     19  N   UNL     1      46.688   7.352  13.184  0.00  0.00    +0.000 N 
ATOM     20  C   UNL     1      47.808   6.704  13.634  0.00  0.00    +0.000 C 
ATOM     21  O   UNL     1      47.754   5.591  14.155  0.00  0.00    +0.000 OA
ATOM     22  H   UNL     1      46.758   8.327  12.904  0.00  0.00    +0.000 HD
BRANCH  20  23
ATOM     23  C   UNL     1      49.095   7.371  13.407  0.00  0.00    +0.000 A 
ATOM     24  C   UNL     1      49.421   7.796  12.126  0.00  0.00    +0.000 A 
ATOM     25  S   UNL     1      50.953   8.533  12.019  0.00  0.00    +0.000 S 
ATOM     26  C   UNL     1      51.255   8.276  13.673  0.00  0.00    +0.000 A 
ATOM     27  N   UNL     1      52.437   8.640  14.233  0.00  0.00    +0.000 NA
ATOM     28  C   UNL     1      52.549   8.347  15.488  0.00  0.00    +0.000 A 
ATOM     29  N   UNL     1      51.574   7.742  16.232  0.00  0.00    +0.000 N 
ATOM     30  C   UNL     1      50.329   7.439  15.732  0.00  0.00    +0.000 A 
ATOM     31  O   UNL     1      49.427   7.054  16.464  0.00  0.00    +0.000 OA
ATOM     32  C   UNL     1      50.177   7.682  14.311  0.00  0.00    +0.000 A 
ATOM     33  H   UNL     1      51.706   7.582  17.221  0.00  0.00    +0.000 HD
ENDBRANCH  20  23
ENDBRANCH  18  19
ENDBRANCH   4  18
TORSDOF 6
ENDMDL
MODEL 7
REMARK VINA RESULT:    -7.420      1.459      2.169
REMARK INTER + INTRA:         -10.441
REMARK INTER:                  -9.894
REMARK INTRA:                  -0.547
REMARK UNBOUND:                -0.419
REMARK  Name = 
REMARK  6 active torsions:
REMARK  status: ('A' for Active; 'I' for Inactive)
REMARK    1  A    between atoms: C_2  and  C_25
REMARK    2  A    between atoms: N_3  and  C_4
REMARK    3  A    between atoms: C_4  and  C_5
REMARK    4  A    between atoms: C_8  and  C_9
REMARK    5  A    between atoms: C_9  and  N_10
REMARK    6  A    between atoms: C_11  and  C_13
REMARK                            x       y       z     vdW  Elec       q    Type
REMARK                         _______ _______ _______ _____ _____    ______ ____
ROOT
ATOM      1  C   UNL     1      43.927   5.016  12.052  0.00  0.00    +0.000 C 
ATOM      2  C   UNL     1      44.415   3.635  12.522  0.00  0.00    +0.000 C 
ATOM      3  C   UNL     1      45.937   3.521  12.490  0.00  0.00    +0.000 C 
ATOM      4  C   UNL     1      46.627   4.608  13.330  0.00  0.00    +0.000 C 
ATOM      5  C   UNL     1      46.150   5.995  12.872  0.00  0.00    +0.000 C 
ATOM      6  C   UNL     1      44.624   6.128  12.859  0.00  0.00    +0.000 C 
ENDROOT
BRANCH   1   7
ATOM      7  C   UNL     1      44.142   5.235  10.541  0.00  0.00    +0.000 C 
BRANCH   7  10
ATOM      8  O   UNL     1      45.975   5.248   8.386  0.00  0.00    +0.000 OA
ATOM      9  C   UNL     1      45.584   4.173   8.831  0.00  0.00    +0.000 C 
ATOM     10  N   UNL     1      44.693   4.076   9.873  0.00  0.00    +0.000 N 
ATOM     11  H   UNL     1      44.514   3.166  10.273  0.00  0.00    +0.000 HD
BRANCH   9  12
ATOM     12  C   UNL     1      46.050   2.903   8.316  0.00  0.00    +0.000 A 
ATOM     13  C   UNL     1      45.720   1.595   8.637  0.00  0.00    +0.000 A 
ATOM     14  C   UNL     1      46.492   0.732   7.823  0.00  0.00    +0.000 A 
ATOM     15  C   UNL     1      47.269   1.525   7.012  0.00  0.00    +0.000 A 
ATOM     16  N   UNL     1      46.986   2.833   7.304  0.00  0.00    +0.000 N 
ATOM     17  H   UNL     1      47.397   3.646   6.863  0.00  0.00    +0.000 HD
ENDBRANCH   9  12
ENDBRANCH   7  10
ENDBRANCH   1   7
BRANCH   4  18
ATOM     18  C   UNL     1      46.411   4.411  14.842  0.00  0.00    +0.000 C 
BRANCH  18  19
ATOM     19  N   UNL     1      47.650   4.509  15.590  0.00  0.00    +0.000 N 
ATOM     20  C   UNL     1      47.910   3.718  16.679  0.00  0.00    +0.000 C 
ATOM     21  O   UNL     1      47.122   2.856  17.064  0.00  0.00    +0.000 OA
ATOM     22  H   UNL     1      48.251   5.306  15.401  0.00  0.00    +0.000 HD
BRANCH  20  23
ATOM     23  C   UNL     1      49.210   3.902  17.334  0.00  0.00    +0.000 A 
ATOM     24  C   UNL     1      50.155   2.888  17.261  0.00  0.00    +0.000 A 
ATOM     25  S   UNL     1      51.603   3.241  18.086  0.00  0.00    +0.000 S 
ATOM     26  C   UNL     1      51.005   4.747  18.606  0.00  0.00    +0.000 A 
ATOM     27  N   UNL     1      51.747   5.553  19.408  0.00  0.00    +0.000 NA
ATOM     28  C   UNL     1      51.155   6.647  19.762  0.00  0.00    +0.000 A 
ATOM     29  N   UNL     1      49.897   7.011  19.366  0.00  0.00    +0.000 N 
ATOM     30  C   UNL     1      49.146   6.272  18.482  0.00  0.00    +0.000 A 
ATOM     31  O   UNL     1      48.100   6.705  18.018  0.00  0.00    +0.000 OA
ATOM     32  C   UNL     1      49.736   5.000  18.111  0.00  0.00    +0.000 A 
ATOM     33  H   UNL     1      49.509   7.903  19.640  0.00  0.00    +0.000 HD
ENDBRANCH  20  23
ENDBRANCH  18  19
ENDBRANCH   4  18
TORSDOF 6
ENDMDL
MODEL 8
REMARK VINA RESULT:    -7.130      2.008      2.597
REMARK INTER + INTRA:         -10.050
REMARK INTER:                  -9.388
REMARK INTRA:                  -0.662
REMARK UNBOUND:                -0.419
REMARK  Name = 
REMARK  6 active torsions:
REMARK  status: ('A' for Active; 'I' for Inactive)
REMARK    1  A    between atoms: C_2  and  C_25
REMARK    2  A    between atoms: N_3  and  C_4
REMARK    3  A    between atoms: C_4  and  C_5
REMARK    4  A    between atoms: C_8  and  C_9
REMARK    5  A    between atoms: C_9  and  N_10
REMARK    6  A    between atoms: C_11  and  C_13
REMARK                            x       y       z     vdW  Elec       q    Type
REMARK                         _______ _______ _______ _____ _____    ______ ____
ROOT
ATOM      1  C   UNL     1      45.484   7.054  12.640  0.00  0.00    +0.000 C 
ATOM      2  C   UNL     1      46.290   5.864  13.187  0.00  0.00    +0.000 C 
ATOM      3  C   UNL     1      47.793   6.049  12.995  0.00  0.00    +0.000 C 
ATOM      4  C   UNL     1      48.314   7.344  13.640  0.00  0.00    +0.000 C 
ATOM      5  C   UNL     1      47.518   8.545  13.103  0.00  0.00    +0.000 C 
ATOM      6  C   UNL     1      46.004   8.371  13.249  0.00  0.00    +0.000 C 
ENDROOT
BRANCH   1   7
ATOM      7  C   UNL     1      45.512   7.128  11.100  0.00  0.00    +0.000 C 
BRANCH   7  10
ATOM      8  O   UNL     1      43.402   5.394  10.362  0.00  0.00    +0.000 OA
ATOM      9  C   UNL     1      44.560   5.051  10.144  0.00  0.00    +0.000 C 
ATOM     10  N   UNL     1      45.644   5.830  10.473  0.00  0.00    +0.000 N 
ATOM     11  H   UNL     1      46.558   5.549  10.149  0.00  0.00    +0.000 HD
BRANCH   9  12
ATOM     12  C   UNL     1      44.891   3.803   9.491  0.00  0.00    +0.000 A 
ATOM     13  C   UNL     1      44.520   2.492   9.754  0.00  0.00    +0.000 A 
ATOM     14  C   UNL     1      45.147   1.657   8.799  0.00  0.00    +0.000 A 
ATOM     15  C   UNL     1      45.878   2.468   7.964  0.00  0.00    +0.000 A 
ATOM     16  N   UNL     1      45.707   3.763   8.378  0.00  0.00    +0.000 N 
ATOM     17  H   UNL     1      46.116   4.586   7.953  0.00  0.00    +0.000 HD
ENDBRANCH   9  12
ENDBRANCH   7  10
ENDBRANCH   1   7
BRANCH   4  18
ATOM     18  C   UNL     1      48.280   7.292  15.179  0.00  0.00    +0.000 C 
BRANCH  18  19
ATOM     19  N   UNL     1      49.391   6.535  15.725  0.00  0.00    +0.000 N 
ATOM     20  C   UNL     1      49.309   5.883  16.927  0.00  0.00    +0.000 C 
ATOM     21  O   UNL     1      48.276   5.872  17.596  0.00  0.00    +0.000 OA
ATOM     22  H   UNL     1      50.300   6.649  15.284  0.00  0.00    +0.000 HD
BRANCH  20  23
ATOM     23  C   UNL     1      50.496   5.136  17.357  0.00  0.00    +0.000 A 
ATOM     24  C   UNL     1      51.599   5.832  17.834  0.00  0.00    +0.000 A 
ATOM     25  S   UNL     1      52.904   4.829  18.273  0.00  0.00    +0.000 S 
ATOM     26  C   UNL     1      52.058   3.429  17.804  0.00  0.00    +0.000 A 
ATOM     27  N   UNL     1      52.640   2.204  17.882  0.00  0.00    +0.000 NA
ATOM     28  C   UNL     1      51.900   1.233  17.453  0.00  0.00    +0.000 A 
ATOM     29  N   UNL     1      50.628   1.381  16.975  0.00  0.00    +0.000 N 
ATOM     30  C   UNL     1      49.966   2.586  16.964  0.00  0.00    +0.000 A 
ATOM     31  O   UNL     1      48.776   2.656  16.689  0.00  0.00    +0.000 OA
ATOM     32  C   UNL     1      50.776   3.719  17.368  0.00  0.00    +0.000 A 
ATOM     33  H   UNL     1      50.085   0.574  16.698  0.00  0.00    +0.000 HD
ENDBRANCH  20  23
ENDBRANCH  18  19
ENDBRANCH   4  18
TORSDOF 6
ENDMDL
MODEL 9
REMARK VINA RESULT:    -6.766      3.746      9.833
REMARK INTER + INTRA:          -9.558
REMARK INTER:                  -8.811
REMARK INTRA:                  -0.747
REMARK UNBOUND:                -0.419
REMARK  Name = 
REMARK  6 active torsions:
REMARK  status: ('A' for Active; 'I' for Inactive)
REMARK    1  A    between atoms: C_2  and  C_25
REMARK    2  A    between atoms: N_3  and  C_4
REMARK    3  A    between atoms: C_4  and  C_5
REMARK    4  A    between atoms: C_8  and  C_9
REMARK    5  A    between atoms: C_9  and  N_10
REMARK    6  A    between atoms: C_11  and  C_13
REMARK                            x       y       z     vdW  Elec       q    Type
REMARK                         _______ _______ _______ _____ _____    ______ ____
ROOT
ATOM      1  C   UNL     1      50.716   4.990  17.576  0.00  0.00    +0.000 C 
ATOM      2  C   UNL     1      50.300   3.524  17.787  0.00  0.00    +0.000 C 
ATOM      3  C   UNL     1      48.960   3.403  18.507  0.00  0.00    +0.000 C 
ATOM      4  C   UNL     1      47.828   4.142  17.773  0.00  0.00    +0.000 C 
ATOM      5  C   UNL     1      48.228   5.611  17.555  0.00  0.00    +0.000 C 
ATOM      6  C   UNL     1      49.588   5.763  16.866  0.00  0.00    +0.000 C 
ENDROOT
BRANCH   1   7
ATOM      7  C   UNL     1      51.099   5.690  18.895  0.00  0.00    +0.000 C 
BRANCH   7  10
ATOM      8  O   UNL     1      49.621   7.174  20.798  0.00  0.00    +0.000 OA
ATOM      9  C   UNL     1      50.123   7.759  19.843  0.00  0.00    +0.000 C 
ATOM     10  N   UNL     1      50.854   7.116  18.873  0.00  0.00    +0.000 N 
ATOM     11  H   UNL     1      51.347   7.673  18.190  0.00  0.00    +0.000 HD
BRANCH   9  12
ATOM     12  C   UNL     1      50.018   9.192  19.668  0.00  0.00    +0.000 A 
ATOM     13  C   UNL     1      49.996  10.238  20.578  0.00  0.00    +0.000 A 
ATOM     14  C   UNL     1      49.867  11.449  19.856  0.00  0.00    +0.000 A 
ATOM     15  C   UNL     1      49.824  11.124  18.520  0.00  0.00    +0.000 A 
ATOM     16  N   UNL     1      49.931   9.763  18.414  0.00  0.00    +0.000 N 
ATOM     17  H   UNL     1      49.939   9.229  17.554  0.00  0.00    +0.000 HD
ENDBRANCH   9  12
ENDBRANCH   7  10
ENDBRANCH   1   7
BRANCH   4  18
ATOM     18  C   UNL     1      47.443   3.462  16.446  0.00  0.00    +0.000 C 
BRANCH  18  19
ATOM     19  N   UNL     1      46.784   4.378  15.534  0.00  0.00    +0.000 N 
ATOM     20  C   UNL     1      46.836   4.217  14.174  0.00  0.00    +0.000 C 
ATOM     21  O   UNL     1      47.415   3.267  13.650  0.00  0.00    +0.000 OA
ATOM     22  H   UNL     1      46.432   5.251  15.917  0.00  0.00    +0.000 HD
BRANCH  20  23
ATOM     23  C   UNL     1      46.109   5.201  13.364  0.00  0.00    +0.000 A 
ATOM     24  C   UNL     1      46.652   6.466  13.185  0.00  0.00    +0.000 A 
ATOM     25  S   UNL     1      45.683   7.500  12.240  0.00  0.00    +0.000 S 
ATOM     26  C   UNL     1      44.482   6.307  12.066  0.00  0.00    +0.000 A 
ATOM     27  N   UNL     1      43.334   6.567  11.389  0.00  0.00    +0.000 NA
ATOM     28  C   UNL     1      42.490   5.586  11.372  0.00  0.00    +0.000 A 
ATOM     29  N   UNL     1      42.706   4.368  11.953  0.00  0.00    +0.000 N 
ATOM     30  C   UNL     1      43.888   4.029  12.569  0.00  0.00    +0.000 A 
ATOM     31  O   UNL     1      44.112   2.882  12.929  0.00  0.00    +0.000 OA
ATOM     32  C   UNL     1      44.840   5.118  12.678  0.00  0.00    +0.000 A 
ATOM     33  H   UNL     1      42.024   3.626  11.863  0.00  0.00    +0.000 HD
ENDBRANCH  20  23
ENDBRANCH  18  19
ENDBRANCH   4  18
TORSDOF 6
ENDMDL
