MODEL 1
REMARK VINA RESULT:    -8.178      0.000      0.000
REMARK INTER + INTRA:         -13.015
REMARK INTER:                 -11.763
REMARK INTRA:                  -1.252
REMARK UNBOUND:                -1.252
REMARK  Name = 
REMARK  8 active torsions:
REMARK  status: ('A' for Active; 'I' for Inactive)
REMARK    1  A    between atoms: C_2  and  C_20
REMARK    2  A    between atoms: N_3  and  C_4
REMARK    3  A    between atoms: C_4  and  C_5
REMARK    4  A    between atoms: C_8  and  C_9
REMARK    5  A    between atoms: C_9  and  O_10
REMARK    6  A    between atoms: C_9  and  C_11
REMARK    7  A    between atoms: C_11  and  C_12
REMARK    8  A    between atoms: C_12  and  N_13
REMARK                            x       y       z     vdW  Elec       q    Type
REMARK                         _______ _______ _______ _____ _____    ______ ____
ROOT
ATOM      1  C   UNL     1      46.810   7.880  13.137  0.00  0.00    +0.000 C 
ENDROOT
BRANCH   1   2
ATOM      2  C   UNL     1      45.982   6.902  12.356  0.00  0.00    +0.000 A 
ATOM      3  C   UNL     1      46.347   6.514  11.066  0.00  0.00    +0.000 A 
ATOM      4  C   UNL     1      45.609   5.541  10.398  0.00  0.00    +0.000 A 
ATOM      5  C   UNL     1      44.514   4.971  11.038  0.00  0.00    +0.000 A 
ATOM      6  N   UNL     1      44.104   5.371  12.273  0.00  0.00    +0.000 NA
ATOM      7  C   UNL     1      44.855   6.304  12.905  0.00  0.00    +0.000 A 
BRANCH   5   8
ATOM      8  C   UNL     1      43.711   3.869  10.369  0.00  0.00    +0.000 C 
BRANCH   8   9
ATOM      9  O   UNL     1      42.710   3.409  11.282  0.00  0.00    +0.000 OA
ATOM     10  H   UNL     1      43.044   3.657  12.166  0.00  0.00    +0.000 HD
ENDBRANCH   8   9
BRANCH   8  11
ATOM     11  C   UNL     1      44.621   2.691   9.988  0.00  0.00    +0.000 C 
BRANCH  11  12
ATOM     12  C   UNL     1      44.948   2.687   8.487  0.00  0.00    +0.000 C 
BRANCH  12  13
ATOM     13  N   UNL     1      46.395   2.707   8.205  0.00  0.00    +0.000 NA
ATOM     14  C   UNL     1      46.734   3.787   7.261  0.00  0.00    +0.000 C 
ATOM     15  C   UNL     1      46.662   3.159   5.882  0.00  0.00    +0.000 C 
ATOM     16  C   UNL     1      47.183   1.758   6.114  0.00  0.00    +0.000 C 
ATOM     17  C   UNL     1      46.889   1.466   7.580  0.00  0.00    +0.000 C 
ENDBRANCH  12  13
ENDBRANCH  11  12
ENDBRANCH   8  11
ENDBRANCH   5   8
ENDBRANCH   1   2
BRANCH   1  20
ATOM     18  O   UNL     1      49.371   6.741  13.495  0.00  0.00    +0.000 OA
ATOM     19  C   UNL     1      48.594   6.769  14.443  0.00  0.00    +0.000 C 
ATOM     20  N   UNL     1      47.328   7.285  14.345  0.00  0.00    +0.000 N 
ATOM     21  H   UNL     1      46.747   7.352  15.173  0.00  0.00    +0.000 HD
BRANCH  19  22
ATOM     22  C   UNL     1      48.963   6.214  15.752  0.00  0.00    +0.000 A 
ATOM     23  C   UNL     1      49.950   6.824  16.511  0.00  0.00    +0.000 A 
ATOM     24  S   UNL     1      50.236   6.057  18.008  0.00  0.00    +0.000 S 
ATOM     25  C   UNL     1      49.021   4.905  17.710  0.00  0.00    +0.000 A 
ATOM     26  N   UNL     1      48.719   3.954  18.636  0.00  0.00    +0.000 NA
ATOM     27  C   UNL     1      47.750   3.169  18.298  0.00  0.00    +0.000 A 
ATOM     28  N   UNL     1      47.066   3.239  17.111  0.00  0.00    +0.000 N 
ATOM     29  C   UNL     1      47.384   4.137  16.119  0.00  0.00    +0.000 A 
ATOM     30  O   UNL     1      46.836   4.090  15.023  0.00  0.00    +0.000 OA
ATOM     31  C   UNL     1      48.431   5.078  16.473  0.00  0.00    +0.000 A 
ATOM     32  H   UNL     1      46.341   2.573  16.895  0.00  0.00    +0.000 HD
ENDBRANCH  19  22
ENDBRANCH   1  20
TORSDOF 8
ENDMDL
MODEL 2
REMARK VINA RESULT:    -7.670      1.640      1.864
REMARK INTER + INTRA:         -12.284
REMARK INTER:                 -11.091
REMARK INTRA:                  -1.193
REMARK UNBOUND:                -1.252
REMARK  Name = 
REMARK  8 active torsions:
REMARK  status: ('A' for Active; 'I' for Inactive)
REMARK    1  A    between atoms: C_2  and  C_20
REMARK    2  A    between atoms: N_3  and  C_4
REMARK    3  A    between atoms: C_4  and  C_5
REMARK    4  A    between atoms: C_8  and  C_9
REMARK    5  A    between atoms: C_9  and  O_10
REMARK    6  A    between atoms: C_9  and  C_11
REMARK    7  A    between atoms: C_11  and  C_12
REMARK    8  A    between atoms: C_12  and  N_13
REMARK                            x       y       z     vdW  Elec       q    Type
REMARK                         _______ _______ _______ _____ _____    ______ ____
ROOT
ATOM      1  C   UNL     1      48.340   6.698  13.419  0.00  0.00    +0.000 C 
ENDROOT
BRANCH   1   2
ATOM      2  C   UNL     1      47.177   6.038  12.738  0.00  0.00    +0.000 A 
ATOM      3  C   UNL     1      46.602   6.591  11.592  0.00  0.00    +0.000 A 
ATOM      4  C   UNL     1      45.581   5.914  10.930  0.00  0.00    +0.000 A 
ATOM      5  C   UNL     1      45.154   4.688  11.431  0.00  0.00    +0.000 A 
ATOM      6  N   UNL     1      45.659   4.155  12.577  0.00  0.00    +0.000 NA
ATOM      7  C   UNL     1      46.665   4.827  13.184  0.00  0.00    +0.000 A 
BRANCH   5   8
ATOM      8  C   UNL     1      44.080   3.889  10.714  0.00  0.00    +0.000 C 
BRANCH   8   9
ATOM      9  O   UNL     1      44.309   2.497  10.946  0.00  0.00    +0.000 OA
ATOM     10  H   UNL     1      44.452   2.424  11.910  0.00  0.00    +0.000 HD
ENDBRANCH   8   9
BRANCH   8  11
ATOM     11  C   UNL     1      44.125   4.158   9.202  0.00  0.00    +0.000 C 
BRANCH  11  12
ATOM     12  C   UNL     1      44.609   2.927   8.419  0.00  0.00    +0.000 C 
BRANCH  12  13
ATOM     13  N   UNL     1      46.079   2.819   8.353  0.00  0.00    +0.000 NA
ATOM     14  C   UNL     1      46.632   3.761   7.363  0.00  0.00    +0.000 C 
ATOM     15  C   UNL     1      46.702   2.987   6.060  0.00  0.00    +0.000 C 
ATOM     16  C   UNL     1      47.070   1.591   6.510  0.00  0.00    +0.000 C 
ATOM     17  C   UNL     1      46.552   1.486   7.939  0.00  0.00    +0.000 C 
ENDBRANCH  12  13
ENDBRANCH  11  12
ENDBRANCH   8  11
ENDBRANCH   5   8
ENDBRANCH   1   2
BRANCH   1  20
ATOM     18  O   UNL     1      50.378   6.800  15.373  0.00  0.00    +0.000 OA
ATOM     19  C   UNL     1      49.206   6.803  15.734  0.00  0.00    +0.000 C 
ATOM     20  N   UNL     1      48.161   6.734  14.849  0.00  0.00    +0.000 N 
ATOM     21  H   UNL     1      47.210   6.811  15.190  0.00  0.00    +0.000 HD
BRANCH  19  22
ATOM     22  C   UNL     1      48.844   6.845  17.157  0.00  0.00    +0.000 A 
ATOM     23  C   UNL     1      48.361   8.019  17.714  0.00  0.00    +0.000 A 
ATOM     24  S   UNL     1      47.974   7.883  19.370  0.00  0.00    +0.000 S 
ATOM     25  C   UNL     1      48.403   6.237  19.390  0.00  0.00    +0.000 A 
ATOM     26  N   UNL     1      48.270   5.494  20.522  0.00  0.00    +0.000 NA
ATOM     27  C   UNL     1      48.593   4.251  20.386  0.00  0.00    +0.000 A 
ATOM     28  N   UNL     1      49.053   3.686  19.224  0.00  0.00    +0.000 N 
ATOM     29  C   UNL     1      49.270   4.413  18.077  0.00  0.00    +0.000 A 
ATOM     30  O   UNL     1      49.798   3.904  17.095  0.00  0.00    +0.000 OA
ATOM     31  C   UNL     1      48.869   5.805  18.163  0.00  0.00    +0.000 A 
ATOM     32  H   UNL     1      49.321   2.715  19.194  0.00  0.00    +0.000 HD
ENDBRANCH  19  22
ENDBRANCH   1  20
TORSDOF 8
ENDMDL
MODEL 3
REMARK VINA RESULT:    -7.438      2.374      2.849
REMARK INTER + INTRA:         -11.951
REMARK INTER:                 -10.603
REMARK INTRA:                  -1.349
REMARK UNBOUND:                -1.252
REMARK  Name = 
REMARK  8 active torsions:
REMARK  status: ('A' for Active; 'I' for Inactive)
REMARK    1  A    between atoms: C_2  and  C_20
REMARK    2  A    between atoms: N_3  and  C_4
REMARK    3  A    between atoms: C_4  and  C_5
REMARK    4  A    between atoms: C_8  and  C_9
REMARK    5  A    between atoms: C_9  and  O_10
REMARK    6  A    between atoms: C_9  and  C_11
REMARK    7  A    between atoms: C_11  and  C_12
REMARK    8  A    between atoms: C_12  and  N_13
REMARK                            x       y       z     vdW  Elec       q    Type
REMARK                         _______ _______ _______ _____ _____    ______ ____
ROOT
ATOM      1  C   UNL     1      48.164   6.944  13.671  0.00  0.00    +0.000 C 
ENDROOT
BRANCH   1   2
ATOM      2  C   UNL     1      47.087   6.212  12.925  0.00  0.00    +0.000 A 
ATOM      3  C   UNL     1      46.531   6.739  11.758  0.00  0.00    +0.000 A 
ATOM      4  C   UNL     1      45.597   6.000  11.037  0.00  0.00    +0.000 A 
ATOM      5  C   UNL     1      45.236   4.739  11.502  0.00  0.00    +0.000 A 
ATOM      6  N   UNL     1      45.721   4.226  12.665  0.00  0.00    +0.000 NA
ATOM      7  C   UNL     1      46.644   4.960  13.331  0.00  0.00    +0.000 A 
BRANCH   5   8
ATOM      8  C   UNL     1      44.260   3.875  10.722  0.00  0.00    +0.000 C 
BRANCH   8   9
ATOM      9  O   UNL     1      44.630   2.503  10.881  0.00  0.00    +0.000 OA
ATOM     10  H   UNL     1      43.875   2.092  11.348  0.00  0.00    +0.000 HD
ENDBRANCH   8   9
BRANCH   8  11
ATOM     11  C   UNL     1      44.295   4.233   9.228  0.00  0.00    +0.000 C 
BRANCH  11  12
ATOM     12  C   UNL     1      44.715   3.032   8.366  0.00  0.00    +0.000 C 
BRANCH  12  13
ATOM     13  N   UNL     1      46.178   2.861   8.276  0.00  0.00    +0.000 NA
ATOM     14  C   UNL     1      46.751   3.754   7.254  0.00  0.00    +0.000 C 
ATOM     15  C   UNL     1      46.765   2.946   5.970  0.00  0.00    +0.000 C 
ATOM     16  C   UNL     1      47.083   1.547   6.447  0.00  0.00    +0.000 C 
ATOM     17  C   UNL     1      46.588   1.499   7.888  0.00  0.00    +0.000 C 
ENDBRANCH  12  13
ENDBRANCH  11  12
ENDBRANCH   8  11
ENDBRANCH   5   8
ENDBRANCH   1   2
BRANCH   1  20
ATOM     18  O   UNL     1      50.144   6.353  15.598  0.00  0.00    +0.000 OA
ATOM     19  C   UNL     1      48.997   6.571  15.971  0.00  0.00    +0.000 C 
ATOM     20  N   UNL     1      47.976   6.845  15.098  0.00  0.00    +0.000 N 
ATOM     21  H   UNL     1      47.060   7.089  15.457  0.00  0.00    +0.000 HD
BRANCH  19  22
ATOM     22  C   UNL     1      48.631   6.520  17.393  0.00  0.00    +0.000 A 
ATOM     23  C   UNL     1      48.781   5.340  18.105  0.00  0.00    +0.000 A 
ATOM     24  S   UNL     1      48.325   5.467  19.744  0.00  0.00    +0.000 S 
ATOM     25  C   UNL     1      47.950   7.117  19.568  0.00  0.00    +0.000 A 
ATOM     26  N   UNL     1      47.527   7.854  20.631  0.00  0.00    +0.000 NA
ATOM     27  C   UNL     1      47.316   9.100  20.365  0.00  0.00    +0.000 A 
ATOM     28  N   UNL     1      47.474   9.674  19.129  0.00  0.00    +0.000 N 
ATOM     29  C   UNL     1      47.830   8.953  18.013  0.00  0.00    +0.000 A 
ATOM     30  O   UNL     1      47.841   9.470  16.902  0.00  0.00    +0.000 OA
ATOM     31  C   UNL     1      48.133   7.557  18.271  0.00  0.00    +0.000 A 
ATOM     32  H   UNL     1      47.259  10.647  18.982  0.00  0.00    +0.000 HD
ENDBRANCH  19  22
ENDBRANCH   1  20
TORSDOF 8
ENDMDL
MODEL 4
REMARK VINA RESULT:    -7.133      1.575      2.019
REMARK INTER + INTRA:         -11.513
REMARK INTER:                 -10.370
REMARK INTRA:                  -1.143
REMARK UNBOUND:                -1.252
REMARK  Name = 
REMARK  8 active torsions:
REMARK  status: ('A' for Active; 'I' for Inactive)
REMARK    1  A    between atoms: C_2  and  C_20
REMARK    2  A    between atoms: N_3  and  C_4
REMARK    3  A    between atoms: C_4  and  C_5
REMARK    4  A    between atoms: C_8  and  C_9
REMARK    5  A    between atoms: C_9  and  O_10
REMARK    6  A    between atoms: C_9  and  C_11
REMARK    7  A    between atoms: C_11  and  C_12
REMARK    8  A    between atoms: C_12  and  N_13
REMARK                            x       y       z     vdW  Elec       q    Type
REMARK                         _______ _______ _______ _____ _____    ______ ____
ROOT
ATOM      1  C   UNL     1      48.168   6.860  13.751  0.00  0.00    +0.000 C 
ENDROOT
BRANCH   1   2
ATOM      2  C   UNL     1      46.950   6.091  13.329  0.00  0.00    +0.000 A 
ATOM      3  C   UNL     1      46.127   6.550  12.299  0.00  0.00    +0.000 A 
ATOM      4  C   UNL     1      45.054   5.774  11.869  0.00  0.00    +0.000 A 
ATOM      5  C   UNL     1      44.825   4.546  12.481  0.00  0.00    +0.000 A 
ATOM      6  N   UNL     1      45.578   4.102  13.523  0.00  0.00    +0.000 NA
ATOM      7  C   UNL     1      46.627   4.869  13.904  0.00  0.00    +0.000 A 
BRANCH   5   8
ATOM      8  C   UNL     1      43.698   3.643  12.010  0.00  0.00    +0.000 C 
BRANCH   8   9
ATOM      9  O   UNL     1      43.860   2.354  12.608  0.00  0.00    +0.000 OA
ATOM     10  H   UNL     1      43.342   1.749  12.043  0.00  0.00    +0.000 HD
ENDBRANCH   8   9
BRANCH   8  11
ATOM     11  C   UNL     1      43.727   3.494  10.481  0.00  0.00    +0.000 C 
BRANCH  11  12
ATOM     12  C   UNL     1      44.879   2.587  10.021  0.00  0.00    +0.000 C 
BRANCH  12  13
ATOM     13  N   UNL     1      44.796   2.217   8.596  0.00  0.00    +0.000 NA
ATOM     14  C   UNL     1      45.933   1.363   8.206  0.00  0.00    +0.000 C 
ATOM     15  C   UNL     1      47.003   2.314   7.706  0.00  0.00    +0.000 C 
ATOM     16  C   UNL     1      46.206   3.393   7.007  0.00  0.00    +0.000 C 
ATOM     17  C   UNL     1      44.841   3.375   7.684  0.00  0.00    +0.000 C 
ENDBRANCH  12  13
ENDBRANCH  11  12
ENDBRANCH   8  11
ENDBRANCH   5   8
ENDBRANCH   1   2
BRANCH   1  20
ATOM     18  O   UNL     1      50.617   7.163  15.127  0.00  0.00    +0.000 OA
ATOM     19  C   UNL     1      49.593   6.962  15.771  0.00  0.00    +0.000 C 
ATOM     20  N   UNL     1      48.370   6.784  15.177  0.00  0.00    +0.000 N 
ATOM     21  H   UNL     1      47.541   6.692  15.752  0.00  0.00    +0.000 HD
BRANCH  19  22
ATOM     22  C   UNL     1      49.616   6.865  17.237  0.00  0.00    +0.000 A 
ATOM     23  C   UNL     1      50.012   7.955  17.997  0.00  0.00    +0.000 A 
ATOM     24  S   UNL     1      49.962   7.671  19.679  0.00  0.00    +0.000 S 
ATOM     25  C   UNL     1      49.372   6.092  19.449  0.00  0.00    +0.000 A 
ATOM     26  N   UNL     1      49.073   5.297  20.512  0.00  0.00    +0.000 NA
ATOM     27  C   UNL     1      48.597   4.139  20.194  0.00  0.00    +0.000 A 
ATOM     28  N   UNL     1      48.406   3.698  18.910  0.00  0.00    +0.000 N 
ATOM     29  C   UNL     1      48.760   4.439  17.807  0.00  0.00    +0.000 A 
ATOM     30  O   UNL     1      48.693   3.967  16.678  0.00  0.00    +0.000 OA
ATOM     31  C   UNL     1      49.249   5.772  18.110  0.00  0.00    +0.000 A 
ATOM     32  H   UNL     1      48.061   2.768  18.730  0.00  0.00    +0.000 HD
ENDBRANCH  19  22
ENDBRANCH   1  20
TORSDOF 8
ENDMDL
MODEL 5
REMARK VINA RESULT:    -6.938      2.642      3.062
REMARK INTER + INTRA:         -11.232
REMARK INTER:                 -10.328
REMARK INTRA:                  -0.904
REMARK UNBOUND:                -1.252
REMARK  Name = 
REMARK  8 active torsions:
REMARK  status: ('A' for Active; 'I' for Inactive)
REMARK    1  A    between atoms: C_2  and  C_20
REMARK    2  A    between atoms: N_3  and  C_4
REMARK    3  A    between atoms: C_4  and  C_5
REMARK    4  A    between atoms: C_8  and  C_9
REMARK    5  A    between atoms: C_9  and  O_10
REMARK    6  A    between atoms: C_9  and  C_11
REMARK    7  A    between atoms: C_11  and  C_12
REMARK    8  A    between atoms: C_12  and  N_13
REMARK                            x       y       z     vdW  Elec       q    Type
REMARK                         _______ _______ _______ _____ _____    ______ ____
ROOT
ATOM      1  C   UNL     1      47.490   4.229  15.081  0.00  0.00    +0.000 C 
ENDROOT
BRANCH   1   2
ATOM      2  C   UNL     1      46.657   4.405  13.845  0.00  0.00    +0.000 A 
ATOM      3  C   UNL     1      46.554   5.646  13.214  0.00  0.00    +0.000 A 
ATOM      4  C   UNL     1      45.846   5.763  12.021  0.00  0.00    +0.000 A 
ATOM      5  C   UNL     1      45.252   4.627  11.479  0.00  0.00    +0.000 A 
ATOM      6  N   UNL     1      45.290   3.419  12.103  0.00  0.00    +0.000 NA
ATOM      7  C   UNL     1      46.004   3.334  13.250  0.00  0.00    +0.000 A 
BRANCH   5   8
ATOM      8  C   UNL     1      44.514   4.696  10.154  0.00  0.00    +0.000 C 
BRANCH   8   9
ATOM      9  O   UNL     1      43.322   5.467  10.329  0.00  0.00    +0.000 OA
ATOM     10  H   UNL     1      43.578   6.381  10.097  0.00  0.00    +0.000 HD
ENDBRANCH   8   9
BRANCH   8  11
ATOM     11  C   UNL     1      44.132   3.287   9.673  0.00  0.00    +0.000 C 
BRANCH  11  12
ATOM     12  C   UNL     1      44.676   3.000   8.264  0.00  0.00    +0.000 C 
BRANCH  12  13
ATOM     13  N   UNL     1      46.145   2.884   8.218  0.00  0.00    +0.000 NA
ATOM     14  C   UNL     1      46.717   3.822   7.236  0.00  0.00    +0.000 C 
ATOM     15  C   UNL     1      46.801   3.047   5.935  0.00  0.00    +0.000 C 
ATOM     16  C   UNL     1      47.155   1.649   6.390  0.00  0.00    +0.000 C 
ATOM     17  C   UNL     1      46.617   1.548   7.812  0.00  0.00    +0.000 C 
ENDBRANCH  12  13
ENDBRANCH  11  12
ENDBRANCH   8  11
ENDBRANCH   5   8
ENDBRANCH   1   2
BRANCH   1  20
ATOM     18  O   UNL     1      49.677   5.194  16.588  0.00  0.00    +0.000 OA
ATOM     19  C   UNL     1      48.640   5.848  16.557  0.00  0.00    +0.000 C 
ATOM     20  N   UNL     1      47.529   5.438  15.867  0.00  0.00    +0.000 N 
ATOM     21  H   UNL     1      46.720   6.046  15.812  0.00  0.00    +0.000 HD
BRANCH  19  22
ATOM     22  C   UNL     1      48.510   7.112  17.294  0.00  0.00    +0.000 A 
ATOM     23  C   UNL     1      48.700   8.319  16.640  0.00  0.00    +0.000 A 
ATOM     24  S   UNL     1      48.493   9.683  17.644  0.00  0.00    +0.000 S 
ATOM     25  C   UNL     1      48.103   8.706  18.981  0.00  0.00    +0.000 A 
ATOM     26  N   UNL     1      47.773   9.262  20.179  0.00  0.00    +0.000 NA
ATOM     27  C   UNL     1      47.461   8.406  21.095  0.00  0.00    +0.000 A 
ATOM     28  N   UNL     1      47.463   7.045  20.927  0.00  0.00    +0.000 N 
ATOM     29  C   UNL     1      47.857   6.439  19.757  0.00  0.00    +0.000 A 
ATOM     30  O   UNL     1      47.967   5.221  19.681  0.00  0.00    +0.000 OA
ATOM     31  C   UNL     1      48.166   7.360  18.678  0.00  0.00    +0.000 A 
ATOM     32  H   UNL     1      47.241   6.431  21.695  0.00  0.00    +0.000 HD
ENDBRANCH  19  22
ENDBRANCH   1  20
TORSDOF 8
ENDMDL
MODEL 6
REMARK VINA RESULT:    -6.928      2.474      4.234
REMARK INTER + INTRA:         -11.218
REMARK INTER:                  -9.815
REMARK INTRA:                  -1.402
REMARK UNBOUND:                -1.252
REMARK  Name = 
REMARK  8 active torsions:
REMARK  status: ('A' for Active; 'I' for Inactive)
REMARK    1  A    between atoms: C_2  and  C_20
REMARK    2  A    between atoms: N_3  and  C_4
REMARK    3  A    between atoms: C_4  and  C_5
REMARK    4  A    between atoms: C_8  and  C_9
REMARK    5  A    between atoms: C_9  and  O_10
REMARK    6  A    between atoms: C_9  and  C_11
REMARK    7  A    between atoms: C_11  and  C_12
REMARK    8  A    between atoms: C_12  and  N_13
REMARK                            x       y       z     vdW  Elec       q    Type
REMARK                         _______ _______ _______ _____ _____    ______ ____
ROOT
ATOM      1  C   UNL     1      47.488   5.137  14.834  0.00  0.00    +0.000 C 
ENDROOT
BRANCH   1   2
ATOM      2  C   UNL     1      46.601   4.716  13.699  0.00  0.00    +0.000 A 
ATOM      3  C   UNL     1      46.433   3.369  13.375  0.00  0.00    +0.000 A 
ATOM      4  C   UNL     1      45.537   3.001  12.374  0.00  0.00    +0.000 A 
ATOM      5  C   UNL     1      44.821   3.995  11.715  0.00  0.00    +0.000 A 
ATOM      6  N   UNL     1      45.007   5.318  11.974  0.00  0.00    +0.000 NA
ATOM      7  C   UNL     1      45.869   5.642  12.967  0.00  0.00    +0.000 A 
BRANCH   5   8
ATOM      8  C   UNL     1      43.795   3.637  10.654  0.00  0.00    +0.000 C 
BRANCH   8   9
ATOM      9  O   UNL     1      43.788   2.218  10.481  0.00  0.00    +0.000 OA
ATOM     10  H   UNL     1      43.297   1.873  11.253  0.00  0.00    +0.000 HD
ENDBRANCH   8   9
BRANCH   8  11
ATOM     11  C   UNL     1      44.148   4.303   9.315  0.00  0.00    +0.000 C 
BRANCH  11  12
ATOM     12  C   UNL     1      44.601   3.272   8.269  0.00  0.00    +0.000 C 
BRANCH  12  13
ATOM     13  N   UNL     1      46.052   3.009   8.299  0.00  0.00    +0.000 NA
ATOM     14  C   UNL     1      46.752   3.801   7.272  0.00  0.00    +0.000 C 
ATOM     15  C   UNL     1      46.805   2.915   6.042  0.00  0.00    +0.000 C 
ATOM     16  C   UNL     1      46.999   1.532   6.622  0.00  0.00    +0.000 C 
ATOM     17  C   UNL     1      46.401   1.604   8.022  0.00  0.00    +0.000 C 
ENDBRANCH  12  13
ENDBRANCH  11  12
ENDBRANCH   8  11
ENDBRANCH   5   8
ENDBRANCH   1   2
BRANCH   1  20
ATOM     18  O   UNL     1      49.923   6.281  15.698  0.00  0.00    +0.000 OA
ATOM     19  C   UNL     1      49.096   6.993  15.138  0.00  0.00    +0.000 C 
ATOM     20  N   UNL     1      47.884   6.518  14.708  0.00  0.00    +0.000 N 
ATOM     21  H   UNL     1      47.263   7.127  14.187  0.00  0.00    +0.000 HD
BRANCH  19  22
ATOM     22  C   UNL     1      49.342   8.424  14.919  0.00  0.00    +0.000 A 
ATOM     23  C   UNL     1      49.695   9.238  15.985  0.00  0.00    +0.000 A 
ATOM     24  S   UNL     1      49.958  10.866  15.546  0.00  0.00    +0.000 S 
ATOM     25  C   UNL     1      49.648  10.530  13.907  0.00  0.00    +0.000 A 
ATOM     26  N   UNL     1      49.745  11.507  12.964  0.00  0.00    +0.000 NA
ATOM     27  C   UNL     1      49.523  11.105  11.757  0.00  0.00    +0.000 A 
ATOM     28  N   UNL     1      49.198   9.819  11.407  0.00  0.00    +0.000 N 
ATOM     29  C   UNL     1      49.020   8.818  12.333  0.00  0.00    +0.000 A 
ATOM     30  O   UNL     1      48.608   7.713  11.999  0.00  0.00    +0.000 OA
ATOM     31  C   UNL     1      49.312   9.206  13.701  0.00  0.00    +0.000 A 
ATOM     32  H   UNL     1      49.003   9.580  10.448  0.00  0.00    +0.000 HD
ENDBRANCH  19  22
ENDBRANCH   1  20
TORSDOF 8
ENDMDL
MODEL 7
REMARK VINA RESULT:    -6.889      2.287      3.473
REMARK INTER + INTRA:         -11.162
REMARK INTER:                 -10.024
REMARK INTRA:                  -1.138
REMARK UNBOUND:                -1.252
REMARK  Name = 
REMARK  8 active torsions:
REMARK  status: ('A' for Active; 'I' for Inactive)
REMARK    1  A    between atoms: C_2  and  C_20
REMARK    2  A    between atoms: N_3  and  C_4
REMARK    3  A    between atoms: C_4  and  C_5
REMARK    4  A    between atoms: C_8  and  C_9
REMARK    5  A    between atoms: C_9  and  O_10
REMARK    6  A    between atoms: C_9  and  C_11
REMARK    7  A    between atoms: C_11  and  C_12
REMARK    8  A    between atoms: C_12  and  N_13
REMARK                            x       y       z     vdW  Elec       q    Type
REMARK                         _______ _______ _______ _____ _____    ______ ____
ROOT
ATOM      1  C   UNL     1      47.505   4.201  15.094  0.00  0.00    +0.000 C 
ENDROOT
BRANCH   1   2
ATOM      2  C   UNL     1      46.669   4.398  13.863  0.00  0.00    +0.000 A 
ATOM      3  C   UNL     1      46.563   5.649  13.254  0.00  0.00    +0.000 A 
ATOM      4  C   UNL     1      45.852   5.786  12.065  0.00  0.00    +0.000 A 
ATOM      5  C   UNL     1      45.259   4.659  11.504  0.00  0.00    +0.000 A 
ATOM      6  N   UNL     1      45.300   3.440  12.107  0.00  0.00    +0.000 NA
ATOM      7  C   UNL     1      46.017   3.336  13.251  0.00  0.00    +0.000 A 
BRANCH   5   8
ATOM      8  C   UNL     1      44.517   4.750  10.182  0.00  0.00    +0.000 C 
BRANCH   8   9
ATOM      9  O   UNL     1      43.338   5.537  10.368  0.00  0.00    +0.000 OA
ATOM     10  H   UNL     1      43.607   6.449  10.143  0.00  0.00    +0.000 HD
ENDBRANCH   8   9
BRANCH   8  11
ATOM     11  C   UNL     1      44.114   3.351   9.690  0.00  0.00    +0.000 C 
BRANCH  11  12
ATOM     12  C   UNL     1      44.660   3.064   8.283  0.00  0.00    +0.000 C 
BRANCH  12  13
ATOM     13  N   UNL     1      46.125   2.891   8.250  0.00  0.00    +0.000 NA
ATOM     14  C   UNL     1      46.736   3.774   7.240  0.00  0.00    +0.000 C 
ATOM     15  C   UNL     1      46.797   2.953   5.966  0.00  0.00    +0.000 C 
ATOM     16  C   UNL     1      47.097   1.559   6.469  0.00  0.00    +0.000 C 
ATOM     17  C   UNL     1      46.548   1.525   7.890  0.00  0.00    +0.000 C 
ENDBRANCH  12  13
ENDBRANCH  11  12
ENDBRANCH   8  11
ENDBRANCH   5   8
ENDBRANCH   1   2
BRANCH   1  20
ATOM     18  O   UNL     1      49.660   4.993  16.740  0.00  0.00    +0.000 OA
ATOM     19  C   UNL     1      48.691   5.736  16.629  0.00  0.00    +0.000 C 
ATOM     20  N   UNL     1      47.598   5.415  15.867  0.00  0.00    +0.000 N 
ATOM     21  H   UNL     1      46.852   6.091  15.749  0.00  0.00    +0.000 HD
BRANCH  19  22
ATOM     22  C   UNL     1      48.624   7.019  17.342  0.00  0.00    +0.000 A 
ATOM     23  C   UNL     1      48.607   7.042  18.728  0.00  0.00    +0.000 A 
ATOM     24  S   UNL     1      48.546   8.614  19.387  0.00  0.00    +0.000 S 
ATOM     25  C   UNL     1      48.579   9.322  17.840  0.00  0.00    +0.000 A 
ATOM     26  N   UNL     1      48.588  10.674  17.691  0.00  0.00    +0.000 NA
ATOM     27  C   UNL     1      48.656  11.075  16.465  0.00  0.00    +0.000 A 
ATOM     28  N   UNL     1      48.700  10.246  15.372  0.00  0.00    +0.000 N 
ATOM     29  C   UNL     1      48.621   8.877  15.473  0.00  0.00    +0.000 A 
ATOM     30  O   UNL     1      48.537   8.172  14.473  0.00  0.00    +0.000 OA
ATOM     31  C   UNL     1      48.600   8.374  16.835  0.00  0.00    +0.000 A 
ATOM     32  H   UNL     1      48.717  10.625  14.439  0.00  0.00    +0.000 HD
ENDBRANCH  19  22
ENDBRANCH   1  20
TORSDOF 8
ENDMDL
MODEL 8
REMARK VINA RESULT:    -6.622      2.810      8.325
REMARK INTER + INTRA:         -10.778
REMARK INTER:                  -9.222
REMARK INTRA:                  -1.555
REMARK UNBOUND:                -1.252
REMARK  Name = 
REMARK  8 active torsions:
REMARK  status: ('A' for Active; 'I' for Inactive)
REMARK    1  A    between atoms: C_2  and  C_20
REMARK    2  A    between atoms: N_3  and  C_4
REMARK    3  A    between atoms: C_4  and  C_5
REMARK    4  A    between atoms: C_8  and  C_9
REMARK    5  A    between atoms: C_9  and  O_10
REMARK    6  A    between atoms: C_9  and  C_11
REMARK    7  A    between atoms: C_11  and  C_12
REMARK    8  A    between atoms: C_12  and  N_13
REMARK                            x       y       z     vdW  Elec       q    Type
REMARK                         _______ _______ _______ _____ _____    ______ ____
ROOT
ATOM      1  C   UNL     1      47.408   7.793  11.998  0.00  0.00    +0.000 C 
ENDROOT
BRANCH   1   2
ATOM      2  C   UNL     1      48.033   7.798  13.362  0.00  0.00    +0.000 A 
ATOM      3  C   UNL     1      47.916   8.902  14.208  0.00  0.00    +0.000 A 
ATOM      4  C   UNL     1      48.430   8.847  15.500  0.00  0.00    +0.000 A 
ATOM      5  C   UNL     1      49.055   7.679  15.924  0.00  0.00    +0.000 A 
ATOM      6  N   UNL     1      49.232   6.609  15.102  0.00  0.00    +0.000 NA
ATOM      7  C   UNL     1      48.702   6.686  13.859  0.00  0.00    +0.000 A 
BRANCH   5   8
ATOM      8  C   UNL     1      49.586   7.554  17.342  0.00  0.00    +0.000 C 
BRANCH   8   9
ATOM      9  O   UNL     1      50.694   6.649  17.341  0.00  0.00    +0.000 OA
ATOM     10  H   UNL     1      51.117   6.772  16.469  0.00  0.00    +0.000 HD
ENDBRANCH   8   9
BRANCH   8  11
ATOM     11  C   UNL     1      48.497   7.011  18.281  0.00  0.00    +0.000 C 
BRANCH  11  12
ATOM     12  C   UNL     1      48.972   5.762  19.040  0.00  0.00    +0.000 C 
BRANCH  12  13
ATOM     13  N   UNL     1      48.070   4.606  18.881  0.00  0.00    +0.000 NA
ATOM     14  C   UNL     1      48.833   3.378  18.593  0.00  0.00    +0.000 C 
ATOM     15  C   UNL     1      48.908   3.291  17.081  0.00  0.00    +0.000 C 
ATOM     16  C   UNL     1      47.565   3.827  16.638  0.00  0.00    +0.000 C 
ATOM     17  C   UNL     1      47.118   4.751  17.764  0.00  0.00    +0.000 C 
ENDBRANCH  12  13
ENDBRANCH  11  12
ENDBRANCH   8  11
ENDBRANCH   5   8
ENDBRANCH   1   2
BRANCH   1  20
ATOM     18  O   UNL     1      44.613   7.381  11.999  0.00  0.00    +0.000 OA
ATOM     19  C   UNL     1      45.354   6.439  11.739  0.00  0.00    +0.000 C 
ATOM     20  N   UNL     1      46.720   6.553  11.738  0.00  0.00    +0.000 N 
ATOM     21  H   UNL     1      47.289   5.766  11.447  0.00  0.00    +0.000 HD
BRANCH  19  22
ATOM     22  C   UNL     1      44.819   5.104  11.440  0.00  0.00    +0.000 A 
ATOM     23  C   UNL     1      44.068   4.430  12.391  0.00  0.00    +0.000 A 
ATOM     24  S   UNL     1      43.513   2.903  11.868  0.00  0.00    +0.000 S 
ATOM     25  C   UNL     1      44.226   3.108  10.337  0.00  0.00    +0.000 A 
ATOM     26  N   UNL     1      44.091   2.159   9.371  0.00  0.00    +0.000 NA
ATOM     27  C   UNL     1      44.647   2.461   8.246  0.00  0.00    +0.000 A 
ATOM     28  N   UNL     1      45.339   3.620   8.001  0.00  0.00    +0.000 N 
ATOM     29  C   UNL     1      45.560   4.573   8.967  0.00  0.00    +0.000 A 
ATOM     30  O   UNL     1      46.287   5.536   8.752  0.00  0.00    +0.000 OA
ATOM     31  C   UNL     1      44.908   4.306  10.237  0.00  0.00    +0.000 A 
ATOM     32  H   UNL     1      45.779   3.779   7.109  0.00  0.00    +0.000 HD
ENDBRANCH  19  22
ENDBRANCH   1  20
TORSDOF 8
ENDMDL
MODEL 9
REMARK VINA RESULT:    -6.592      3.135      5.413
REMARK INTER + INTRA:         -10.734
REMARK INTER:                  -9.468
REMARK INTRA:                  -1.267
REMARK UNBOUND:                -1.252
REMARK  Name = 
REMARK  8 active torsions:
REMARK  status: ('A' for Active; 'I' for Inactive)
REMARK    1  A    between atoms: C_2  and  C_20
REMARK    2  A    between atoms: N_3  and  C_4
REMARK    3  A    between atoms: C_4  and  C_5
REMARK    4  A    between atoms: C_8  and  C_9
REMARK    5  A    between atoms: C_9  and  O_10
REMARK    6  A    between atoms: C_9  and  C_11
REMARK    7  A    between atoms: C_11  and  C_12
REMARK    8  A    between atoms: C_12  and  N_13
REMARK                            x       y       z     vdW  Elec       q    Type
REMARK                         _______ _______ _______ _____ _____    ______ ____
ROOT
ATOM      1  C   UNL     1      47.636   3.673  17.182  0.00  0.00    +0.000 C 
ENDROOT
BRANCH   1   2
ATOM      2  C   UNL     1      47.549   4.379  15.861  0.00  0.00    +0.000 A 
ATOM      3  C   UNL     1      46.778   3.866  14.816  0.00  0.00    +0.000 A 
ATOM      4  C   UNL     1      46.645   4.585  13.631  0.00  0.00    +0.000 A 
ATOM      5  C   UNL     1      47.290   5.812  13.515  0.00  0.00    +0.000 A 
ATOM      6  N   UNL     1      48.092   6.308  14.496  0.00  0.00    +0.000 NA
ATOM      7  C   UNL     1      48.183   5.595  15.644  0.00  0.00    +0.000 A 
BRANCH   5   8
ATOM      8  C   UNL     1      47.132   6.656  12.262  0.00  0.00    +0.000 C 
BRANCH   8   9
ATOM      9  O   UNL     1      46.615   7.937  12.631  0.00  0.00    +0.000 OA
ATOM     10  H   UNL     1      45.708   7.760  12.948  0.00  0.00    +0.000 HD
ENDBRANCH   8   9
BRANCH   8  11
ATOM     11  C   UNL     1      46.158   5.987  11.279  0.00  0.00    +0.000 C 
BRANCH  11  12
ATOM     12  C   UNL     1      44.742   6.573  11.395  0.00  0.00    +0.000 C 
BRANCH  12  13
ATOM     13  N   UNL     1      43.685   5.630  10.985  0.00  0.00    +0.000 NA
ATOM     14  C   UNL     1      42.594   5.597  11.976  0.00  0.00    +0.000 C 
ATOM     15  C   UNL     1      42.955   4.484  12.941  0.00  0.00    +0.000 C 
ATOM     16  C   UNL     1      43.600   3.449  12.046  0.00  0.00    +0.000 C 
ATOM     17  C   UNL     1      44.154   4.237  10.866  0.00  0.00    +0.000 C 
ENDBRANCH  12  13
ENDBRANCH  11  12
ENDBRANCH   8  11
ENDBRANCH   5   8
ENDBRANCH   1   2
BRANCH   1  20
ATOM     18  O   UNL     1      49.301   1.714  16.010  0.00  0.00    +0.000 OA
ATOM     19  C   UNL     1      49.753   2.423  16.902  0.00  0.00    +0.000 C 
ATOM     20  N   UNL     1      49.003   3.381  17.534  0.00  0.00    +0.000 N 
ATOM     21  H   UNL     1      49.440   3.991  18.216  0.00  0.00    +0.000 HD
BRANCH  19  22
ATOM     22  C   UNL     1      51.133   2.266  17.379  0.00  0.00    +0.000 A 
ATOM     23  C   UNL     1      51.672   0.999  17.539  0.00  0.00    +0.000 A 
ATOM     24  S   UNL     1      53.289   1.005  18.083  0.00  0.00    +0.000 S 
ATOM     25  C   UNL     1      53.337   2.705  18.086  0.00  0.00    +0.000 A 
ATOM     26  N   UNL     1      54.476   3.371  18.423  0.00  0.00    +0.000 NA
ATOM     27  C   UNL     1      54.385   4.657  18.344  0.00  0.00    +0.000 A 
ATOM     28  N   UNL     1      53.255   5.339  17.973  0.00  0.00    +0.000 N 
ATOM     29  C   UNL     1      52.064   4.712  17.692  0.00  0.00    +0.000 A 
ATOM     30  O   UNL     1      51.041   5.356  17.486  0.00  0.00    +0.000 OA
ATOM     31  C   UNL     1      52.128   3.262  17.713  0.00  0.00    +0.000 A 
ATOM     32  H   UNL     1      53.241   6.347  17.964  0.00  0.00    +0.000 HD
ENDBRANCH  19  22
ENDBRANCH   1  20
TORSDOF 8
ENDMDL
