MODEL 1
REMARK VINA RESULT:    -7.752      0.000      0.000
REMARK INTER + INTRA:         -12.945
REMARK INTER:                 -11.378
REMARK INTRA:                  -1.567
REMARK UNBOUND:                -1.567
REMARK  Name = 
REMARK  11 active torsions:
REMARK  status: ('A' for Active; 'I' for Inactive)
REMARK    1  A    between atoms: C_1  and  O_2
REMARK    2  A    between atoms: O_2  and  C_3
REMARK    3  A    between atoms: C_10  and  C_11
REMARK    4  A    between atoms: N_13  and  C_14
REMARK    5  A    between atoms: C_14  and  C_15
REMARK    6  A    between atoms: C_18  and  N_19
REMARK    7  A    between atoms: N_19  and  C_20
REMARK    8  A    between atoms: C_20  and  C_21
REMARK    9  A    between atoms: C_20  and  C_22
REMARK   10  A    between atoms: C_20  and  C_23
REMARK   11  A    between atoms: C_23  and  C_24
REMARK                            x       y       z     vdW  Elec       q    Type
REMARK                         _______ _______ _______ _____ _____    ______ ____
ROOT
ATOM      1  C   UNL     1      47.136   8.298  13.303  0.00  0.00    +0.000 A 
ATOM      2  C   UNL     1      47.796   7.243  12.686  0.00  0.00    +0.000 A 
ATOM      3  C   UNL     1      47.140   6.461  11.737  0.00  0.00    +0.000 A 
ATOM      4  C   UNL     1      45.833   6.718  11.301  0.00  0.00    +0.000 A 
ATOM      5  C   UNL     1      45.179   7.785  11.937  0.00  0.00    +0.000 A 
ATOM      6  C   UNL     1      45.820   8.571  12.917  0.00  0.00    +0.000 A 
ENDROOT
BRANCH   4   7
ATOM      7  N   UNL     1      45.127   5.918  10.388  0.00  0.00    +0.000 N 
ATOM      8  H   UNL     1      45.627   5.797   9.510  0.00  0.00    +0.000 HD
BRANCH   7   9
ATOM      9  C   UNL     1      44.292   4.742  10.789  0.00  0.00    +0.000 C 
ATOM     10  C   UNL     1      45.157   3.775  11.631  0.00  0.00    +0.000 C 
ATOM     11  C   UNL     1      43.012   5.309  11.449  0.00  0.00    +0.000 C 
BRANCH   9  12
ATOM     12  C   UNL     1      43.817   3.929   9.521  0.00  0.00    +0.000 C 
BRANCH  12  13
ATOM     13  C   UNL     1      44.962   3.403   8.652  0.00  0.00    +0.000 A 
ATOM     14  C   UNL     1      45.319   2.054   8.664  0.00  0.00    +0.000 A 
ATOM     15  C   UNL     1      46.459   1.642   7.972  0.00  0.00    +0.000 A 
ATOM     16  C   UNL     1      47.211   2.576   7.273  0.00  0.00    +0.000 A 
ATOM     17  C   UNL     1      46.780   3.890   7.286  0.00  0.00    +0.000 A 
ATOM     18  N   UNL     1      45.677   4.317   7.948  0.00  0.00    +0.000 NA
ENDBRANCH  12  13
ENDBRANCH   9  12
ENDBRANCH   7   9
ENDBRANCH   4   7
BRANCH   1  19
ATOM     19  C   UNL     1      47.861   9.093  14.352  0.00  0.00    +0.000 C 
BRANCH  19  22
ATOM     20  C   UNL     1      49.130   8.304  16.295  0.00  0.00    +0.000 C 
ATOM     21  O   UNL     1      50.117   8.945  15.941  0.00  0.00    +0.000 OA
ATOM     22  N   UNL     1      47.961   8.362  15.591  0.00  0.00    +0.000 N 
ATOM     23  H   UNL     1      47.184   7.769  15.856  0.00  0.00    +0.000 HD
BRANCH  20  31
ATOM     24  C   UNL     1      48.430   4.963  16.850  0.00  0.00    +0.000 A 
ATOM     25  N   UNL     1      48.302   3.712  17.339  0.00  0.00    +0.000 NA
ATOM     26  C   UNL     1      48.595   3.496  18.622  0.00  0.00    +0.000 A 
ATOM     27  N   UNL     1      48.996   4.401  19.509  0.00  0.00    +0.000 NA
ATOM     28  C   UNL     1      49.128   5.633  18.987  0.00  0.00    +0.000 A 
ATOM     29  S   UNL     1      49.626   6.913  19.983  0.00  0.00    +0.000 S 
ATOM     30  C   UNL     1      49.563   8.007  18.689  0.00  0.00    +0.000 A 
ATOM     31  C   UNL     1      49.178   7.435  17.481  0.00  0.00    +0.000 A 
ATOM     32  C   UNL     1      48.890   6.017  17.664  0.00  0.00    +0.000 A 
BRANCH  24  34
ATOM     33  C   UNL     1      47.054   4.350  15.067  0.00  0.00    +0.000 C 
ATOM     34  O   UNL     1      48.144   5.161  15.513  0.00  0.00    +0.000 OA
ENDBRANCH  24  34
ENDBRANCH  20  31
ENDBRANCH  19  22
ENDBRANCH   1  19
TORSDOF 8
ENDMDL
MODEL 2
REMARK VINA RESULT:    -7.713      2.105      2.405
REMARK INTER + INTRA:         -12.887
REMARK INTER:                 -12.001
REMARK INTRA:                  -0.886
REMARK UNBOUND:                -1.567
REMARK  Name = 
REMARK  11 active torsions:
REMARK  status: ('A' for Active; 'I' for Inactive)
REMARK    1  A    between atoms: C_1  and  O_2
REMARK    2  A    between atoms: O_2  and  C_3
REMARK    3  A    between atoms: C_10  and  C_11
REMARK    4  A    between atoms: N_13  and  C_14
REMARK    5  A    between atoms: C_14  and  C_15
REMARK    6  A    between atoms: C_18  and  N_19
REMARK    7  A    between atoms: N_19  and  C_20
REMARK    8  A    between atoms: C_20  and  C_21
REMARK    9  A    between atoms: C_20  and  C_22
REMARK   10  A    between atoms: C_20  and  C_23
REMARK   11  A    between atoms: C_23  and  C_24
REMARK                            x       y       z     vdW  Elec       q    Type
REMARK                         _______ _______ _______ _____ _____    ______ ____
ROOT
ATOM      1  C   UNL     1      48.060   6.980  14.056  0.00  0.00    +0.000 A 
ATOM      2  C   UNL     1      47.369   5.787  14.218  0.00  0.00    +0.000 A 
ATOM      3  C   UNL     1      46.591   5.277  13.180  0.00  0.00    +0.000 A 
ATOM      4  C   UNL     1      46.508   5.879  11.917  0.00  0.00    +0.000 A 
ATOM      5  C   UNL     1      47.209   7.085  11.770  0.00  0.00    +0.000 A 
ATOM      6  C   UNL     1      47.982   7.627  12.818  0.00  0.00    +0.000 A 
ENDROOT
BRANCH   4   7
ATOM      7  N   UNL     1      45.690   5.420  10.870  0.00  0.00    +0.000 N 
ATOM      8  H   UNL     1      46.224   5.186  10.036  0.00  0.00    +0.000 HD
BRANCH   7   9
ATOM      9  C   UNL     1      44.469   4.581  11.078  0.00  0.00    +0.000 C 
ATOM     10  C   UNL     1      44.855   3.329  11.900  0.00  0.00    +0.000 C 
ATOM     11  C   UNL     1      43.383   5.512  11.669  0.00  0.00    +0.000 C 
BRANCH   9  12
ATOM     12  C   UNL     1      43.904   4.055   9.700  0.00  0.00    +0.000 C 
BRANCH  12  13
ATOM     13  C   UNL     1      44.969   3.464   8.774  0.00  0.00    +0.000 A 
ATOM     14  C   UNL     1      45.266   2.100   8.790  0.00  0.00    +0.000 A 
ATOM     15  C   UNL     1      46.342   1.625   8.037  0.00  0.00    +0.000 A 
ATOM     16  C   UNL     1      47.090   2.513   7.277  0.00  0.00    +0.000 A 
ATOM     17  C   UNL     1      46.720   3.846   7.292  0.00  0.00    +0.000 A 
ATOM     18  N   UNL     1      45.680   4.333   8.012  0.00  0.00    +0.000 NA
ENDBRANCH  12  13
ENDBRANCH   9  12
ENDBRANCH   7   9
ENDBRANCH   4   7
BRANCH   1  19
ATOM     19  C   UNL     1      48.856   7.521  15.210  0.00  0.00    +0.000 C 
BRANCH  19  22
ATOM     20  C   UNL     1      49.700   6.083  17.007  0.00  0.00    +0.000 C 
ATOM     21  O   UNL     1      48.788   6.437  17.752  0.00  0.00    +0.000 OA
ATOM     22  N   UNL     1      49.777   6.535  15.721  0.00  0.00    +0.000 N 
ATOM     23  H   UNL     1      50.576   6.291  15.149  0.00  0.00    +0.000 HD
BRANCH  20  31
ATOM     24  C   UNL     1      50.105   2.648  16.963  0.00  0.00    +0.000 A 
ATOM     25  N   UNL     1      50.558   1.379  17.025  0.00  0.00    +0.000 NA
ATOM     26  C   UNL     1      51.759   1.156  17.560  0.00  0.00    +0.000 A 
ATOM     27  N   UNL     1      52.583   2.065  18.071  0.00  0.00    +0.000 NA
ATOM     28  C   UNL     1      52.109   3.321  17.980  0.00  0.00    +0.000 A 
ATOM     29  S   UNL     1      53.031   4.607  18.589  0.00  0.00    +0.000 S 
ATOM     30  C   UNL     1      51.856   5.736  18.117  0.00  0.00    +0.000 A 
ATOM     31  C   UNL     1      50.754   5.173  17.483  0.00  0.00    +0.000 A 
ATOM     32  C   UNL     1      50.891   3.722  17.424  0.00  0.00    +0.000 A 
BRANCH  24  34
ATOM     33  C   UNL     1      47.815   2.877  17.350  0.00  0.00    +0.000 C 
ATOM     34  O   UNL     1      48.869   2.859  16.384  0.00  0.00    +0.000 OA
ENDBRANCH  24  34
ENDBRANCH  20  31
ENDBRANCH  19  22
ENDBRANCH   1  19
TORSDOF 8
ENDMDL
MODEL 3
REMARK VINA RESULT:    -6.631      4.235      9.558
REMARK INTER + INTRA:         -11.299
REMARK INTER:                  -9.642
REMARK INTRA:                  -1.658
REMARK UNBOUND:                -1.567
REMARK  Name = 
REMARK  11 active torsions:
REMARK  status: ('A' for Active; 'I' for Inactive)
REMARK    1  A    between atoms: C_1  and  O_2
REMARK    2  A    between atoms: O_2  and  C_3
REMARK    3  A    between atoms: C_10  and  C_11
REMARK    4  A    between atoms: N_13  and  C_14
REMARK    5  A    between atoms: C_14  and  C_15
REMARK    6  A    between atoms: C_18  and  N_19
REMARK    7  A    between atoms: N_19  and  C_20
REMARK    8  A    between atoms: C_20  and  C_21
REMARK    9  A    between atoms: C_20  and  C_22
REMARK   10  A    between atoms: C_20  and  C_23
REMARK   11  A    between atoms: C_23  and  C_24
REMARK                            x       y       z     vdW  Elec       q    Type
REMARK                         _______ _______ _______ _____ _____    ______ ____
ROOT
ATOM      1  C   UNL     1      48.824   3.308  17.534  0.00  0.00    +0.000 A 
ATOM      2  C   UNL     1      49.223   4.304  18.415  0.00  0.00    +0.000 A 
ATOM      3  C   UNL     1      50.553   4.388  18.826  0.00  0.00    +0.000 A 
ATOM      4  C   UNL     1      51.561   3.543  18.342  0.00  0.00    +0.000 A 
ATOM      5  C   UNL     1      51.140   2.540  17.456  0.00  0.00    +0.000 A 
ATOM      6  C   UNL     1      49.794   2.425  17.048  0.00  0.00    +0.000 A 
ENDROOT
BRANCH   4   7
ATOM      7  N   UNL     1      52.896   3.568  18.778  0.00  0.00    +0.000 N 
ATOM      8  H   UNL     1      53.273   2.634  18.927  0.00  0.00    +0.000 HD
BRANCH   7   9
ATOM      9  C   UNL     1      53.903   4.572  18.309  0.00  0.00    +0.000 C 
ATOM     10  C   UNL     1      53.361   5.272  17.041  0.00  0.00    +0.000 C 
ATOM     11  C   UNL     1      54.240   5.466  19.527  0.00  0.00    +0.000 C 
BRANCH   9  12
ATOM     12  C   UNL     1      55.251   3.865  17.889  0.00  0.00    +0.000 C 
BRANCH  12  13
ATOM     13  C   UNL     1      55.176   2.337  17.874  0.00  0.00    +0.000 A 
ATOM     14  C   UNL     1      55.050   1.630  16.677  0.00  0.00    +0.000 A 
ATOM     15  C   UNL     1      54.838   0.251  16.716  0.00  0.00    +0.000 A 
ATOM     16  C   UNL     1      54.768  -0.397  17.942  0.00  0.00    +0.000 A 
ATOM     17  C   UNL     1      54.928   0.366  19.084  0.00  0.00    +0.000 A 
ATOM     18  N   UNL     1      55.137   1.706  19.075  0.00  0.00    +0.000 NA
ENDBRANCH  12  13
ENDBRANCH   9  12
ENDBRANCH   7   9
ENDBRANCH   4   7
BRANCH   1  19
ATOM     19  C   UNL     1      47.375   3.221  17.145  0.00  0.00    +0.000 C 
BRANCH  19  22
ATOM     20  C   UNL     1      47.137   4.100  14.869  0.00  0.00    +0.000 C 
ATOM     21  O   UNL     1      47.477   3.021  14.390  0.00  0.00    +0.000 OA
ATOM     22  N   UNL     1      47.016   4.267  16.220  0.00  0.00    +0.000 N 
ATOM     23  H   UNL     1      46.808   5.183  16.597  0.00  0.00    +0.000 HD
BRANCH  20  31
ATOM     24  C   UNL     1      44.584   4.925  12.686  0.00  0.00    +0.000 A 
ATOM     25  N   UNL     1      43.720   5.531  11.846  0.00  0.00    +0.000 NA
ATOM     26  C   UNL     1      44.016   6.751  11.399  0.00  0.00    +0.000 A 
ATOM     27  N   UNL     1      45.104   7.459  11.681  0.00  0.00    +0.000 NA
ATOM     28  C   UNL     1      45.938   6.835  12.532  0.00  0.00    +0.000 A 
ATOM     29  S   UNL     1      47.382   7.594  12.995  0.00  0.00    +0.000 S 
ATOM     30  C   UNL     1      47.805   6.287  13.990  0.00  0.00    +0.000 A 
ATOM     31  C   UNL     1      46.868   5.260  14.005  0.00  0.00    +0.000 A 
ATOM     32  C   UNL     1      45.760   5.574  13.110  0.00  0.00    +0.000 A 
BRANCH  24  34
ATOM     33  C   UNL     1      43.525   2.906  12.187  0.00  0.00    +0.000 C 
ATOM     34  O   UNL     1      44.248   3.670  13.156  0.00  0.00    +0.000 OA
ENDBRANCH  24  34
ENDBRANCH  20  31
ENDBRANCH  19  22
ENDBRANCH   1  19
TORSDOF 8
ENDMDL
MODEL 4
REMARK VINA RESULT:    -6.259      3.324      7.980
REMARK INTER + INTRA:         -10.754
REMARK INTER:                  -8.721
REMARK INTRA:                  -2.033
REMARK UNBOUND:                -1.567
REMARK  Name = 
REMARK  11 active torsions:
REMARK  status: ('A' for Active; 'I' for Inactive)
REMARK    1  A    between atoms: C_1  and  O_2
REMARK    2  A    between atoms: O_2  and  C_3
REMARK    3  A    between atoms: C_10  and  C_11
REMARK    4  A    between atoms: N_13  and  C_14
REMARK    5  A    between atoms: C_14  and  C_15
REMARK    6  A    between atoms: C_18  and  N_19
REMARK    7  A    between atoms: N_19  and  C_20
REMARK    8  A    between atoms: C_20  and  C_21
REMARK    9  A    between atoms: C_20  and  C_22
REMARK   10  A    between atoms: C_20  and  C_23
REMARK   11  A    between atoms: C_23  and  C_24
REMARK                            x       y       z     vdW  Elec       q    Type
REMARK                         _______ _______ _______ _____ _____    ______ ____
ROOT
ATOM      1  C   UNL     1      48.758   8.135  14.764  0.00  0.00    +0.000 A 
ATOM      2  C   UNL     1      49.467   6.991  15.105  0.00  0.00    +0.000 A 
ATOM      3  C   UNL     1      49.725   6.696  16.443  0.00  0.00    +0.000 A 
ATOM      4  C   UNL     1      49.244   7.471  17.507  0.00  0.00    +0.000 A 
ATOM      5  C   UNL     1      48.533   8.625  17.146  0.00  0.00    +0.000 A 
ATOM      6  C   UNL     1      48.283   8.952  15.796  0.00  0.00    +0.000 A 
ENDROOT
BRANCH   4   7
ATOM      7  N   UNL     1      49.533   7.230  18.860  0.00  0.00    +0.000 N 
ATOM      8  H   UNL     1      50.110   7.962  19.270  0.00  0.00    +0.000 HD
BRANCH   7   9
ATOM      9  C   UNL     1      48.569   6.597  19.815  0.00  0.00    +0.000 C 
ATOM     10  C   UNL     1      48.493   7.460  21.096  0.00  0.00    +0.000 C 
ATOM     11  C   UNL     1      47.254   6.367  19.032  0.00  0.00    +0.000 C 
BRANCH   9  12
ATOM     12  C   UNL     1      49.076   5.171  20.265  0.00  0.00    +0.000 C 
BRANCH  12  13
ATOM     13  C   UNL     1      49.629   4.316  19.123  0.00  0.00    +0.000 A 
ATOM     14  C   UNL     1      48.812   3.430  18.420  0.00  0.00    +0.000 A 
ATOM     15  C   UNL     1      49.385   2.564  17.486  0.00  0.00    +0.000 A 
ATOM     16  C   UNL     1      50.754   2.607  17.263  0.00  0.00    +0.000 A 
ATOM     17  C   UNL     1      51.495   3.529  17.979  0.00  0.00    +0.000 A 
ATOM     18  N   UNL     1      50.965   4.382  18.890  0.00  0.00    +0.000 NA
ENDBRANCH  12  13
ENDBRANCH   9  12
ENDBRANCH   7   9
ENDBRANCH   4   7
BRANCH   1  19
ATOM     19  C   UNL     1      48.534   8.444  13.311  0.00  0.00    +0.000 C 
BRANCH  19  22
ATOM     20  C   UNL     1      46.206   7.878  12.789  0.00  0.00    +0.000 C 
ATOM     21  O   UNL     1      45.816   8.947  13.254  0.00  0.00    +0.000 OA
ATOM     22  N   UNL     1      47.537   7.574  12.736  0.00  0.00    +0.000 N 
ATOM     23  H   UNL     1      47.832   6.659  12.419  0.00  0.00    +0.000 HD
BRANCH  20  31
ATOM     24  C   UNL     1      46.022   4.430  12.984  0.00  0.00    +0.000 A 
ATOM     25  N   UNL     1      45.658   3.131  12.957  0.00  0.00    +0.000 NA
ATOM     26  C   UNL     1      44.516   2.802  12.353  0.00  0.00    +0.000 A 
ATOM     27  N   UNL     1      43.674   3.627  11.741  0.00  0.00    +0.000 NA
ATOM     28  C   UNL     1      44.057   4.915  11.798  0.00  0.00    +0.000 A 
ATOM     29  S   UNL     1      43.100   6.105  11.061  0.00  0.00    +0.000 S 
ATOM     30  C   UNL     1      44.162   7.333  11.554  0.00  0.00    +0.000 A 
ATOM     31  C   UNL     1      45.250   6.877  12.290  0.00  0.00    +0.000 A 
ATOM     32  C   UNL     1      45.204   5.425  12.415  0.00  0.00    +0.000 A 
BRANCH  24  34
ATOM     33  C   UNL     1      47.234   4.241  14.970  0.00  0.00    +0.000 C 
ATOM     34  O   UNL     1      47.197   4.753  13.635  0.00  0.00    +0.000 OA
ENDBRANCH  24  34
ENDBRANCH  20  31
ENDBRANCH  19  22
ENDBRANCH   1  19
TORSDOF 8
ENDMDL
MODEL 5
REMARK VINA RESULT:    -6.198      4.229      9.452
REMARK INTER + INTRA:         -10.664
REMARK INTER:                  -9.175
REMARK INTRA:                  -1.489
REMARK UNBOUND:                -1.567
REMARK  Name = 
REMARK  11 active torsions:
REMARK  status: ('A' for Active; 'I' for Inactive)
REMARK    1  A    between atoms: C_1  and  O_2
REMARK    2  A    between atoms: O_2  and  C_3
REMARK    3  A    between atoms: C_10  and  C_11
REMARK    4  A    between atoms: N_13  and  C_14
REMARK    5  A    between atoms: C_14  and  C_15
REMARK    6  A    between atoms: C_18  and  N_19
REMARK    7  A    between atoms: N_19  and  C_20
REMARK    8  A    between atoms: C_20  and  C_21
REMARK    9  A    between atoms: C_20  and  C_22
REMARK   10  A    between atoms: C_20  and  C_23
REMARK   11  A    between atoms: C_23  and  C_24
REMARK                            x       y       z     vdW  Elec       q    Type
REMARK                         _______ _______ _______ _____ _____    ______ ____
ROOT
ATOM      1  C   UNL     1      48.918   3.582  17.375  0.00  0.00    +0.000 A 
ATOM      2  C   UNL     1      49.466   4.842  17.579  0.00  0.00    +0.000 A 
ATOM      3  C   UNL     1      50.841   4.991  17.750  0.00  0.00    +0.000 A 
ATOM      4  C   UNL     1      51.746   3.925  17.664  0.00  0.00    +0.000 A 
ATOM      5  C   UNL     1      51.176   2.658  17.462  0.00  0.00    +0.000 A 
ATOM      6  C   UNL     1      49.784   2.486  17.311  0.00  0.00    +0.000 A 
ENDROOT
BRANCH   4   7
ATOM      7  N   UNL     1      53.129   4.035  17.887  0.00  0.00    +0.000 N 
ATOM      8  H   UNL     1      53.610   4.491  17.115  0.00  0.00    +0.000 HD
BRANCH   7   9
ATOM      9  C   UNL     1      53.735   4.292  19.231  0.00  0.00    +0.000 C 
ATOM     10  C   UNL     1      54.456   5.661  19.202  0.00  0.00    +0.000 C 
ATOM     11  C   UNL     1      52.606   4.105  20.272  0.00  0.00    +0.000 C 
BRANCH   9  12
ATOM     12  C   UNL     1      54.837   3.213  19.569  0.00  0.00    +0.000 C 
BRANCH  12  13
ATOM     13  C   UNL     1      54.832   2.002  18.633  0.00  0.00    +0.000 A 
ATOM     14  C   UNL     1      55.671   1.943  17.520  0.00  0.00    +0.000 A 
ATOM     15  C   UNL     1      55.532   0.891  16.613  0.00  0.00    +0.000 A 
ATOM     16  C   UNL     1      54.572  -0.086  16.839  0.00  0.00    +0.000 A 
ATOM     17  C   UNL     1      53.795   0.026  17.977  0.00  0.00    +0.000 A 
ATOM     18  N   UNL     1      53.909   1.035  18.875  0.00  0.00    +0.000 NA
ENDBRANCH  12  13
ENDBRANCH   9  12
ENDBRANCH   7   9
ENDBRANCH   4   7
BRANCH   1  19
ATOM     19  C   UNL     1      47.427   3.453  17.236  0.00  0.00    +0.000 C 
BRANCH  19  22
ATOM     20  C   UNL     1      47.044   4.044  14.888  0.00  0.00    +0.000 C 
ATOM     21  O   UNL     1      47.526   2.976  14.515  0.00  0.00    +0.000 OA
ATOM     22  N   UNL     1      46.916   4.336  16.216  0.00  0.00    +0.000 N 
ATOM     23  H   UNL     1      46.588   5.250  16.501  0.00  0.00    +0.000 HD
BRANCH  20  31
ATOM     24  C   UNL     1      48.406   7.006  13.733  0.00  0.00    +0.000 A 
ATOM     25  N   UNL     1      48.715   8.136  13.063  0.00  0.00    +0.000 NA
ATOM     26  C   UNL     1      47.866   8.579  12.136  0.00  0.00    +0.000 A 
ATOM     27  N   UNL     1      46.706   8.030  11.792  0.00  0.00    +0.000 NA
ATOM     28  C   UNL     1      46.434   6.898  12.466  0.00  0.00    +0.000 A 
ATOM     29  S   UNL     1      44.989   6.068  12.157  0.00  0.00    +0.000 S 
ATOM     30  C   UNL     1      45.380   4.867  13.289  0.00  0.00    +0.000 A 
ATOM     31  C   UNL     1      46.607   5.057  13.915  0.00  0.00    +0.000 A 
ATOM     32  C   UNL     1      47.229   6.289  13.442  0.00  0.00    +0.000 A 
BRANCH  24  34
ATOM     33  C   UNL     1      50.376   7.480  14.892  0.00  0.00    +0.000 C 
ATOM     34  O   UNL     1      49.310   6.551  14.673  0.00  0.00    +0.000 OA
ENDBRANCH  24  34
ENDBRANCH  20  31
ENDBRANCH  19  22
ENDBRANCH   1  19
TORSDOF 8
ENDMDL
MODEL 6
REMARK VINA RESULT:    -6.009      3.373      8.967
REMARK INTER + INTRA:         -10.387
REMARK INTER:                  -9.097
REMARK INTRA:                  -1.290
REMARK UNBOUND:                -1.567
REMARK  Name = 
REMARK  11 active torsions:
REMARK  status: ('A' for Active; 'I' for Inactive)
REMARK    1  A    between atoms: C_1  and  O_2
REMARK    2  A    between atoms: O_2  and  C_3
REMARK    3  A    between atoms: C_10  and  C_11
REMARK    4  A    between atoms: N_13  and  C_14
REMARK    5  A    between atoms: C_14  and  C_15
REMARK    6  A    between atoms: C_18  and  N_19
REMARK    7  A    between atoms: N_19  and  C_20
REMARK    8  A    between atoms: C_20  and  C_21
REMARK    9  A    between atoms: C_20  and  C_22
REMARK   10  A    between atoms: C_20  and  C_23
REMARK   11  A    between atoms: C_23  and  C_24
REMARK                            x       y       z     vdW  Elec       q    Type
REMARK                         _______ _______ _______ _____ _____    ______ ____
ROOT
ATOM      1  C   UNL     1      48.813   3.536  17.600  0.00  0.00    +0.000 A 
ATOM      2  C   UNL     1      49.027   4.597  18.469  0.00  0.00    +0.000 A 
ATOM      3  C   UNL     1      50.300   4.840  18.984  0.00  0.00    +0.000 A 
ATOM      4  C   UNL     1      51.430   4.096  18.619  0.00  0.00    +0.000 A 
ATOM      5  C   UNL     1      51.197   3.025  17.743  0.00  0.00    +0.000 A 
ATOM      6  C   UNL     1      49.911   2.751  17.232  0.00  0.00    +0.000 A 
ENDROOT
BRANCH   4   7
ATOM      7  N   UNL     1      52.713   4.281  19.161  0.00  0.00    +0.000 N 
ATOM      8  H   UNL     1      53.113   3.414  19.515  0.00  0.00    +0.000 HD
BRANCH   7   9
ATOM      9  C   UNL     1      53.717   5.243  18.608  0.00  0.00    +0.000 C 
ATOM     10  C   UNL     1      53.289   6.683  18.979  0.00  0.00    +0.000 C 
ATOM     11  C   UNL     1      55.106   4.766  19.094  0.00  0.00    +0.000 C 
BRANCH   9  12
ATOM     12  C   UNL     1      53.750   5.179  17.030  0.00  0.00    +0.000 C 
BRANCH  12  13
ATOM     13  C   UNL     1      53.161   6.413  16.343  0.00  0.00    +0.000 A 
ATOM     14  C   UNL     1      51.784   6.556  16.168  0.00  0.00    +0.000 A 
ATOM     15  C   UNL     1      51.298   7.622  15.409  0.00  0.00    +0.000 A 
ATOM     16  C   UNL     1      52.189   8.528  14.851  0.00  0.00    +0.000 A 
ATOM     17  C   UNL     1      53.537   8.335  15.089  0.00  0.00    +0.000 A 
ATOM     18  N   UNL     1      54.037   7.311  15.823  0.00  0.00    +0.000 NA
ENDBRANCH  12  13
ENDBRANCH   9  12
ENDBRANCH   7   9
ENDBRANCH   4   7
BRANCH   1  19
ATOM     19  C   UNL     1      47.421   3.279  17.097  0.00  0.00    +0.000 C 
BRANCH  19  22
ATOM     20  C   UNL     1      47.077   4.111  14.818  0.00  0.00    +0.000 C 
ATOM     21  O   UNL     1      47.428   3.033  14.344  0.00  0.00    +0.000 OA
ATOM     22  N   UNL     1      47.001   4.299  16.169  0.00  0.00    +0.000 N 
ATOM     23  H   UNL     1      46.782   5.215  16.538  0.00  0.00    +0.000 HD
BRANCH  20  31
ATOM     24  C   UNL     1      44.571   4.715  12.511  0.00  0.00    +0.000 A 
ATOM     25  N   UNL     1      43.698   5.246  11.630  0.00  0.00    +0.000 NA
ATOM     26  C   UNL     1      43.902   6.492  11.202  0.00  0.00    +0.000 A 
ATOM     27  N   UNL     1      44.905   7.295  11.541  0.00  0.00    +0.000 NA
ATOM     28  C   UNL     1      45.749   6.743  12.432  0.00  0.00    +0.000 A 
ATOM     29  S   UNL     1      47.092   7.628  12.970  0.00  0.00    +0.000 S 
ATOM     30  C   UNL     1      47.584   6.358  13.981  0.00  0.00    +0.000 A 
ATOM     31  C   UNL     1      46.745   5.248  13.945  0.00  0.00    +0.000 A 
ATOM     32  C   UNL     1      45.660   5.467  12.996  0.00  0.00    +0.000 A 
BRANCH  24  34
ATOM     33  C   UNL     1      43.399   2.735  12.125  0.00  0.00    +0.000 C 
ATOM     34  O   UNL     1      44.329   3.431  12.959  0.00  0.00    +0.000 OA
ENDBRANCH  24  34
ENDBRANCH  20  31
ENDBRANCH  19  22
ENDBRANCH   1  19
TORSDOF 8
ENDMDL
MODEL 7
REMARK VINA RESULT:    -5.992      2.721      3.995
REMARK INTER + INTRA:         -10.362
REMARK INTER:                  -8.871
REMARK INTRA:                  -1.491
REMARK UNBOUND:                -1.567
REMARK  Name = 
REMARK  11 active torsions:
REMARK  status: ('A' for Active; 'I' for Inactive)
REMARK    1  A    between atoms: C_1  and  O_2
REMARK    2  A    between atoms: O_2  and  C_3
REMARK    3  A    between atoms: C_10  and  C_11
REMARK    4  A    between atoms: N_13  and  C_14
REMARK    5  A    between atoms: C_14  and  C_15
REMARK    6  A    between atoms: C_18  and  N_19
REMARK    7  A    between atoms: N_19  and  C_20
REMARK    8  A    between atoms: C_20  and  C_21
REMARK    9  A    between atoms: C_20  and  C_22
REMARK   10  A    between atoms: C_20  and  C_23
REMARK   11  A    between atoms: C_23  and  C_24
REMARK                            x       y       z     vdW  Elec       q    Type
REMARK                         _______ _______ _______ _____ _____    ______ ____
ROOT
ATOM      1  C   UNL     1      47.558   4.819  15.495  0.00  0.00    +0.000 A 
ATOM      2  C   UNL     1      47.054   3.644  14.953  0.00  0.00    +0.000 A 
ATOM      3  C   UNL     1      46.478   3.644  13.684  0.00  0.00    +0.000 A 
ATOM      4  C   UNL     1      46.427   4.780  12.864  0.00  0.00    +0.000 A 
ATOM      5  C   UNL     1      46.937   5.960  13.427  0.00  0.00    +0.000 A 
ATOM      6  C   UNL     1      47.502   5.982  14.720  0.00  0.00    +0.000 A 
ENDROOT
BRANCH   4   7
ATOM      7  N   UNL     1      45.805   4.825  11.606  0.00  0.00    +0.000 N 
ATOM      8  H   UNL     1      46.173   4.125  10.965  0.00  0.00    +0.000 HD
BRANCH   7   9
ATOM      9  C   UNL     1      44.355   5.140  11.408  0.00  0.00    +0.000 C 
ATOM     10  C   UNL     1      43.519   4.301  12.403  0.00  0.00    +0.000 C 
ATOM     11  C   UNL     1      44.219   6.680  11.486  0.00  0.00    +0.000 C 
BRANCH   9  12
ATOM     12  C   UNL     1      43.879   4.724   9.961  0.00  0.00    +0.000 C 
BRANCH  12  13
ATOM     13  C   UNL     1      44.878   3.846   9.204  0.00  0.00    +0.000 A 
ATOM     14  C   UNL     1      45.656   4.363   8.167  0.00  0.00    +0.000 A 
ATOM     15  C   UNL     1      46.446   3.498   7.408  0.00  0.00    +0.000 A 
ATOM     16  C   UNL     1      46.455   2.142   7.703  0.00  0.00    +0.000 A 
ATOM     17  C   UNL     1      45.678   1.707   8.761  0.00  0.00    +0.000 A 
ATOM     18  N   UNL     1      44.903   2.525   9.516  0.00  0.00    +0.000 NA
ENDBRANCH  12  13
ENDBRANCH   9  12
ENDBRANCH   7   9
ENDBRANCH   4   7
BRANCH   1  19
ATOM     19  C   UNL     1      48.135   4.790  16.882  0.00  0.00    +0.000 C 
BRANCH  19  22
ATOM     20  C   UNL     1      50.577   4.683  17.066  0.00  0.00    +0.000 C 
ATOM     21  O   UNL     1      50.547   3.454  17.079  0.00  0.00    +0.000 OA
ATOM     22  N   UNL     1      49.433   5.416  16.924  0.00  0.00    +0.000 N 
ATOM     23  H   UNL     1      49.471   6.425  16.992  0.00  0.00    +0.000 HD
BRANCH  20  31
ATOM     24  C   UNL     1      51.941   7.488  15.571  0.00  0.00    +0.000 A 
ATOM     25  N   UNL     1      52.678   8.563  15.223  0.00  0.00    +0.000 NA
ATOM     26  C   UNL     1      53.843   8.762  15.839  0.00  0.00    +0.000 A 
ATOM     27  N   UNL     1      54.390   7.993  16.775  0.00  0.00    +0.000 NA
ATOM     28  C   UNL     1      53.625   6.939  17.109  0.00  0.00    +0.000 A 
ATOM     29  S   UNL     1      54.174   5.848  18.286  0.00  0.00    +0.000 S 
ATOM     30  C   UNL     1      52.763   4.916  18.148  0.00  0.00    +0.000 A 
ATOM     31  C   UNL     1      51.846   5.410  17.226  0.00  0.00    +0.000 A 
ATOM     32  C   UNL     1      52.373   6.608  16.582  0.00  0.00    +0.000 A 
BRANCH  24  34
ATOM     33  C   UNL     1      49.990   8.534  14.831  0.00  0.00    +0.000 C 
ATOM     34  O   UNL     1      50.726   7.312  14.938  0.00  0.00    +0.000 OA
ENDBRANCH  24  34
ENDBRANCH  20  31
ENDBRANCH  19  22
ENDBRANCH   1  19
TORSDOF 8
ENDMDL
MODEL 8
REMARK VINA RESULT:    -5.858      3.468      9.753
REMARK INTER + INTRA:         -10.165
REMARK INTER:                  -9.242
REMARK INTRA:                  -0.924
REMARK UNBOUND:                -1.567
REMARK  Name = 
REMARK  11 active torsions:
REMARK  status: ('A' for Active; 'I' for Inactive)
REMARK    1  A    between atoms: C_1  and  O_2
REMARK    2  A    between atoms: O_2  and  C_3
REMARK    3  A    between atoms: C_10  and  C_11
REMARK    4  A    between atoms: N_13  and  C_14
REMARK    5  A    between atoms: C_14  and  C_15
REMARK    6  A    between atoms: C_18  and  N_19
REMARK    7  A    between atoms: N_19  and  C_20
REMARK    8  A    between atoms: C_20  and  C_21
REMARK    9  A    between atoms: C_20  and  C_22
REMARK   10  A    between atoms: C_20  and  C_23
REMARK   11  A    between atoms: C_23  and  C_24
REMARK                            x       y       z     vdW  Elec       q    Type
REMARK                         _______ _______ _______ _____ _____    ______ ____
ROOT
ATOM      1  C   UNL     1      48.716   3.356  17.433  0.00  0.00    +0.000 A 
ATOM      2  C   UNL     1      49.167   4.441  18.172  0.00  0.00    +0.000 A 
ATOM      3  C   UNL     1      50.508   4.534  18.540  0.00  0.00    +0.000 A 
ATOM      4  C   UNL     1      51.478   3.603  18.144  0.00  0.00    +0.000 A 
ATOM      5  C   UNL     1      51.006   2.511  17.400  0.00  0.00    +0.000 A 
ATOM      6  C   UNL     1      49.647   2.390  17.040  0.00  0.00    +0.000 A 
ENDROOT
BRANCH   4   7
ATOM      7  N   UNL     1      52.825   3.640  18.543  0.00  0.00    +0.000 N 
ATOM      8  H   UNL     1      53.167   2.727  18.835  0.00  0.00    +0.000 HD
BRANCH   7   9
ATOM      9  C   UNL     1      53.858   4.509  17.899  0.00  0.00    +0.000 C 
ATOM     10  C   UNL     1      54.958   3.611  17.286  0.00  0.00    +0.000 C 
ATOM     11  C   UNL     1      53.104   5.463  16.941  0.00  0.00    +0.000 C 
BRANCH   9  12
ATOM     12  C   UNL     1      54.572   5.426  18.969  0.00  0.00    +0.000 C 
BRANCH  12  13
ATOM     13  C   UNL     1      53.701   6.571  19.490  0.00  0.00    +0.000 A 
ATOM     14  C   UNL     1      52.768   6.365  20.508  0.00  0.00    +0.000 A 
ATOM     15  C   UNL     1      51.894   7.397  20.853  0.00  0.00    +0.000 A 
ATOM     16  C   UNL     1      51.974   8.614  20.189  0.00  0.00    +0.000 A 
ATOM     17  C   UNL     1      52.940   8.751  19.209  0.00  0.00    +0.000 A 
ATOM     18  N   UNL     1      53.803   7.766  18.856  0.00  0.00    +0.000 NA
ENDBRANCH  12  13
ENDBRANCH   9  12
ENDBRANCH   7   9
ENDBRANCH   4   7
BRANCH   1  19
ATOM     19  C   UNL     1      47.255   3.268  17.089  0.00  0.00    +0.000 C 
BRANCH  19  22
ATOM     20  C   UNL     1      47.010   4.139  14.811  0.00  0.00    +0.000 C 
ATOM     21  O   UNL     1      47.391   3.071  14.336  0.00  0.00    +0.000 OA
ATOM     22  N   UNL     1      46.871   4.302  16.160  0.00  0.00    +0.000 N 
ATOM     23  H   UNL     1      46.629   5.210  16.535  0.00  0.00    +0.000 HD
BRANCH  20  31
ATOM     24  C   UNL     1      44.372   4.950  12.725  0.00  0.00    +0.000 A 
ATOM     25  N   UNL     1      43.477   5.549  11.914  0.00  0.00    +0.000 NA
ATOM     26  C   UNL     1      43.760   6.763  11.439  0.00  0.00    +0.000 A 
ATOM     27  N   UNL     1      44.863   7.468  11.666  0.00  0.00    +0.000 NA
ATOM     28  C   UNL     1      45.728   6.850  12.490  0.00  0.00    +0.000 A 
ATOM     29  S   UNL     1      47.194   7.607  12.883  0.00  0.00    +0.000 S 
ATOM     30  C   UNL     1      47.652   6.311  13.876  0.00  0.00    +0.000 A 
ATOM     31  C   UNL     1      46.711   5.289  13.943  0.00  0.00    +0.000 A 
ATOM     32  C   UNL     1      45.568   5.598  13.091  0.00  0.00    +0.000 A 
BRANCH  24  34
ATOM     33  C   UNL     1      43.559   2.824  12.210  0.00  0.00    +0.000 C 
ATOM     34  O   UNL     1      44.050   3.703  13.225  0.00  0.00    +0.000 OA
ENDBRANCH  24  34
ENDBRANCH  20  31
ENDBRANCH  19  22
ENDBRANCH   1  19
TORSDOF 8
ENDMDL
MODEL 9
REMARK VINA RESULT:    -5.812      3.325      4.025
REMARK INTER + INTRA:         -10.098
REMARK INTER:                  -9.002
REMARK INTRA:                  -1.096
REMARK UNBOUND:                -1.567
REMARK  Name = 
REMARK  11 active torsions:
REMARK  status: ('A' for Active; 'I' for Inactive)
REMARK    1  A    between atoms: C_1  and  O_2
REMARK    2  A    between atoms: O_2  and  C_3
REMARK    3  A    between atoms: C_10  and  C_11
REMARK    4  A    between atoms: N_13  and  C_14
REMARK    5  A    between atoms: C_14  and  C_15
REMARK    6  A    between atoms: C_18  and  N_19
REMARK    7  A    between atoms: N_19  and  C_20
REMARK    8  A    between atoms: C_20  and  C_21
REMARK    9  A    between atoms: C_20  and  C_22
REMARK   10  A    between atoms: C_20  and  C_23
REMARK   11  A    between atoms: C_23  and  C_24
REMARK                            x       y       z     vdW  Elec       q    Type
REMARK                         _______ _______ _______ _____ _____    ______ ____
ROOT
ATOM      1  C   UNL     1      48.266   8.583  12.061  0.00  0.00    +0.000 A 
ATOM      2  C   UNL     1      48.464   7.210  12.122  0.00  0.00    +0.000 A 
ATOM      3  C   UNL     1      47.433   6.367  12.532  0.00  0.00    +0.000 A 
ATOM      4  C   UNL     1      46.143   6.824  12.836  0.00  0.00    +0.000 A 
ATOM      5  C   UNL     1      45.959   8.214  12.773  0.00  0.00    +0.000 A 
ATOM      6  C   UNL     1      47.000   9.083  12.383  0.00  0.00    +0.000 A 
ENDROOT
BRANCH   4   7
ATOM      7  N   UNL     1      45.099   6.008  13.303  0.00  0.00    +0.000 N 
ATOM      8  H   UNL     1      44.458   6.510  13.913  0.00  0.00    +0.000 HD
BRANCH   7   9
ATOM      9  C   UNL     1      44.458   4.932  12.485  0.00  0.00    +0.000 C 
ATOM     10  C   UNL     1      45.398   3.704  12.445  0.00  0.00    +0.000 C 
ATOM     11  C   UNL     1      43.037   4.722  13.061  0.00  0.00    +0.000 C 
BRANCH   9  12
ATOM     12  C   UNL     1      44.267   5.399  10.988  0.00  0.00    +0.000 C 
BRANCH  12  13
ATOM     13  C   UNL     1      44.812   4.412   9.953  0.00  0.00    +0.000 A 
ATOM     14  C   UNL     1      45.748   4.809   8.997  0.00  0.00    +0.000 A 
ATOM     15  C   UNL     1      46.108   3.920   7.982  0.00  0.00    +0.000 A 
ATOM     16  C   UNL     1      45.540   2.654   7.947  0.00  0.00    +0.000 A 
ATOM     17  C   UNL     1      44.638   2.325   8.942  0.00  0.00    +0.000 A 
ATOM     18  N   UNL     1      44.272   3.166   9.940  0.00  0.00    +0.000 NA
ENDBRANCH  12  13
ENDBRANCH   9  12
ENDBRANCH   7   9
ENDBRANCH   4   7
BRANCH   1  19
ATOM     19  C   UNL     1      49.413   9.465  11.655  0.00  0.00    +0.000 C 
BRANCH  19  22
ATOM     20  C   UNL     1      51.675   8.712  12.225  0.00  0.00    +0.000 C 
ATOM     21  O   UNL     1      51.848   8.290  11.083  0.00  0.00    +0.000 OA
ATOM     22  N   UNL     1      50.517   9.348  12.575  0.00  0.00    +0.000 N 
ATOM     23  H   UNL     1      50.364   9.620  13.537  0.00  0.00    +0.000 HD
BRANCH  20  31
ATOM     24  C   UNL     1      51.579   7.783  15.555  0.00  0.00    +0.000 A 
ATOM     25  N   UNL     1      51.852   7.390  16.817  0.00  0.00    +0.000 NA
ATOM     26  C   UNL     1      53.125   7.348  17.210  0.00  0.00    +0.000 A 
ATOM     27  N   UNL     1      54.192   7.673  16.487  0.00  0.00    +0.000 NA
ATOM     28  C   UNL     1      53.888   8.045  15.231  0.00  0.00    +0.000 A 
ATOM     29  S   UNL     1      55.131   8.500  14.171  0.00  0.00    +0.000 S 
ATOM     30  C   UNL     1      54.024   8.780  12.917  0.00  0.00    +0.000 A 
ATOM     31  C   UNL     1      52.701   8.529  13.263  0.00  0.00    +0.000 A 
ATOM     32  C   UNL     1      52.614   8.114  14.659  0.00  0.00    +0.000 A 
BRANCH  24  34
ATOM     33  C   UNL     1      49.499   6.747  15.768  0.00  0.00    +0.000 C 
ATOM     34  O   UNL     1      50.256   7.797  15.160  0.00  0.00    +0.000 OA
ENDBRANCH  24  34
ENDBRANCH  20  31
ENDBRANCH  19  22
ENDBRANCH   1  19
TORSDOF 8
ENDMDL
