MODEL 1
REMARK VINA RESULT:    -8.459      0.000      0.000
REMARK INTER + INTRA:         -13.135
REMARK INTER:                 -11.921
REMARK INTRA:                  -1.214
REMARK UNBOUND:                -1.214
REMARK  Name = 
REMARK  7 active torsions:
REMARK  status: ('A' for Active; 'I' for Inactive)
REMARK    1  A    between atoms: C_2  and  C_20
REMARK    2  A    between atoms: N_3  and  C_4
REMARK    3  A    between atoms: C_4  and  C_5
REMARK    4  A    between atoms: C_9  and  C_10
REMARK    5  A    between atoms: C_10  and  N_11
REMARK    6  A    between atoms: N_11  and  C_12
REMARK    7  A    between atoms: C_12  and  C_13
REMARK                            x       y       z     vdW  Elec       q    Type
REMARK                         _______ _______ _______ _____ _____    ______ ____
ROOT
ATOM      1  C   UNL     1      45.399   6.691  12.078  0.00  0.00    +0.000 A 
ATOM      2  C   UNL     1      44.382   7.466  11.529  0.00  0.00    +0.000 A 
ATOM      3  N   UNL     1      43.221   6.967  11.049  0.00  0.00    +0.000 NA
ATOM      4  C   UNL     1      43.056   5.627  11.121  0.00  0.00    +0.000 A 
ATOM      5  C   UNL     1      43.998   4.745  11.642  0.00  0.00    +0.000 A 
ATOM      6  C   UNL     1      45.199   5.302  12.109  0.00  0.00    +0.000 A 
ENDROOT
BRANCH   1   7
ATOM      7  C   UNL     1      46.632   7.342  12.638  0.00  0.00    +0.000 C 
BRANCH   7  10
ATOM      8  O   UNL     1      49.189   6.588  13.345  0.00  0.00    +0.000 OA
ATOM      9  C   UNL     1      48.324   6.556  14.217  0.00  0.00    +0.000 C 
ATOM     10  N   UNL     1      47.004   6.834  13.936  0.00  0.00    +0.000 N 
ATOM     11  H   UNL     1      46.365   7.006  14.706  0.00  0.00    +0.000 HD
BRANCH   9  12
ATOM     12  C   UNL     1      48.652   6.187  15.601  0.00  0.00    +0.000 A 
ATOM     13  C   UNL     1      49.436   7.035  16.373  0.00  0.00    +0.000 A 
ATOM     14  S   UNL     1      49.736   6.453  17.948  0.00  0.00    +0.000 S 
ATOM     15  C   UNL     1      48.780   5.072  17.673  0.00  0.00    +0.000 A 
ATOM     16  N   UNL     1      48.582   4.152  18.656  0.00  0.00    +0.000 NA
ATOM     17  C   UNL     1      47.793   3.184  18.322  0.00  0.00    +0.000 A 
ATOM     18  N   UNL     1      47.195   3.047  17.097  0.00  0.00    +0.000 N 
ATOM     19  C   UNL     1      47.409   3.924  16.060  0.00  0.00    +0.000 A 
ATOM     20  O   UNL     1      46.920   3.735  14.951  0.00  0.00    +0.000 OA
ATOM     21  C   UNL     1      48.264   5.045  16.391  0.00  0.00    +0.000 A 
ATOM     22  H   UNL     1      46.595   2.262  16.897  0.00  0.00    +0.000 HD
ENDBRANCH   9  12
ENDBRANCH   7  10
ENDBRANCH   1   7
BRANCH   5  23
ATOM     23  C   UNL     1      43.733   3.258  11.644  0.00  0.00    +0.000 C 
BRANCH  23  24
ATOM     24  N   UNL     1      44.788   2.499  10.964  0.00  0.00    +0.000 NA
ATOM     25  H   UNL     1      44.894   1.596  11.422  0.00  0.00    +0.000 HD
BRANCH  24  26
ATOM     26  C   UNL     1      44.530   2.297   9.525  0.00  0.00    +0.000 C 
BRANCH  26  27
ATOM     27  C   UNL     1      45.759   2.592   8.642  0.00  0.00    +0.000 C 
ATOM     28  C   UNL     1      46.259   1.312   7.957  0.00  0.00    +0.000 C 
ATOM     29  C   UNL     1      47.522   1.612   7.166  0.00  0.00    +0.000 C 
ATOM     30  C   UNL     1      47.302   2.758   6.183  0.00  0.00    +0.000 C 
ATOM     31  N   UNL     1      46.745   3.950   6.831  0.00  0.00    +0.000 NA
ATOM     32  C   UNL     1      45.502   3.657   7.558  0.00  0.00    +0.000 C 
ATOM     33  H   UNL     1      46.573   4.663   6.122  0.00  0.00    +0.000 HD
ENDBRANCH  26  27
ENDBRANCH  24  26
ENDBRANCH  23  24
ENDBRANCH   5  23
TORSDOF 7
ENDMDL
MODEL 2
REMARK VINA RESULT:    -8.440      2.447      3.317
REMARK INTER + INTRA:         -13.108
REMARK INTER:                 -12.153
REMARK INTRA:                  -0.955
REMARK UNBOUND:                -1.214
REMARK  Name = 
REMARK  7 active torsions:
REMARK  status: ('A' for Active; 'I' for Inactive)
REMARK    1  A    between atoms: C_2  and  C_20
REMARK    2  A    between atoms: N_3  and  C_4
REMARK    3  A    between atoms: C_4  and  C_5
REMARK    4  A    between atoms: C_9  and  C_10
REMARK    5  A    between atoms: C_10  and  N_11
REMARK    6  A    between atoms: N_11  and  C_12
REMARK    7  A    between atoms: C_12  and  C_13
REMARK                            x       y       z     vdW  Elec       q    Type
REMARK                         _______ _______ _______ _____ _____    ______ ____
ROOT
ATOM      1  C   UNL     1      46.742   5.157  13.827  0.00  0.00    +0.000 A 
ATOM      2  C   UNL     1      47.713   6.107  13.528  0.00  0.00    +0.000 A 
ATOM      3  N   UNL     1      47.735   6.841  12.393  0.00  0.00    +0.000 NA
ATOM      4  C   UNL     1      46.737   6.624  11.507  0.00  0.00    +0.000 A 
ATOM      5  C   UNL     1      45.712   5.699  11.686  0.00  0.00    +0.000 A 
ATOM      6  C   UNL     1      45.739   4.942  12.868  0.00  0.00    +0.000 A 
ENDROOT
BRANCH   1   7
ATOM      7  C   UNL     1      46.770   4.429  15.141  0.00  0.00    +0.000 C 
BRANCH   7  10
ATOM      8  O   UNL     1      47.227   4.624  17.854  0.00  0.00    +0.000 OA
ATOM      9  C   UNL     1      48.197   4.435  17.125  0.00  0.00    +0.000 C 
ATOM     10  N   UNL     1      48.076   4.407  15.753  0.00  0.00    +0.000 N 
ATOM     11  H   UNL     1      48.845   4.040  15.200  0.00  0.00    +0.000 HD
BRANCH   9  12
ATOM     12  C   UNL     1      49.545   4.257  17.683  0.00  0.00    +0.000 A 
ATOM     13  C   UNL     1      50.089   5.241  18.498  0.00  0.00    +0.000 A 
ATOM     14  S   UNL     1      51.665   4.887  19.049  0.00  0.00    +0.000 S 
ATOM     15  C   UNL     1      51.654   3.378  18.261  0.00  0.00    +0.000 A 
ATOM     16  N   UNL     1      52.714   2.530  18.360  0.00  0.00    +0.000 NA
ATOM     17  C   UNL     1      52.545   1.401  17.755  0.00  0.00    +0.000 A 
ATOM     18  N   UNL     1      51.422   1.047  17.055  0.00  0.00    +0.000 N 
ATOM     19  C   UNL     1      50.351   1.892  16.886  0.00  0.00    +0.000 A 
ATOM     20  O   UNL     1      49.391   1.577  16.190  0.00  0.00    +0.000 OA
ATOM     21  C   UNL     1      50.476   3.163  17.569  0.00  0.00    +0.000 A 
ATOM     22  H   UNL     1      51.356   0.151  16.597  0.00  0.00    +0.000 HD
ENDBRANCH   9  12
ENDBRANCH   7  10
ENDBRANCH   1   7
BRANCH   5  23
ATOM     23  C   UNL     1      44.663   5.506  10.616  0.00  0.00    +0.000 C 
BRANCH  23  24
ATOM     24  N   UNL     1      45.235   5.044   9.347  0.00  0.00    +0.000 NA
ATOM     25  H   UNL     1      46.161   4.657   9.523  0.00  0.00    +0.000 HD
BRANCH  24  26
ATOM     26  C   UNL     1      44.401   4.039   8.660  0.00  0.00    +0.000 C 
BRANCH  26  27
ATOM     27  C   UNL     1      45.228   2.986   7.895  0.00  0.00    +0.000 C 
ATOM     28  C   UNL     1      46.465   3.627   7.249  0.00  0.00    +0.000 C 
ATOM     29  C   UNL     1      47.213   2.588   6.429  0.00  0.00    +0.000 C 
ATOM     30  C   UNL     1      47.556   1.360   7.267  0.00  0.00    +0.000 C 
ATOM     31  N   UNL     1      46.383   0.804   7.948  0.00  0.00    +0.000 NA
ATOM     32  C   UNL     1      45.691   1.806   8.772  0.00  0.00    +0.000 C 
ATOM     33  H   UNL     1      46.678   0.020   8.530  0.00  0.00    +0.000 HD
ENDBRANCH  26  27
ENDBRANCH  24  26
ENDBRANCH  23  24
ENDBRANCH   5  23
TORSDOF 7
ENDMDL
MODEL 3
REMARK VINA RESULT:    -8.259      1.605      2.317
REMARK INTER + INTRA:         -12.854
REMARK INTER:                 -11.824
REMARK INTRA:                  -1.030
REMARK UNBOUND:                -1.214
REMARK  Name = 
REMARK  7 active torsions:
REMARK  status: ('A' for Active; 'I' for Inactive)
REMARK    1  A    between atoms: C_2  and  C_20
REMARK    2  A    between atoms: N_3  and  C_4
REMARK    3  A    between atoms: C_4  and  C_5
REMARK    4  A    between atoms: C_9  and  C_10
REMARK    5  A    between atoms: C_10  and  N_11
REMARK    6  A    between atoms: N_11  and  C_12
REMARK    7  A    between atoms: C_12  and  C_13
REMARK                            x       y       z     vdW  Elec       q    Type
REMARK                         _______ _______ _______ _____ _____    ______ ____
ROOT
ATOM      1  C   UNL     1      46.602   5.416  12.994  0.00  0.00    +0.000 A 
ATOM      2  C   UNL     1      46.636   4.092  13.416  0.00  0.00    +0.000 A 
ATOM      3  N   UNL     1      45.777   3.136  12.995  0.00  0.00    +0.000 NA
ATOM      4  C   UNL     1      44.834   3.514  12.103  0.00  0.00    +0.000 A 
ATOM      5  C   UNL     1      44.691   4.807  11.608  0.00  0.00    +0.000 A 
ATOM      6  C   UNL     1      45.590   5.773  12.088  0.00  0.00    +0.000 A 
ENDROOT
BRANCH   1   7
ATOM      7  C   UNL     1      47.635   6.395  13.475  0.00  0.00    +0.000 C 
BRANCH   7  10
ATOM      8  O   UNL     1      50.031   6.961  14.718  0.00  0.00    +0.000 OA
ATOM      9  C   UNL     1      49.062   6.718  15.432  0.00  0.00    +0.000 C 
ATOM     10  N   UNL     1      47.847   6.343  14.901  0.00  0.00    +0.000 N 
ATOM     11  H   UNL     1      47.025   6.361  15.497  0.00  0.00    +0.000 HD
BRANCH   9  12
ATOM     12  C   UNL     1      49.160   6.787  16.897  0.00  0.00    +0.000 A 
ATOM     13  C   UNL     1      49.407   8.006  17.516  0.00  0.00    +0.000 A 
ATOM     14  S   UNL     1      49.506   7.910  19.216  0.00  0.00    +0.000 S 
ATOM     15  C   UNL     1      49.168   6.242  19.190  0.00  0.00    +0.000 A 
ATOM     16  N   UNL     1      49.068   5.531  20.346  0.00  0.00    +0.000 NA
ATOM     17  C   UNL     1      48.756   4.288  20.177  0.00  0.00    +0.000 A 
ATOM     18  N   UNL     1      48.544   3.692  18.962  0.00  0.00    +0.000 N 
ATOM     19  C   UNL     1      48.687   4.360  17.768  0.00  0.00    +0.000 A 
ATOM     20  O   UNL     1      48.566   3.781  16.693  0.00  0.00    +0.000 OA
ATOM     21  C   UNL     1      49.008   5.765  17.902  0.00  0.00    +0.000 A 
ATOM     22  H   UNL     1      48.311   2.713  18.897  0.00  0.00    +0.000 HD
ENDBRANCH   9  12
ENDBRANCH   7  10
ENDBRANCH   1   7
BRANCH   5  23
ATOM     23  C   UNL     1      43.579   5.136  10.640  0.00  0.00    +0.000 C 
BRANCH  23  24
ATOM     24  N   UNL     1      43.694   4.391   9.382  0.00  0.00    +0.000 NA
ATOM     25  H   UNL     1      42.950   4.689   8.752  0.00  0.00    +0.000 HD
BRANCH  24  26
ATOM     26  C   UNL     1      45.001   4.559   8.718  0.00  0.00    +0.000 C 
BRANCH  26  27
ATOM     27  C   UNL     1      45.471   3.291   7.976  0.00  0.00    +0.000 C 
ATOM     28  C   UNL     1      46.734   3.578   7.152  0.00  0.00    +0.000 C 
ATOM     29  C   UNL     1      47.124   2.339   6.361  0.00  0.00    +0.000 C 
ATOM     30  C   UNL     1      47.278   1.125   7.272  0.00  0.00    +0.000 C 
ATOM     31  N   UNL     1      46.100   0.907   8.117  0.00  0.00    +0.000 NA
ATOM     32  C   UNL     1      45.756   2.098   8.909  0.00  0.00    +0.000 C 
ATOM     33  H   UNL     1      46.277   0.117   8.737  0.00  0.00    +0.000 HD
ENDBRANCH  26  27
ENDBRANCH  24  26
ENDBRANCH  23  24
ENDBRANCH   5  23
TORSDOF 7
ENDMDL
MODEL 4
REMARK VINA RESULT:    -7.805      1.253      1.582
REMARK INTER + INTRA:         -12.213
REMARK INTER:                 -11.012
REMARK INTRA:                  -1.201
REMARK UNBOUND:                -1.214
REMARK  Name = 
REMARK  7 active torsions:
REMARK  status: ('A' for Active; 'I' for Inactive)
REMARK    1  A    between atoms: C_2  and  C_20
REMARK    2  A    between atoms: N_3  and  C_4
REMARK    3  A    between atoms: C_4  and  C_5
REMARK    4  A    between atoms: C_9  and  C_10
REMARK    5  A    between atoms: C_10  and  N_11
REMARK    6  A    between atoms: N_11  and  C_12
REMARK    7  A    between atoms: C_12  and  C_13
REMARK                            x       y       z     vdW  Elec       q    Type
REMARK                         _______ _______ _______ _____ _____    ______ ____
ROOT
ATOM      1  C   UNL     1      46.889   7.168  11.916  0.00  0.00    +0.000 A 
ATOM      2  C   UNL     1      46.169   8.358  11.950  0.00  0.00    +0.000 A 
ATOM      3  N   UNL     1      44.831   8.443  11.779  0.00  0.00    +0.000 NA
ATOM      4  C   UNL     1      44.168   7.284  11.567  0.00  0.00    +0.000 A 
ATOM      5  C   UNL     1      44.772   6.031  11.505  0.00  0.00    +0.000 A 
ATOM      6  C   UNL     1      46.166   5.990  11.665  0.00  0.00    +0.000 A 
ENDROOT
BRANCH   1   7
ATOM      7  C   UNL     1      48.369   7.167  12.173  0.00  0.00    +0.000 C 
BRANCH   7  10
ATOM      8  O   UNL     1      48.520   8.437  14.617  0.00  0.00    +0.000 OA
ATOM      9  C   UNL     1      48.705   7.223  14.593  0.00  0.00    +0.000 C 
ATOM     10  N   UNL     1      48.731   6.518  13.409  0.00  0.00    +0.000 N 
ATOM     11  H   UNL     1      48.670   5.504  13.440  0.00  0.00    +0.000 HD
BRANCH   9  12
ATOM     12  C   UNL     1      48.936   6.464  15.830  0.00  0.00    +0.000 A 
ATOM     13  C   UNL     1      49.842   6.938  16.771  0.00  0.00    +0.000 A 
ATOM     14  S   UNL     1      50.005   5.934  18.139  0.00  0.00    +0.000 S 
ATOM     15  C   UNL     1      48.828   4.855  17.549  0.00  0.00    +0.000 A 
ATOM     16  N   UNL     1      48.453   3.765  18.272  0.00  0.00    +0.000 NA
ATOM     17  C   UNL     1      47.514   3.066  17.725  0.00  0.00    +0.000 A 
ATOM     18  N   UNL     1      46.924   3.350  16.521  0.00  0.00    +0.000 N 
ATOM     19  C   UNL     1      47.309   4.411  15.734  0.00  0.00    +0.000 A 
ATOM     20  O   UNL     1      46.815   4.597  14.627  0.00  0.00    +0.000 OA
ATOM     21  C   UNL     1      48.340   5.245  16.315  0.00  0.00    +0.000 A 
ATOM     22  H   UNL     1      46.200   2.758  16.145  0.00  0.00    +0.000 HD
ENDBRANCH   9  12
ENDBRANCH   7  10
ENDBRANCH   1   7
BRANCH   5  23
ATOM     23  C   UNL     1      43.946   4.798  11.226  0.00  0.00    +0.000 C 
BRANCH  23  24
ATOM     24  N   UNL     1      44.659   3.822  10.395  0.00  0.00    +0.000 NA
ATOM     25  H   UNL     1      44.304   2.890  10.603  0.00  0.00    +0.000 HD
BRANCH  24  26
ATOM     26  C   UNL     1      44.540   4.085   8.948  0.00  0.00    +0.000 C 
BRANCH  26  27
ATOM     27  C   UNL     1      45.231   3.015   8.079  0.00  0.00    +0.000 C 
ATOM     28  C   UNL     1      46.378   3.630   7.264  0.00  0.00    +0.000 C 
ATOM     29  C   UNL     1      46.982   2.575   6.351  0.00  0.00    +0.000 C 
ATOM     30  C   UNL     1      47.413   1.341   7.138  0.00  0.00    +0.000 C 
ATOM     31  N   UNL     1      46.336   0.809   7.977  0.00  0.00    +0.000 NA
ATOM     32  C   UNL     1      45.786   1.826   8.886  0.00  0.00    +0.000 C 
ATOM     33  H   UNL     1      46.692   0.019   8.515  0.00  0.00    +0.000 HD
ENDBRANCH  26  27
ENDBRANCH  24  26
ENDBRANCH  23  24
ENDBRANCH   5  23
TORSDOF 7
ENDMDL
MODEL 5
REMARK VINA RESULT:    -7.538      2.125      3.218
REMARK INTER + INTRA:         -11.836
REMARK INTER:                 -10.975
REMARK INTRA:                  -0.861
REMARK UNBOUND:                -1.214
REMARK  Name = 
REMARK  7 active torsions:
REMARK  status: ('A' for Active; 'I' for Inactive)
REMARK    1  A    between atoms: C_2  and  C_20
REMARK    2  A    between atoms: N_3  and  C_4
REMARK    3  A    between atoms: C_4  and  C_5
REMARK    4  A    between atoms: C_9  and  C_10
REMARK    5  A    between atoms: C_10  and  N_11
REMARK    6  A    between atoms: N_11  and  C_12
REMARK    7  A    between atoms: C_12  and  C_13
REMARK                            x       y       z     vdW  Elec       q    Type
REMARK                         _______ _______ _______ _____ _____    ______ ____
ROOT
ATOM      1  C   UNL     1      46.731   4.792  13.746  0.00  0.00    +0.000 A 
ATOM      2  C   UNL     1      47.571   5.899  13.714  0.00  0.00    +0.000 A 
ATOM      3  N   UNL     1      47.514   6.872  12.776  0.00  0.00    +0.000 NA
ATOM      4  C   UNL     1      46.568   6.740  11.819  0.00  0.00    +0.000 A 
ATOM      5  C   UNL     1      45.672   5.677  11.737  0.00  0.00    +0.000 A 
ATOM      6  C   UNL     1      45.781   4.679  12.718  0.00  0.00    +0.000 A 
ENDROOT
BRANCH   1   7
ATOM      7  C   UNL     1      46.834   3.791  14.862  0.00  0.00    +0.000 C 
BRANCH   7  10
ATOM      8  O   UNL     1      48.757   2.403  16.270  0.00  0.00    +0.000 OA
ATOM      9  C   UNL     1      48.524   3.560  16.612  0.00  0.00    +0.000 C 
ATOM     10  N   UNL     1      47.523   4.301  16.022  0.00  0.00    +0.000 N 
ATOM     11  H   UNL     1      47.501   5.305  16.175  0.00  0.00    +0.000 HD
BRANCH   9  12
ATOM     12  C   UNL     1      49.286   4.203  17.692  0.00  0.00    +0.000 A 
ATOM     13  C   UNL     1      50.666   4.051  17.748  0.00  0.00    +0.000 A 
ATOM     14  S   UNL     1      51.394   4.845  19.070  0.00  0.00    +0.000 S 
ATOM     15  C   UNL     1      49.896   5.468  19.584  0.00  0.00    +0.000 A 
ATOM     16  N   UNL     1      49.814   6.285  20.669  0.00  0.00    +0.000 NA
ATOM     17  C   UNL     1      48.623   6.724  20.911  0.00  0.00    +0.000 A 
ATOM     18  N   UNL     1      47.509   6.414  20.176  0.00  0.00    +0.000 N 
ATOM     19  C   UNL     1      47.538   5.552  19.106  0.00  0.00    +0.000 A 
ATOM     20  O   UNL     1      46.512   5.233  18.513  0.00  0.00    +0.000 OA
ATOM     21  C   UNL     1      48.856   5.053  18.773  0.00  0.00    +0.000 A 
ATOM     22  H   UNL     1      46.604   6.784  20.423  0.00  0.00    +0.000 HD
ENDBRANCH   9  12
ENDBRANCH   7  10
ENDBRANCH   1   7
BRANCH   5  23
ATOM     23  C   UNL     1      44.675   5.605  10.605  0.00  0.00    +0.000 C 
BRANCH  23  24
ATOM     24  N   UNL     1      45.266   5.075   9.371  0.00  0.00    +0.000 NA
ATOM     25  H   UNL     1      46.174   4.667   9.588  0.00  0.00    +0.000 HD
BRANCH  24  26
ATOM     26  C   UNL     1      44.419   4.070   8.700  0.00  0.00    +0.000 C 
BRANCH  26  27
ATOM     27  C   UNL     1      45.230   3.030   7.902  0.00  0.00    +0.000 C 
ATOM     28  C   UNL     1      46.434   3.688   7.212  0.00  0.00    +0.000 C 
ATOM     29  C   UNL     1      47.164   2.662   6.361  0.00  0.00    +0.000 C 
ATOM     30  C   UNL     1      47.553   1.436   7.182  0.00  0.00    +0.000 C 
ATOM     31  N   UNL     1      46.413   0.862   7.903  0.00  0.00    +0.000 NA
ATOM     32  C   UNL     1      45.740   1.853   8.756  0.00  0.00    +0.000 C 
ATOM     33  H   UNL     1      46.739   0.080   8.471  0.00  0.00    +0.000 HD
ENDBRANCH  26  27
ENDBRANCH  24  26
ENDBRANCH  23  24
ENDBRANCH   5  23
TORSDOF 7
ENDMDL
MODEL 6
REMARK VINA RESULT:    -7.314      1.917      2.506
REMARK INTER + INTRA:         -11.521
REMARK INTER:                 -10.690
REMARK INTRA:                  -0.831
REMARK UNBOUND:                -1.214
REMARK  Name = 
REMARK  7 active torsions:
REMARK  status: ('A' for Active; 'I' for Inactive)
REMARK    1  A    between atoms: C_2  and  C_20
REMARK    2  A    between atoms: N_3  and  C_4
REMARK    3  A    between atoms: C_4  and  C_5
REMARK    4  A    between atoms: C_9  and  C_10
REMARK    5  A    between atoms: C_10  and  N_11
REMARK    6  A    between atoms: N_11  and  C_12
REMARK    7  A    between atoms: C_12  and  C_13
REMARK                            x       y       z     vdW  Elec       q    Type
REMARK                         _______ _______ _______ _____ _____    ______ ____
ROOT
ATOM      1  C   UNL     1      46.208   6.017  12.442  0.00  0.00    +0.000 A 
ATOM      2  C   UNL     1      45.414   7.143  12.254  0.00  0.00    +0.000 A 
ATOM      3  N   UNL     1      44.164   7.115  11.739  0.00  0.00    +0.000 NA
ATOM      4  C   UNL     1      43.672   5.903  11.397  0.00  0.00    +0.000 A 
ATOM      5  C   UNL     1      44.367   4.705  11.531  0.00  0.00    +0.000 A 
ATOM      6  C   UNL     1      45.670   4.781  12.048  0.00  0.00    +0.000 A 
ENDROOT
BRANCH   1   7
ATOM      7  C   UNL     1      47.565   6.140  13.074  0.00  0.00    +0.000 C 
BRANCH   7  10
ATOM      8  O   UNL     1      49.659   6.701  14.780  0.00  0.00    +0.000 OA
ATOM      9  C   UNL     1      48.628   6.251  15.272  0.00  0.00    +0.000 C 
ATOM     10  N   UNL     1      47.561   5.864  14.490  0.00  0.00    +0.000 N 
ATOM     11  H   UNL     1      46.661   5.703  14.932  0.00  0.00    +0.000 HD
BRANCH   9  12
ATOM     12  C   UNL     1      48.492   6.075  16.725  0.00  0.00    +0.000 A 
ATOM     13  C   UNL     1      48.565   4.802  17.276  0.00  0.00    +0.000 A 
ATOM     14  S   UNL     1      48.373   4.771  18.970  0.00  0.00    +0.000 S 
ATOM     15  C   UNL     1      48.240   6.467  19.035  0.00  0.00    +0.000 A 
ATOM     16  N   UNL     1      48.093   7.112  20.224  0.00  0.00    +0.000 NA
ATOM     17  C   UNL     1      48.059   8.400  20.127  0.00  0.00    +0.000 A 
ATOM     18  N   UNL     1      48.148   9.099  18.952  0.00  0.00    +0.000 N 
ATOM     19  C   UNL     1      48.244   8.487  17.724  0.00  0.00    +0.000 A 
ATOM     20  O   UNL     1      48.245   9.136  16.684  0.00  0.00    +0.000 OA
ATOM     21  C   UNL     1      48.316   7.042  17.780  0.00  0.00    +0.000 A 
ATOM     22  H   UNL     1      48.106  10.107  18.942  0.00  0.00    +0.000 HD
ENDBRANCH   9  12
ENDBRANCH   7  10
ENDBRANCH   1   7
BRANCH   5  23
ATOM     23  C   UNL     1      43.740   3.405  11.084  0.00  0.00    +0.000 C 
BRANCH  23  24
ATOM     24  N   UNL     1      43.916   3.163   9.648  0.00  0.00    +0.000 NA
ATOM     25  H   UNL     1      44.263   4.014   9.209  0.00  0.00    +0.000 HD
BRANCH  24  26
ATOM     26  C   UNL     1      44.830   2.044   9.349  0.00  0.00    +0.000 C 
BRANCH  26  27
ATOM     27  C   UNL     1      45.990   2.442   8.416  0.00  0.00    +0.000 C 
ATOM     28  C   UNL     1      46.594   1.205   7.736  0.00  0.00    +0.000 C 
ATOM     29  C   UNL     1      47.791   1.614   6.892  0.00  0.00    +0.000 C 
ATOM     30  C   UNL     1      47.420   2.710   5.898  0.00  0.00    +0.000 C 
ATOM     31  N   UNL     1      46.769   3.853   6.544  0.00  0.00    +0.000 NA
ATOM     32  C   UNL     1      45.588   3.452   7.323  0.00  0.00    +0.000 C 
ATOM     33  H   UNL     1      46.499   4.530   5.830  0.00  0.00    +0.000 HD
ENDBRANCH  26  27
ENDBRANCH  24  26
ENDBRANCH  23  24
ENDBRANCH   5  23
TORSDOF 7
ENDMDL
MODEL 7
REMARK VINA RESULT:    -7.260      2.322      3.614
REMARK INTER + INTRA:         -11.445
REMARK INTER:                 -10.456
REMARK INTRA:                  -0.990
REMARK UNBOUND:                -1.214
REMARK  Name = 
REMARK  7 active torsions:
REMARK  status: ('A' for Active; 'I' for Inactive)
REMARK    1  A    between atoms: C_2  and  C_20
REMARK    2  A    between atoms: N_3  and  C_4
REMARK    3  A    between atoms: C_4  and  C_5
REMARK    4  A    between atoms: C_9  and  C_10
REMARK    5  A    between atoms: C_10  and  N_11
REMARK    6  A    between atoms: N_11  and  C_12
REMARK    7  A    between atoms: C_12  and  C_13
REMARK                            x       y       z     vdW  Elec       q    Type
REMARK                         _______ _______ _______ _____ _____    ______ ____
ROOT
ATOM      1  C   UNL     1      46.976   5.078  13.717  0.00  0.00    +0.000 A 
ATOM      2  C   UNL     1      47.852   6.107  13.391  0.00  0.00    +0.000 A 
ATOM      3  N   UNL     1      47.747   6.874  12.282  0.00  0.00    +0.000 NA
ATOM      4  C   UNL     1      46.712   6.608  11.453  0.00  0.00    +0.000 A 
ATOM      5  C   UNL     1      45.772   5.603  11.665  0.00  0.00    +0.000 A 
ATOM      6  C   UNL     1      45.932   4.816  12.816  0.00  0.00    +0.000 A 
ENDROOT
BRANCH   1   7
ATOM      7  C   UNL     1      47.143   4.316  15.001  0.00  0.00    +0.000 C 
BRANCH   7  10
ATOM      8  O   UNL     1      48.474   3.607  17.311  0.00  0.00    +0.000 OA
ATOM      9  C   UNL     1      48.038   4.753  17.233  0.00  0.00    +0.000 C 
ATOM     10  N   UNL     1      47.288   5.170  16.155  0.00  0.00    +0.000 N 
ATOM     11  H   UNL     1      47.131   6.165  16.023  0.00  0.00    +0.000 HD
BRANCH   9  12
ATOM     12  C   UNL     1      48.270   5.729  18.306  0.00  0.00    +0.000 A 
ATOM     13  C   UNL     1      47.805   5.468  19.589  0.00  0.00    +0.000 A 
ATOM     14  S   UNL     1      48.144   6.708  20.711  0.00  0.00    +0.000 S 
ATOM     15  C   UNL     1      48.974   7.614  19.534  0.00  0.00    +0.000 A 
ATOM     16  N   UNL     1      49.561   8.800  19.850  0.00  0.00    +0.000 NA
ATOM     17  C   UNL     1      50.200   9.351  18.871  0.00  0.00    +0.000 A 
ATOM     18  N   UNL     1      50.297   8.832  17.607  0.00  0.00    +0.000 N 
ATOM     19  C   UNL     1      49.675   7.664  17.230  0.00  0.00    +0.000 A 
ATOM     20  O   UNL     1      49.716   7.263  16.072  0.00  0.00    +0.000 OA
ATOM     21  C   UNL     1      48.968   6.990  18.300  0.00  0.00    +0.000 A 
ATOM     22  H   UNL     1      50.804   9.317  16.883  0.00  0.00    +0.000 HD
ENDBRANCH   9  12
ENDBRANCH   7  10
ENDBRANCH   1   7
BRANCH   5  23
ATOM     23  C   UNL     1      44.672   5.363  10.657  0.00  0.00    +0.000 C 
BRANCH  23  24
ATOM     24  N   UNL     1      45.194   5.031   9.327  0.00  0.00    +0.000 NA
ATOM     25  H   UNL     1      46.153   4.700   9.421  0.00  0.00    +0.000 HD
BRANCH  24  26
ATOM     26  C   UNL     1      44.388   4.020   8.616  0.00  0.00    +0.000 C 
BRANCH  26  27
ATOM     27  C   UNL     1      45.244   2.991   7.851  0.00  0.00    +0.000 C 
ATOM     28  C   UNL     1      46.462   3.666   7.206  0.00  0.00    +0.000 C 
ATOM     29  C   UNL     1      47.239   2.648   6.385  0.00  0.00    +0.000 C 
ATOM     30  C   UNL     1      47.615   1.430   7.223  0.00  0.00    +0.000 C 
ATOM     31  N   UNL     1      46.457   0.841   7.902  0.00  0.00    +0.000 NA
ATOM     32  C   UNL     1      45.738   1.823   8.727  0.00  0.00    +0.000 C 
ATOM     33  H   UNL     1      46.773   0.065   8.484  0.00  0.00    +0.000 HD
ENDBRANCH  26  27
ENDBRANCH  24  26
ENDBRANCH  23  24
ENDBRANCH   5  23
TORSDOF 7
ENDMDL
MODEL 8
REMARK VINA RESULT:    -7.202      2.376      3.043
REMARK INTER + INTRA:         -11.364
REMARK INTER:                 -10.376
REMARK INTRA:                  -0.988
REMARK UNBOUND:                -1.214
REMARK  Name = 
REMARK  7 active torsions:
REMARK  status: ('A' for Active; 'I' for Inactive)
REMARK    1  A    between atoms: C_2  and  C_20
REMARK    2  A    between atoms: N_3  and  C_4
REMARK    3  A    between atoms: C_4  and  C_5
REMARK    4  A    between atoms: C_9  and  C_10
REMARK    5  A    between atoms: C_10  and  N_11
REMARK    6  A    between atoms: N_11  and  C_12
REMARK    7  A    between atoms: C_12  and  C_13
REMARK                            x       y       z     vdW  Elec       q    Type
REMARK                         _______ _______ _______ _____ _____    ______ ____
ROOT
ATOM      1  C   UNL     1      47.060   6.155  13.593  0.00  0.00    +0.000 A 
ATOM      2  C   UNL     1      47.063   4.855  14.087  0.00  0.00    +0.000 A 
ATOM      3  N   UNL     1      46.373   3.830  13.536  0.00  0.00    +0.000 NA
ATOM      4  C   UNL     1      45.644   4.110  12.433  0.00  0.00    +0.000 A 
ATOM      5  C   UNL     1      45.554   5.369  11.845  0.00  0.00    +0.000 A 
ATOM      6  C   UNL     1      46.268   6.409  12.461  0.00  0.00    +0.000 A 
ENDROOT
BRANCH   1   7
ATOM      7  C   UNL     1      47.905   7.216  14.240  0.00  0.00    +0.000 C 
BRANCH   7  10
ATOM      8  O   UNL     1      49.419   8.428  16.201  0.00  0.00    +0.000 OA
ATOM      9  C   UNL     1      49.821   7.359  15.749  0.00  0.00    +0.000 C 
ATOM     10  N   UNL     1      49.176   6.723  14.711  0.00  0.00    +0.000 N 
ATOM     11  H   UNL     1      49.404   5.754  14.511  0.00  0.00    +0.000 HD
BRANCH   9  12
ATOM     12  C   UNL     1      51.033   6.717  16.278  0.00  0.00    +0.000 A 
ATOM     13  C   UNL     1      52.262   7.352  16.148  0.00  0.00    +0.000 A 
ATOM     14  S   UNL     1      53.567   6.468  16.800  0.00  0.00    +0.000 S 
ATOM     15  C   UNL     1      52.527   5.229  17.330  0.00  0.00    +0.000 A 
ATOM     16  N   UNL     1      53.009   4.157  18.015  0.00  0.00    +0.000 NA
ATOM     17  C   UNL     1      52.100   3.323  18.400  0.00  0.00    +0.000 A 
ATOM     18  N   UNL     1      50.759   3.457  18.154  0.00  0.00    +0.000 N 
ATOM     19  C   UNL     1      50.235   4.497  17.421  0.00  0.00    +0.000 A 
ATOM     20  O   UNL     1      49.039   4.551  17.152  0.00  0.00    +0.000 OA
ATOM     21  C   UNL     1      51.210   5.477  16.990  0.00  0.00    +0.000 A 
ATOM     22  H   UNL     1      50.100   2.765  18.475  0.00  0.00    +0.000 HD
ENDBRANCH   9  12
ENDBRANCH   7  10
ENDBRANCH   1   7
BRANCH   5  23
ATOM     23  C   UNL     1      44.680   5.584  10.632  0.00  0.00    +0.000 C 
BRANCH  23  24
ATOM     24  N   UNL     1      45.278   5.042   9.408  0.00  0.00    +0.000 NA
ATOM     25  H   UNL     1      46.194   4.656   9.629  0.00  0.00    +0.000 HD
BRANCH  24  26
ATOM     26  C   UNL     1      44.449   4.007   8.759  0.00  0.00    +0.000 C 
BRANCH  26  27
ATOM     27  C   UNL     1      45.273   2.998   7.935  0.00  0.00    +0.000 C 
ATOM     28  C   UNL     1      46.485   3.683   7.287  0.00  0.00    +0.000 C 
ATOM     29  C   UNL     1      47.229   2.689   6.410  0.00  0.00    +0.000 C 
ATOM     30  C   UNL     1      47.610   1.435   7.192  0.00  0.00    +0.000 C 
ATOM     31  N   UNL     1      46.461   0.834   7.876  0.00  0.00    +0.000 NA
ATOM     32  C   UNL     1      45.773   1.792   8.754  0.00  0.00    +0.000 C 
ATOM     33  H   UNL     1      46.780   0.032   8.420  0.00  0.00    +0.000 HD
ENDBRANCH  26  27
ENDBRANCH  24  26
ENDBRANCH  23  24
ENDBRANCH   5  23
TORSDOF 7
ENDMDL
MODEL 9
REMARK VINA RESULT:    -7.054      1.307      1.626
REMARK INTER + INTRA:         -11.155
REMARK INTER:                 -10.003
REMARK INTRA:                  -1.151
REMARK UNBOUND:                -1.214
REMARK  Name = 
REMARK  7 active torsions:
REMARK  status: ('A' for Active; 'I' for Inactive)
REMARK    1  A    between atoms: C_2  and  C_20
REMARK    2  A    between atoms: N_3  and  C_4
REMARK    3  A    between atoms: C_4  and  C_5
REMARK    4  A    between atoms: C_9  and  C_10
REMARK    5  A    between atoms: C_10  and  N_11
REMARK    6  A    between atoms: N_11  and  C_12
REMARK    7  A    between atoms: C_12  and  C_13
REMARK                            x       y       z     vdW  Elec       q    Type
REMARK                         _______ _______ _______ _____ _____    ______ ____
ROOT
ATOM      1  C   UNL     1      46.832   7.219  13.064  0.00  0.00    +0.000 A 
ATOM      2  C   UNL     1      45.875   7.998  12.423  0.00  0.00    +0.000 A 
ATOM      3  N   UNL     1      44.814   7.500  11.749  0.00  0.00    +0.000 NA
ATOM      4  C   UNL     1      44.693   6.153  11.713  0.00  0.00    +0.000 A 
ATOM      5  C   UNL     1      45.585   5.266  12.308  0.00  0.00    +0.000 A 
ATOM      6  C   UNL     1      46.685   5.825  12.978  0.00  0.00    +0.000 A 
ENDROOT
BRANCH   1   7
ATOM      7  C   UNL     1      47.947   7.866  13.836  0.00  0.00    +0.000 C 
BRANCH   7  10
ATOM      8  O   UNL     1      50.431   7.411  14.944  0.00  0.00    +0.000 OA
ATOM      9  C   UNL     1      49.445   7.149  15.629  0.00  0.00    +0.000 C 
ATOM     10  N   UNL     1      48.166   7.265  15.129  0.00  0.00    +0.000 N 
ATOM     11  H   UNL     1      47.384   7.249  15.776  0.00  0.00    +0.000 HD
BRANCH   9  12
ATOM     12  C   UNL     1      49.585   6.669  17.011  0.00  0.00    +0.000 A 
ATOM     13  C   UNL     1      50.282   7.431  17.939  0.00  0.00    +0.000 A 
ATOM     14  S   UNL     1      50.364   6.725  19.489  0.00  0.00    +0.000 S 
ATOM     15  C   UNL     1      49.421   5.399  18.989  0.00  0.00    +0.000 A 
ATOM     16  N   UNL     1      49.078   4.415  19.864  0.00  0.00    +0.000 NA
ATOM     17  C   UNL     1      48.317   3.500  19.360  0.00  0.00    +0.000 A 
ATOM     18  N   UNL     1      47.877   3.474  18.062  0.00  0.00    +0.000 N 
ATOM     19  C   UNL     1      48.243   4.419  17.131  0.00  0.00    +0.000 A 
ATOM     20  O   UNL     1      47.896   4.329  15.958  0.00  0.00    +0.000 OA
ATOM     21  C   UNL     1      49.073   5.484  17.653  0.00  0.00    +0.000 A 
ATOM     22  H   UNL     1      47.291   2.726  17.727  0.00  0.00    +0.000 HD
ENDBRANCH   9  12
ENDBRANCH   7  10
ENDBRANCH   1   7
BRANCH   5  23
ATOM     23  C   UNL     1      45.380   3.775  12.177  0.00  0.00    +0.000 C 
BRANCH  23  24
ATOM     24  N   UNL     1      43.981   3.423  11.915  0.00  0.00    +0.000 NA
ATOM     25  H   UNL     1      43.413   4.268  11.958  0.00  0.00    +0.000 HD
BRANCH  24  26
ATOM     26  C   UNL     1      43.777   2.756  10.614  0.00  0.00    +0.000 C 
BRANCH  26  27
ATOM     27  C   UNL     1      44.944   2.978   9.631  0.00  0.00    +0.000 C 
ATOM     28  C   UNL     1      45.238   1.698   8.834  0.00  0.00    +0.000 C 
ATOM     29  C   UNL     1      46.447   1.916   7.939  0.00  0.00    +0.000 C 
ATOM     30  C   UNL     1      46.263   3.138   7.044  0.00  0.00    +0.000 C 
ATOM     31  N   UNL     1      45.901   4.338   7.805  0.00  0.00    +0.000 NA
ATOM     32  C   UNL     1      44.706   4.130   8.636  0.00  0.00    +0.000 C 
ATOM     33  H   UNL     1      45.743   5.108   7.156  0.00  0.00    +0.000 HD
ENDBRANCH  26  27
ENDBRANCH  24  26
ENDBRANCH  23  24
ENDBRANCH   5  23
TORSDOF 7
ENDMDL
